# generated using pymatgen
data_In2Te3
_symmetry_space_group_name_H-M   'P 1'
_cell_length_a   18.76024146
_cell_length_b   18.75641076
_cell_length_c   18.76723763
_cell_angle_alpha   90.01974937
_cell_angle_beta   90.05498428
_cell_angle_gamma   89.92444120
_symmetry_Int_Tables_number   1
_chemical_formula_structural   In2Te3
_chemical_formula_sum   'In72 Te108'
_cell_volume   6603.70872090
_cell_formula_units_Z   36
loop_
 _symmetry_equiv_pos_site_id
 _symmetry_equiv_pos_as_xyz
  1  'x, y, z'
loop_
 _atom_site_type_symbol
 _atom_site_label
 _atom_site_symmetry_multiplicity
 _atom_site_fract_x
 _atom_site_fract_y
 _atom_site_fract_z
 _atom_site_occupancy
  In  In0  1  0.16990656  0.31974926  0.16635105  1
  In  In1  1  0.15412421  0.17349442  0.66514506  1
  In  In2  1  0.34006280  0.18928544  0.49190441  1
  In  In3  1  0.47887455  0.87335388  0.31754242  1
  In  In4  1  0.53852943  0.67162520  0.52361237  1
  In  In5  1  0.82761117  0.00073132  0.84951469  1
  In  In6  1  0.64851540  -0.01437088  0.00676927  1
  In  In7  1  0.81941030  0.68945735  0.12815465  1
  In  In8  1  0.34118128  0.68501086  0.67022303  1
  In  In9  1  0.63426555  0.68833445  -0.03967727  1
  In  In10  1  0.16853807  0.66111979  0.50692635  1
  In  In11  1  0.64524243  -0.01892204  0.67107113  1
  In  In12  1  0.31178314  0.46147831  0.51753722  1
  In  In13  1  0.49822644  0.67620758  0.16117719  1
  In  In14  1  0.00545314  0.01705597  0.00625516  1
  In  In15  1  0.20146700  0.15584201  0.31185022  1
  In  In16  1  0.00209405  0.64193472  0.32750413  1
  In  In17  1  0.16661950  0.15883237  -0.00801650  1
  In  In18  1  0.83136682  0.32508565  0.17487948  1
  In  In19  1  0.33571711  0.51341587  0.83256602  1
  In  In20  1  0.49305695  0.33990503  0.84632623  1
  In  In21  1  0.66402633  0.66748451  0.34001482  1
  In  In22  1  0.36009154  0.48908143  0.15498398  1
  In  In23  1  0.00826368  0.68180046  0.00796699  1
  In  In24  1  0.49558277  0.33328633  0.51815494  1
  In  In25  1  0.66153640  0.00934039  0.33217450  1
  In  In26  1  0.17700892  0.66061713  0.83089552  1
  In  In27  1  0.81900806  0.01852506  0.16286083  1
  In  In28  1  0.34965019  0.33297847  0.01174284  1
  In  In29  1  0.00048494  0.84111621  0.50879595  1
  In  In30  1  0.84120952  0.48973971  0.33422633  1
  In  In31  1  0.66034119  0.50071777  0.82705108  1
  In  In32  1  0.01152813  0.15270477  0.83713751  1
  In  In33  1  0.79401097  0.84882210  0.00087190  1
  In  In34  1  0.78857285  0.32935406  0.83022971  1
  In  In35  1  0.18788543  0.83094650  0.31766428  1
  In  In36  1  0.01455748  0.84524153  0.17747429  1
  In  In37  1  0.14333360  0.47621076  0.35287271  1
  In  In38  1  0.00463137  0.47759403  0.80620844  1
  In  In39  1  0.80941398  0.84256256  0.66422621  1
  In  In40  1  0.33355503  0.15577544  0.82047273  1
  In  In41  1  0.67651328  0.33418743  0.32340832  1
  In  In42  1  0.49602123  0.51621632  0.67289836  1
  In  In43  1  0.34283642  -0.00259465  0.67607535  1
  In  In44  1  0.35258881  0.85170528  0.83629937  1
  In  In45  1  0.50552770  0.16197116  0.30598073  1
  In  In46  1  0.16170340  -0.01463730  0.50172745  1
  In  In47  1  -0.00775434  -0.00488206  0.32723686  1
  In  In48  1  0.80420375  0.68077571  0.80773384  1
  In  In49  1  0.33711732  0.67240215  0.32173528  1
  In  In50  1  0.00999281  0.49980019  0.19311366  1
  In  In51  1  0.18424685  0.85999392  0.01422863  1
  In  In52  1  0.35333352  0.03554152  0.01571199  1
  In  In53  1  0.34878811  0.31907265  0.32337730  1
  In  In54  1  0.65413723  0.50092519  0.18118311  1
  In  In55  1  0.48975347  -0.00270911  0.50342593  1
  In  In56  1  0.19583229  0.50118773  0.00332131  1
  In  In57  1  0.82095239  0.83209960  0.33898208  1
  In  In58  1  0.01908606  0.65131103  0.64669435  1
  In  In59  1  0.84853964  0.33540862  0.49215742  1
  In  In60  1  0.79869089  0.63608909  0.52379799  1
  In  In61  1  -0.00731387  0.83430096  0.83445443  1
  In  In62  1  0.66920127  0.14342521  0.49899195  1
  In  In63  1  0.64857449  0.16394547  0.86492754  1
  In  In64  1  0.37818579  0.67723721  -0.00533656  1
  In  In65  1  0.65284555  0.34355282  0.68263735  1
  In  In66  1  0.81017497  0.47615294  0.02137511  1
  In  In67  1  -0.01703445  0.16765469  0.50130471  1
  In  In68  1  -0.00949187  0.31473252  -0.00286669  1
  In  In69  1  0.83886877  0.16136633  0.66067897  1
  In  In70  1  0.33859664  0.83311233  0.49940452  1
  In  In71  1  0.00669811  0.32529576  0.65893336  1
  Te  Te72  1  0.08671976  0.09662632  0.09976539  1
  Te  Te73  1  0.08967194  0.08584784  0.41196752  1
  Te  Te74  1  0.08422108  0.06845925  0.74164433  1
  Te  Te75  1  0.08397252  0.42241169  0.07582934  1
  Te  Te76  1  0.05415138  0.43131652  0.46001172  1
  Te  Te77  1  0.11368961  0.40695910  0.73188148  1
  Te  Te78  1  0.10757415  0.75222638  0.09861505  1
  Te  Te79  1  0.08250167  0.75474433  0.40878331  1
  Te  Te80  1  0.08453916  0.74900553  0.74681929  1
  Te  Te81  1  0.47629072  0.09335781  0.09290497  1
  Te  Te82  1  0.41453876  0.08694575  0.40533946  1
  Te  Te83  1  0.44035392  0.06990734  0.76237990  1
  Te  Te84  1  0.45750732  0.41919609  0.06705360  1
  Te  Te85  1  0.41937459  0.41865083  0.41586632  1
  Te  Te86  1  0.40896457  0.41254980  0.74017078  1
  Te  Te87  1  0.44073533  0.78937526  0.07659999  1
  Te  Te88  1  0.43370485  0.74832971  0.41578648  1
  Te  Te89  1  0.42999051  0.73366703  0.78095205  1
  Te  Te90  1  0.73130291  0.09205147  0.06907034  1
  Te  Te91  1  0.76599407  0.09202310  0.40013721  1
  Te  Te92  1  0.74044893  0.09012911  0.75427372  1
  Te  Te93  1  0.71314425  0.38670587  0.09422936  1
  Te  Te94  1  0.74052254  0.42598431  0.42769704  1
  Te  Te95  1  0.76852280  0.44549478  0.72824405  1
  Te  Te96  1  0.69434152  0.76822290  0.08522880  1
  Te  Te97  1  0.74044581  0.75299471  0.44217325  1
  Te  Te98  1  0.70638676  0.73717123  0.70637989  1
  Te  Te99  1  0.09203595  0.24634698  0.26705448  1
  Te  Te100  1  0.09429065  0.25814825  0.55243095  1
  Te  Te101  1  0.09724323  0.26227261  0.90142946  1
  Te  Te102  1  0.11893116  0.59242324  0.24591010  1
  Te  Te103  1  0.08831049  0.54483596  0.56313503  1
  Te  Te104  1  0.07921796  0.57504069  0.91324572  1
  Te  Te105  1  0.10964750  0.94223024  0.24353540  1
  Te  Te106  1  0.08669256  0.91189806  0.60503162  1
  Te  Te107  1  0.08682445  0.92455366  0.91440300  1
  Te  Te108  1  0.42941871  0.25492708  0.21338779  1
  Te  Te109  1  0.41177716  0.25001769  0.60616641  1
  Te  Te110  1  0.42757533  0.22674006  0.92915830  1
  Te  Te111  1  0.43613199  0.57430528  0.25745934  1
  Te  Te112  1  0.40491991  0.58826225  0.56805778  1
  Te  Te113  1  0.44358334  0.57167535  0.91497201  1
  Te  Te114  1  0.39115768  0.95029783  0.22577394  1
  Te  Te115  1  0.43255714  0.89458406  0.60221874  1
  Te  Te116  1  0.43114311  0.93312865  0.93531796  1
  Te  Te117  1  0.73561513  0.22988778  0.23853214  1
  Te  Te118  1  0.74087925  0.25799202  0.58759728  1
  Te  Te119  1  0.74362099  0.24649541  0.94370442  1
  Te  Te120  1  0.76801966  0.59113505  0.24501840  1
  Te  Te121  1  0.72482554  0.55609018  0.62119174  1
  Te  Te122  1  0.75749782  0.58945073  0.92879792  1
  Te  Te123  1  0.73998315  0.91122238  0.23859917  1
  Te  Te124  1  0.74407196  0.93698821  0.57117667  1
  Te  Te125  1  0.71993922  0.89783076  0.87937207  1
  Te  Te126  1  0.26422699  0.23096547  0.08768237  1
  Te  Te127  1  0.23735569  0.27092423  0.41391951  1
  Te  Te128  1  0.25855129  0.25387045  0.73579062  1
  Te  Te129  1  0.27688083  0.59820400  0.08540688  1
  Te  Te130  1  0.25517435  0.57645201  0.41257080  1
  Te  Te131  1  0.24552151  0.57693223  0.72484209  1
  Te  Te132  1  0.26459351  0.94969514  0.10447424  1
  Te  Te133  1  0.26709061  0.92889692  0.40553689  1
  Te  Te134  1  0.24866170  0.90952586  0.74932239  1
  Te  Te135  1  0.51861462  0.23265248  0.07132358  1
  Te  Te136  1  0.57760866  0.24310457  0.42268558  1
  Te  Te137  1  0.56967713  0.24136314  0.75465199  1
  Te  Te138  1  0.59160848  0.59047246  0.07454612  1
  Te  Te139  1  0.58608633  0.57459546  0.42303223  1
  Te  Te140  1  0.57921389  0.60463462  0.75857439  1
  Te  Te141  1  0.56672784  0.88572234  0.08032860  1
  Te  Te142  1  0.58600798  0.91141759  0.42202451  1
  Te  Te143  1  0.57872654  0.88868976  0.76619338  1
  Te  Te144  1  0.92535429  0.23455560  0.10076530  1
  Te  Te145  1  0.89277445  0.22882851  0.39977236  1
  Te  Te146  1  0.91047192  0.25471388  0.76332411  1
  Te  Te147  1  0.91952865  0.57276430  0.09001120  1
  Te  Te148  1  0.91430602  0.58069294  0.43369059  1
  Te  Te149  1  0.92117252  0.59491907  0.75103242  1
  Te  Te150  1  0.91768957  0.90718901  0.07588129  1
  Te  Te151  1  0.90121836  0.92621304  0.42874805  1
  Te  Te152  1  0.91134510  0.92676271  0.74461687  1
  Te  Te153  1  0.29575477  0.07587275  0.23175847  1
  Te  Te154  1  0.25863756  0.08386944  0.57496205  1
  Te  Te155  1  0.24758121  0.06261740  0.90624560  1
  Te  Te156  1  0.25219190  0.42392950  0.24591596  1
  Te  Te157  1  0.23117318  0.39712351  0.62099159  1
  Te  Te158  1  0.25733168  0.40285357  0.90745548  1
  Te  Te159  1  0.28250531  0.76777915  0.22327628  1
  Te  Te160  1  0.23658786  0.76743893  0.59233559  1
  Te  Te161  1  0.25394556  0.75111616  0.92628587  1
  Te  Te162  1  0.57886598  0.06362177  0.21803754  1
  Te  Te163  1  0.56526546  0.09152185  0.59708980  1
  Te  Te164  1  0.55723437  0.05183896  0.90447015  1
  Te  Te165  1  0.56731504  0.40828805  0.25540426  1
  Te  Te166  1  0.59017539  0.43824973  0.57845534  1
  Te  Te167  1  0.60176118  0.40542085  0.92333004  1
  Te  Te168  1  0.57435042  0.76305706  0.26225848  1
  Te  Te169  1  0.59162565  0.78001853  0.60718844  1
  Te  Te170  1  0.55355667  0.78876862  0.88481921  1
  Te  Te171  1  0.92227558  0.09147235  0.23871805  1
  Te  Te172  1  0.92508588  0.06534384  0.59011142  1
  Te  Te173  1  0.90253284  0.10408860  0.93278836  1
  Te  Te174  1  0.93675680  0.39103440  0.26941679  1
  Te  Te175  1  0.92047508  0.42396139  0.58708161  1
  Te  Te176  1  0.90493626  0.41761492  0.91397933  1
  Te  Te177  1  0.91479912  0.74909471  0.24681007  1
  Te  Te178  1  0.90894189  0.74250393  0.58584501  1
  Te  Te179  1  0.89847151  0.75044126  0.92116918  1
