# generated using pymatgen
data_In2Te3
_symmetry_space_group_name_H-M   'P 1'
_cell_length_a   18.91973267
_cell_length_b   18.91291732
_cell_length_c   18.92976691
_cell_angle_alpha   90.05864154
_cell_angle_beta   89.88974901
_cell_angle_gamma   90.03638346
_symmetry_Int_Tables_number   1
_chemical_formula_structural   In2Te3
_chemical_formula_sum   'In72 Te108'
_cell_volume   6773.57068966
_cell_formula_units_Z   36
loop_
 _symmetry_equiv_pos_site_id
 _symmetry_equiv_pos_as_xyz
  1  'x, y, z'
loop_
 _atom_site_type_symbol
 _atom_site_label
 _atom_site_symmetry_multiplicity
 _atom_site_fract_x
 _atom_site_fract_y
 _atom_site_fract_z
 _atom_site_occupancy
  In  In0  1  0.12733132  0.37809589  0.15331192  1
  In  In1  1  0.51998222  0.32757613  0.52184597  1
  In  In2  1  0.16797895  0.16043195  0.00233391  1
  In  In3  1  0.66457296  0.35222250  0.32544868  1
  In  In4  1  -0.01676488  0.00029627  0.31723555  1
  In  In5  1  0.84049877  0.50707430  -0.00867209  1
  In  In6  1  0.49945489  0.66307992  0.50786313  1
  In  In7  1  0.83201314  0.32798961  0.84184166  1
  In  In8  1  0.14320058  0.84898486  -0.00984904  1
  In  In9  1  0.65715366  -0.03495186  0.70540021  1
  In  In10  1  0.50658333  0.00353209  0.51751947  1
  In  In11  1  0.86272674  0.68572663  0.82865923  1
  In  In12  1  0.49055861  0.84020436  0.33502859  1
  In  In13  1  0.48179541  0.48764230  0.32367714  1
  In  In14  1  0.82993053  0.69055923  0.17771636  1
  In  In15  1  0.69310012  -0.02832346  -0.02680552  1
  In  In16  1  0.12091713  0.63594586  0.19097651  1
  In  In17  1  0.67131763  0.66228579  0.64606416  1
  In  In18  1  0.15986225  0.82711595  0.34508263  1
  In  In19  1  0.83222355  0.83104628  0.34607192  1
  In  In20  1  0.15547621  0.67431438  0.49221059  1
  In  In21  1  0.30348413  0.66358859  0.01478445  1
  In  In22  1  0.35237148  -0.00073725  0.34931469  1
  In  In23  1  0.48542075  0.82284816  -0.01126603  1
  In  In24  1  0.84536409  0.15930049  0.00319618  1
  In  In25  1  0.68961125  0.15503295  0.48763636  1
  In  In26  1  0.34071705  0.16774670  0.17088248  1
  In  In27  1  0.15427449  0.17786995  0.32470889  1
  In  In28  1  0.51051027  0.17607702  -0.00992970  1
  In  In29  1  0.51250658  0.65009983  0.18041131  1
  In  In30  1  0.37284478  0.83032161  0.50881162  1
  In  In31  1  0.00525109  0.16360004  0.49359203  1
  In  In32  1  0.17287655  0.48987485  0.68656870  1
  In  In33  1  0.28844072  0.82319361  0.16985352  1
  In  In34  1  0.16357549  0.34815470  0.50667478  1
  In  In35  1  0.15821237  -0.00418068  0.14576126  1
  In  In36  1  0.85755789  -0.02877421  0.14152730  1
  In  In37  1  -0.01529662  0.36692793  0.63422000  1
  In  In38  1  0.49415609  0.16315273  0.67893073  1
  In  In39  1  0.47803153  0.68524508  0.83475488  1
  In  In40  1  0.87329883  0.52530459  0.36160376  1
  In  In41  1  0.64216285  0.49721665  0.83783105  1
  In  In42  1  0.00170948  0.14385238  0.83037099  1
  In  In43  1  0.17119109  0.31107294  0.81303732  1
  In  In44  1  0.01917101  -0.01034971  0.66627944  1
  In  In45  1  0.32579438  0.51205741  0.51059485  1
  In  In46  1  0.47341149  0.33454614  0.15389046  1
  In  In47  1  0.84254919  0.32693123  0.17342915  1
  In  In48  1  0.00259616  0.67866729  -0.01294140  1
  In  In49  1  0.66337899  0.15321963  0.80161008  1
  In  In50  1  0.81977127  0.15369737  0.66726174  1
  In  In51  1  0.33431024  0.14690344  0.83053219  1
  In  In52  1  0.50863150  0.01641964  0.14999762  1
  In  In53  1  0.18751851  0.84149601  0.65615478  1
  In  In54  1  0.66460841  0.15157931  0.19004819  1
  In  In55  1  0.83962427  0.83937908  0.64150230  1
  In  In56  1  0.31125626  0.33799999  0.32453564  1
  In  In57  1  0.16204589  0.64620173  0.83906676  1
  In  In58  1  0.00270748  0.34498848  0.34025377  1
  In  In59  1  0.67967211  -0.00512524  0.34384557  1
  In  In60  1  0.18884068  0.02443193  0.54091051  1
  In  In61  1  0.67680700  0.68412756  0.34490083  1
  In  In62  1  0.33287325  0.84930205  0.80832198  1
  In  In63  1  0.34998414  0.48862131  0.80498096  1
  In  In64  1  0.67249962  0.53899939  0.14196162  1
  In  In65  1  -0.01099166  0.64277330  0.66401187  1
  In  In66  1  0.69084608  0.50473784  0.49688599  1
  In  In67  1  0.31913305  0.35277615  0.00576899  1
  In  In68  1  0.65173605  0.35557303  -0.02566134  1
  In  In69  1  0.66509985  0.32990581  0.66413034  1
  In  In70  1  0.66960864  0.69164928  -0.00649249  1
  In  In71  1  0.01185260  0.81335786  0.85024767  1
  Te  Te72  1  0.06635797  0.09253154  0.08778740  1
  Te  Te73  1  0.10270659  0.06885018  0.41910627  1
  Te  Te74  1  0.10521689  0.07999466  0.74508527  1
  Te  Te75  1  0.06492903  0.44745250  0.04184024  1
  Te  Te76  1  0.10359738  0.43813626  0.40146635  1
  Te  Te77  1  0.06498224  0.40879778  0.75551401  1
  Te  Te78  1  0.08411962  0.75415448  0.09284644  1
  Te  Te79  1  0.05004043  0.73475868  0.39598330  1
  Te  Te80  1  0.09216881  0.74266420  0.73744040  1
  Te  Te81  1  0.40781781  0.08639678  0.06217568  1
  Te  Te82  1  0.42445727  0.09327453  0.43343162  1
  Te  Te83  1  0.42640215  0.05694079  0.75451274  1
  Te  Te84  1  0.40261448  0.44302065  0.08778728  1
  Te  Te85  1  0.41483088  0.40190595  0.42854889  1
  Te  Te86  1  0.45533604  0.39283369  0.77315930  1
  Te  Te87  1  0.40443276  0.74808369  0.09719457  1
  Te  Te88  1  0.41290850  0.72877987  0.39945633  1
  Te  Te89  1  0.42919624  0.77272313  0.72590841  1
  Te  Te90  1  0.74090065  0.07576683  0.08379726  1
  Te  Te91  1  0.78532900  0.07493137  0.40857616  1
  Te  Te92  1  0.76975067  0.05181142  0.76785423  1
  Te  Te93  1  0.74758005  0.41520465  0.08028263  1
  Te  Te94  1  0.77481350  0.41479921  0.40850340  1
  Te  Te95  1  0.74672860  0.42013186  0.75704236  1
  Te  Te96  1  0.72181362  0.76455287  0.11060921  1
  Te  Te97  1  0.76554910  0.74127998  0.44487143  1
  Te  Te98  1  0.76157296  0.74852360  0.73792105  1
  Te  Te99  1  0.06828398  0.25826445  0.23338317  1
  Te  Te100  1  0.07835916  0.25501982  0.59127170  1
  Te  Te101  1  0.07885132  0.24640785  0.91359619  1
  Te  Te102  1  0.06340098  0.53898182  0.28778666  1
  Te  Te103  1  0.09368442  0.56684449  0.58398082  1
  Te  Te104  1  0.08154602  0.56098248  0.93300292  1
  Te  Te105  1  0.08116676  0.90906973  0.24449176  1
  Te  Te106  1  0.09081843  0.90694752  0.55976183  1
  Te  Te107  1  0.04795449  0.93889921  0.92226230  1
  Te  Te108  1  0.42435827  0.24760911  0.26756475  1
  Te  Te109  1  0.41677475  0.23885993  0.57893765  1
  Te  Te110  1  0.39937074  0.25270270  0.92294711  1
  Te  Te111  1  0.40110564  0.57619289  0.23961321  1
  Te  Te112  1  0.42606688  0.57335172  0.59770177  1
  Te  Te113  1  0.39306865  0.58963399  0.91642873  1
  Te  Te114  1  0.40648802  0.91504907  0.23104252  1
  Te  Te115  1  0.40817927  0.93598480  0.60503564  1
  Te  Te116  1  0.42888966  0.92484847  0.89641708  1
  Te  Te117  1  0.75683217  0.24332430  0.26682127  1
  Te  Te118  1  0.76432324  0.26004914  0.57338140  1
  Te  Te119  1  0.73328105  0.23640399  0.91640318  1
  Te  Te120  1  0.75462068  0.57628103  0.26491973  1
  Te  Te121  1  0.77949533  0.56405386  0.60227096  1
  Te  Te122  1  0.74917639  0.59398426  0.90536979  1
  Te  Te123  1  0.75466715  0.91331614  0.24092442  1
  Te  Te124  1  0.73829727  0.93170895  0.58829034  1
  Te  Te125  1  0.77836387  0.87826165  0.90185859  1
  Te  Te126  1  0.24173435  0.25700793  0.09876777  1
  Te  Te127  1  0.24439706  0.24551943  0.42491439  1
  Te  Te128  1  0.26564717  0.23343633  0.72578892  1
  Te  Te129  1  0.20587156  0.57601603  0.08284223  1
  Te  Te130  1  0.24033656  0.58053171  0.41425369  1
  Te  Te131  1  0.26540091  0.59875253  0.73917352  1
  Te  Te132  1  0.25999557  0.92268134  0.05956710  1
  Te  Te133  1  0.26281027  0.90515800  0.42744409  1
  Te  Te134  1  0.21834014  0.93468225  0.76627931  1
  Te  Te135  1  0.59172485  0.25048573  0.09790426  1
  Te  Te136  1  0.59481604  0.25047607  0.41460889  1
  Te  Te137  1  0.56900268  0.27009959  0.76901162  1
  Te  Te138  1  0.56577704  0.59262208  0.04865676  1
  Te  Te139  1  0.58318825  0.57030343  0.40435230  1
  Te  Te140  1  0.57476503  0.59998683  0.75081283  1
  Te  Te141  1  0.58142408  0.91461153  0.06765189  1
  Te  Te142  1  0.58794271  0.90781203  0.42865426  1
  Te  Te143  1  0.55839347  0.89393145  0.78774540  1
  Te  Te144  1  0.92414007  0.26582340  0.06720427  1
  Te  Te145  1  0.91883606  0.25722578  0.42188947  1
  Te  Te146  1  0.91450054  0.24420851  0.74553852  1
  Te  Te147  1  0.91217780  0.60047189  0.08612418  1
  Te  Te148  1  0.94058187  0.63072349  0.44087889  1
  Te  Te149  1  0.93587997  0.56958130  0.77998383  1
  Te  Te150  1  0.94154792  0.86452197  0.08659710  1
  Te  Te151  1  0.90531420  0.93569209  0.42301119  1
  Te  Te152  1  0.93164471  0.89726986  0.74751678  1
  Te  Te153  1  0.24855126  0.07281445  0.25286800  1
  Te  Te154  1  0.26637455  0.12200184  0.61534630  1
  Te  Te155  1  0.23952971  0.06869837  0.91257942  1
  Te  Te156  1  0.24786592  0.42308935  0.22447316  1
  Te  Te157  1  0.26653201  0.40442793  0.60332367  1
  Te  Te158  1  0.24492327  0.41914887  0.89209118  1
  Te  Te159  1  0.23285270  0.72099082  0.26357938  1
  Te  Te160  1  0.26624832  0.74154273  0.57433448  1
  Te  Te161  1  0.24304410  0.75862164  0.90744203  1
  Te  Te162  1  0.56632276  0.07580691  0.27611954  1
  Te  Te163  1  0.60776301  0.09044004  0.59902668  1
  Te  Te164  1  0.59424958  0.07689689  0.91323403  1
  Te  Te165  1  0.58534630  0.43102555  0.22244346  1
  Te  Te166  1  0.58934213  0.44164477  0.59267174  1
  Te  Te167  1  0.53423179  0.42341381  0.91269222  1
  Te  Te168  1  0.58926746  0.76226026  0.24789752  1
  Te  Te169  1  0.58491455  0.75912017  0.57791480  1
  Te  Te170  1  0.59914393  0.77630941  0.88842118  1
  Te  Te171  1  0.92191116  0.08313229  0.21299817  1
  Te  Te172  1  0.92152258  0.07518962  0.58596001  1
  Te  Te173  1  0.91997707  0.06013599  0.92315618  1
  Te  Te174  1  0.92016852  0.43830183  0.24207671  1
  Te  Te175  1  0.90059572  0.46760352  0.57280150  1
  Te  Te176  1  0.92373494  0.39660084  0.93691296  1
  Te  Te177  1  0.93024219  0.74822897  0.26854520  1
  Te  Te178  1  0.92161138  0.73579961  0.56810468  1
  Te  Te179  1  0.88710939  0.78661484  0.96271225  1
