# generated using pymatgen
data_In2Te3
_symmetry_space_group_name_H-M   'P 1'
_cell_length_a   18.96623879
_cell_length_b   19.01722218
_cell_length_c   18.97958195
_cell_angle_alpha   89.73579812
_cell_angle_beta   90.00801526
_cell_angle_gamma   90.04654010
_symmetry_Int_Tables_number   1
_chemical_formula_structural   In2Te3
_chemical_formula_sum   'In72 Te108'
_cell_volume   6845.57877080
_cell_formula_units_Z   36
loop_
 _symmetry_equiv_pos_site_id
 _symmetry_equiv_pos_as_xyz
  1  'x, y, z'
loop_
 _atom_site_type_symbol
 _atom_site_label
 _atom_site_symmetry_multiplicity
 _atom_site_fract_x
 _atom_site_fract_y
 _atom_site_fract_z
 _atom_site_occupancy
  In  In0  1  0.88565441  0.17995800  0.32514269  1
  In  In1  1  0.65862834  -0.00427034  0.66055313  1
  In  In2  1  0.34325054  0.34048647  0.35263147  1
  In  In3  1  0.13242935  0.85742008  -0.00327450  1
  In  In4  1  0.35040891  0.33125745  0.65248159  1
  In  In5  1  0.70418529  0.85522125  0.42756087  1
  In  In6  1  0.32344668  0.84990364  0.82543350  1
  In  In7  1  0.33549210  0.65043542  -0.01164738  1
  In  In8  1  0.49161918  0.30424002  0.82123270  1
  In  In9  1  0.47798885  0.00591534  0.51812445  1
  In  In10  1  0.53194234  0.67031894  0.50357567  1
  In  In11  1  0.37925706  0.66639977  0.35357579  1
  In  In12  1  0.01487436  0.00154810  0.33911799  1
  In  In13  1  0.50285795  0.63585360  0.17458833  1
  In  In14  1  0.13988781  0.49145639  -0.00640080  1
  In  In15  1  0.68098887  0.51789372  0.83721726  1
  In  In16  1  0.31388411  0.50964945  0.82711857  1
  In  In17  1  0.82556440  0.32905644  0.80312159  1
  In  In18  1  0.85669956  0.36373554  0.17224143  1
  In  In19  1  0.80787116  0.13682351  0.00490466  1
  In  In20  1  0.32017950  0.82946749  0.52651424  1
  In  In21  1  -0.03404932  0.65790032  0.28646512  1
  In  In22  1  0.52043771  0.33321014  0.18354424  1
  In  In23  1  0.16602425  0.17613227  0.68717568  1
  In  In24  1  0.52826255  0.49372632  0.64423557  1
  In  In25  1  -0.00019944  0.16091941  0.50791326  1
  In  In26  1  0.67093670  0.31257676  0.00284382  1
  In  In27  1  0.14758458  0.68067960  0.84764022  1
  In  In28  1  0.68452722  0.68561174  0.66622161  1
  In  In29  1  0.01601762  0.85266041  0.51770096  1
  In  In30  1  0.14065031  0.68273559  0.52997973  1
  In  In31  1  0.84135190  0.48469855  0.64794829  1
  In  In32  1  0.14300046  0.69433200  0.17642224  1
  In  In33  1  -0.00144652  0.33884253  -0.00379201  1
  In  In34  1  0.18599534  0.50592866  0.37415574  1
  In  In35  1  0.48640784  0.81400701  0.69034906  1
  In  In36  1  0.64660816  -0.00050010  -0.00236453  1
  In  In37  1  -0.01767232  0.48748206  0.81544142  1
  In  In38  1  0.70816217  0.62334611  0.33252046  1
  In  In39  1  0.00283933  0.66415746  0.68023884  1
  In  In40  1  0.00437325  0.16048203  0.15205383  1
  In  In41  1  0.84889399  0.01421119  0.48930272  1
  In  In42  1  0.65470907  0.83531408  0.83383295  1
  In  In43  1  0.66339418  0.16994583  0.16547149  1
  In  In44  1  0.32017277  0.84034281  0.15367542  1
  In  In45  1  0.18973083  0.82171982  0.36084740  1
  In  In46  1  0.32299780  0.16828130  0.16551059  1
  In  In47  1  0.67761453  0.70024069  0.01328096  1
  In  In48  1  0.32542063  0.50561919  0.15916482  1
  In  In49  1  0.56555194  0.84590083  0.30728159  1
  In  In50  1  0.81780933  0.55487854  0.05944870  1
  In  In51  1  0.86017242  0.83351577  -0.02277231  1
  In  In52  1  0.33556731  0.17893788  0.51313985  1
  In  In53  1  0.48246539  0.84470444  -0.01501075  1
  In  In54  1  0.64229811  0.14134163  0.81139773  1
  In  In55  1  0.34905555  0.14638370  0.82411843  1
  In  In56  1  0.84518169  0.85801607  0.68455790  1
  In  In57  1  0.33100541  -0.00060540  0.31583388  1
  In  In58  1  0.19367768  0.33913329  0.50708940  1
  In  In59  1  0.50608414  0.47511471  0.00973322  1
  In  In60  1  -0.02654117  0.15143360  0.82890920  1
  In  In61  1  0.87552500  0.63055392  0.50383644  1
  In  In62  1  0.15472815  0.37364604  0.81680829  1
  In  In63  1  0.68929738  0.17311870  0.48203499  1
  In  In64  1  0.82581754  0.15081106  0.64782049  1
  In  In65  1  0.13567771  0.31969254  0.19433391  1
  In  In66  1  0.50351535  0.01405757  0.16684666  1
  In  In67  1  0.36570027  0.49744617  0.50156035  1
  In  In68  1  0.14841936  0.00512376  0.15481640  1
  In  In69  1  -0.01273435  0.84889138  0.15326003  1
  In  In70  1  0.69066648  0.34103122  0.34023636  1
  In  In71  1  0.18848383  0.17299357  -0.03501078  1
  Te  Te72  1  0.08669872  0.09071171  0.04647023  1
  Te  Te73  1  0.09271394  0.07088121  0.43940024  1
  Te  Te74  1  0.08757599  0.07958703  0.76835840  1
  Te  Te75  1  0.06229028  0.42257265  0.10472787  1
  Te  Te76  1  0.09123914  0.41030263  0.42900147  1
  Te  Te77  1  0.06175732  0.41971096  0.71396861  1
  Te  Te78  1  0.05277666  0.73841881  0.05866867  1
  Te  Te79  1  0.06887856  0.74719537  0.41382990  1
  Te  Te80  1  0.05032055  0.77229370  0.77413381  1
  Te  Te81  1  0.39546351  0.06936838  0.08599651  1
  Te  Te82  1  0.40736464  0.08833716  0.41173893  1
  Te  Te83  1  0.39606493  0.11412312  0.69019140  1
  Te  Te84  1  0.40806202  0.39854028  0.09297053  1
  Te  Te85  1  0.45439579  0.39819685  0.43448990  1
  Te  Te86  1  0.42633588  0.42886408  0.74709995  1
  Te  Te87  1  0.41538808  0.73118552  0.09151726  1
  Te  Te88  1  0.43321098  0.77558685  0.43977494  1
  Te  Te89  1  0.40071300  0.73529743  0.77769674  1
  Te  Te90  1  0.73966646  0.05193073  0.10864098  1
  Te  Te91  1  0.77276803  0.08912287  0.38595342  1
  Te  Te92  1  0.75832367  0.06298436  0.75273739  1
  Te  Te93  1  0.74990569  0.41550341  0.07773582  1
  Te  Te94  1  0.73387861  0.41529631  0.46299274  1
  Te  Te95  1  0.72954347  0.42081148  0.73143374  1
  Te  Te96  1  0.77449378  0.77999261  0.08668158  1
  Te  Te97  1  0.77500897  0.72243008  0.42579217  1
  Te  Te98  1  0.76808077  0.75793271  0.76900147  1
  Te  Te99  1  0.03624563  0.24166560  0.27307420  1
  Te  Te100  1  0.09067561  0.25661722  0.58489503  1
  Te  Te101  1  0.07636452  0.26036622  0.89418249  1
  Te  Te102  1  0.10341277  0.58427780  0.26958059  1
  Te  Te103  1  0.04941163  0.57595873  0.57105539  1
  Te  Te104  1  0.04424416  0.58070119  0.91881980  1
  Te  Te105  1  0.10474240  0.89576789  0.25098564  1
  Te  Te106  1  0.12431216  0.89594678  0.60562727  1
  Te  Te107  1  0.07262373  0.90384772  0.87088812  1
  Te  Te108  1  0.41484649  0.24972230  0.25547620  1
  Te  Te109  1  0.44288889  0.27189825  0.55478547  1
  Te  Te110  1  0.40172078  0.24510571  0.91834189  1
  Te  Te111  1  0.42207924  0.54779165  0.26829441  1
  Te  Te112  1  0.43034505  0.59933461  0.59264756  1
  Te  Te113  1  0.43105128  0.56479685  0.91230287  1
  Te  Te114  1  0.42183728  0.89295939  0.25463510  1
  Te  Te115  1  0.40239422  0.91868299  0.61591078  1
  Te  Te116  1  0.41100357  0.94000110  0.90215732  1
  Te  Te117  1  0.77388187  0.24643666  0.23645133  1
  Te  Te118  1  0.72075044  0.24613417  0.60705424  1
  Te  Te119  1  0.74879372  0.23366782  0.89692477  1
  Te  Te120  1  0.78136192  0.58112916  0.20754860  1
  Te  Te121  1  0.74887965  0.58497406  0.57536990  1
  Te  Te122  1  0.76393404  0.60687420  0.92540142  1
  Te  Te123  1  0.70363413  0.89743169  0.28752442  1
  Te  Te124  1  0.75515968  0.91952535  0.57035516  1
  Te  Te125  1  0.74529277  0.92177073  0.91522664  1
  Te  Te126  1  0.22427267  0.25654380  0.08931373  1
  Te  Te127  1  0.24440617  0.23970228  0.40593088  1
  Te  Te128  1  0.25682696  0.27566426  0.76033908  1
  Te  Te129  1  0.22524615  0.59077859  0.07993861  1
  Te  Te130  1  0.26728701  0.61173236  0.44568670  1
  Te  Te131  1  0.21379218  0.58784073  0.75497457  1
  Te  Te132  1  0.24849650  0.93601423  0.06388155  1
  Te  Te133  1  0.25505261  0.93361870  0.43452052  1
  Te  Te134  1  0.22204954  0.89264249  0.72717549  1
  Te  Te135  1  0.56335170  0.23462020  0.07160520  1
  Te  Te136  1  0.59905411  0.23013067  0.37923345  1
  Te  Te137  1  0.58698704  0.24799101  0.72549997  1
  Te  Te138  1  0.59552935  0.57893231  0.07038158  1
  Te  Te139  1  0.58478203  0.57829898  0.40322699  1
  Te  Te140  1  0.59051737  0.59594466  0.74396923  1
  Te  Te141  1  0.57369356  0.90215559  0.09019223  1
  Te  Te142  1  0.57930130  0.94888820  0.42246727  1
  Te  Te143  1  0.56426487  0.92951672  0.75862151  1
  Te  Te144  1  0.90388846  0.24311200  0.06723821  1
  Te  Te145  1  0.89750759  0.25524218  0.45340144  1
  Te  Te146  1  0.92110972  0.24716474  0.72247657  1
  Te  Te147  1  0.92799108  0.59578375  0.14988903  1
  Te  Te148  1  0.91792541  0.55061853  0.38599583  1
  Te  Te149  1  0.89100624  0.58762654  0.74823720  1
  Te  Te150  1  0.93645054  0.94089387  0.04902289  1
  Te  Te151  1  0.92102975  0.90682810  0.41099262  1
  Te  Te152  1  0.94609509  0.90507851  0.77894189  1
  Te  Te153  1  0.22550378  0.08956185  0.25291027  1
  Te  Te154  1  0.26724274  0.09011557  0.61409725  1
  Te  Te155  1  0.23374330  0.06747284  0.87402641  1
  Te  Te156  1  0.24516913  0.41296505  0.25256559  1
  Te  Te157  1  0.26081740  0.44109758  0.59565659  1
  Te  Te158  1  0.25263287  0.41627710  0.93016337  1
  Te  Te159  1  0.27144105  0.73254873  0.25855010  1
  Te  Te160  1  0.22680974  0.76035626  0.62411818  1
  Te  Te161  1  0.24250842  0.75963573  0.93962074  1
  Te  Te162  1  0.57336621  0.10167534  0.26163686  1
  Te  Te163  1  0.58809162  0.09468119  0.57282159  1
  Te  Te164  1  0.55933059  0.08498026  0.91702587  1
  Te  Te165  1  0.61273376  0.42488858  0.24726504  1
  Te  Te166  1  0.59323760  0.42928267  0.52983833  1
  Te  Te167  1  0.59498734  0.40406716  0.90507220  1
  Te  Te168  1  0.60797567  0.71242567  0.25003171  1
  Te  Te169  1  0.59427028  0.77887558  0.58831223  1
  Te  Te170  1  0.56794663  0.74191529  0.91521001  1
  Te  Te171  1  0.92468935  0.05970603  0.23347365  1
  Te  Te172  1  0.93774690  0.05693922  0.60253508  1
  Te  Te173  1  0.91192643  0.06220311  0.93099003  1
  Te  Te174  1  0.89408636  0.42649166  0.29583833  1
  Te  Te175  1  0.86936668  0.39227073  0.53714763  1
  Te  Te176  1  0.89346622  0.41013270  0.91216530  1
  Te  Te177  1  0.89538818  0.77902434  0.24341113  1
  Te  Te178  1  0.91212877  0.75818350  0.58836291  1
  Te  Te179  1  0.95005672  0.72146968  0.94561490  1
