# generated using pymatgen
data_In2Te3
_symmetry_space_group_name_H-M   'P 1'
_cell_length_a   18.93572866
_cell_length_b   18.90836446
_cell_length_c   18.91382775
_cell_angle_alpha   89.97015001
_cell_angle_beta   89.88955441
_cell_angle_gamma   89.80739952
_symmetry_Int_Tables_number   1
_chemical_formula_structural   In2Te3
_chemical_formula_sum   'In72 Te108'
_cell_volume   6771.92434951
_cell_formula_units_Z   36
loop_
 _symmetry_equiv_pos_site_id
 _symmetry_equiv_pos_as_xyz
  1  'x, y, z'
loop_
 _atom_site_type_symbol
 _atom_site_label
 _atom_site_symmetry_multiplicity
 _atom_site_fract_x
 _atom_site_fract_y
 _atom_site_fract_z
 _atom_site_occupancy
  In  In0  1  0.33954054  0.66442721  -0.01496944  1
  In  In1  1  0.32243433  0.85866247  0.50533787  1
  In  In2  1  0.16896588  0.62491921  0.13497217  1
  In  In3  1  0.15639977  -0.00549003  0.18614595  1
  In  In4  1  0.16144947  -0.04391476  0.50775086  1
  In  In5  1  -0.01648753  -0.01240619  0.01047866  1
  In  In6  1  0.02603911  0.14246669  0.51503272  1
  In  In7  1  0.50444722  0.48799969  0.68098000  1
  In  In8  1  0.19170553  0.17965527  0.65473818  1
  In  In9  1  0.83372755  -0.02698160  0.16720469  1
  In  In10  1  0.15862544  0.37205726  0.17215838  1
  In  In11  1  0.08102063  0.67151763  0.46529846  1
  In  In12  1  0.48059655  0.35515742  0.16115485  1
  In  In13  1  0.01397449  0.18165586  0.13260611  1
  In  In14  1  0.68394163  -0.01657626  0.01643085  1
  In  In15  1  0.66052388  0.50725449  0.14371322  1
  In  In16  1  -0.01816476  -0.04928773  0.31685422  1
  In  In17  1  0.83623595  0.67095543  0.14844440  1
  In  In18  1  0.35791672  0.18526750  0.83660391  1
  In  In19  1  -0.00134768  0.49320094  0.51323516  1
  In  In20  1  0.48875137  0.66339504  0.48736923  1
  In  In21  1  0.49202496  0.48867509  -0.00469392  1
  In  In22  1  0.51473578  0.82442154  0.67515796  1
  In  In23  1  0.51212128  0.17944320  -0.00735279  1
  In  In24  1  0.87321415  0.35085533  0.48993084  1
  In  In25  1  0.32486643  0.05109551  0.67601091  1
  In  In26  1  -0.02260051  0.35206596  0.31543242  1
  In  In27  1  0.83056592  0.33886909  0.83168440  1
  In  In28  1  0.67510287  0.15305283  0.48218848  1
  In  In29  1  0.83166305  -0.01695616  0.49357217  1
  In  In30  1  0.66096308  0.17717656  0.83890659  1
  In  In31  1  0.16386653  0.16066349  0.34705789  1
  In  In32  1  0.68210139  0.83578780  0.49620062  1
  In  In33  1  0.82796004  0.80914774  0.31355674  1
  In  In34  1  0.12684127  0.65274046  0.87699284  1
  In  In35  1  0.48460003  0.52020389  0.31979667  1
  In  In36  1  0.66931818  0.54175842  0.84785956  1
  In  In37  1  0.30428057  0.64600200  0.69167658  1
  In  In38  1  0.32664237  0.34979920  0.30939157  1
  In  In39  1  0.82854250  0.18875661  0.68120249  1
  In  In40  1  0.83713983  -0.01169300  0.85807880  1
  In  In41  1  0.85719081  0.67422228  0.87161984  1
  In  In42  1  0.51307054  0.67862270  0.85129612  1
  In  In43  1  -0.00402044  0.33507622  -0.02289099  1
  In  In44  1  0.85843967  0.51938990  0.33166295  1
  In  In45  1  0.79350199  0.65216012  0.66319041  1
  In  In46  1  0.34027293  0.86638489  0.83691420  1
  In  In47  1  0.32042789  0.65998263  0.32244561  1
  In  In48  1  0.02459800  0.38227396  0.69339565  1
  In  In49  1  0.36841317  0.00107340  -0.00682906  1
  In  In50  1  0.67297307  0.31977894  0.34452018  1
  In  In51  1  -0.00704752  -0.01483853  0.68812518  1
  In  In52  1  0.15850835  0.83020506  0.00532280  1
  In  In53  1  0.69451147  0.35506994  -0.00267099  1
  In  In54  1  0.65551786  -0.02289846  0.66728785  1
  In  In55  1  0.33104219  0.81624580  0.15973205  1
  In  In56  1  0.50550314  0.83754882  0.30701284  1
  In  In57  1  0.15815432  0.80395045  0.68706172  1
  In  In58  1  -0.00465833  0.62989379  0.68540733  1
  In  In59  1  0.30981177  0.50641424  0.48633982  1
  In  In60  1  0.18722960  0.24782469  -0.00692968  1
  In  In61  1  0.67100620  0.35215871  0.65123942  1
  In  In62  1  0.15699140  0.01524603  0.84177300  1
  In  In63  1  0.64568824  0.67907100  0.33235904  1
  In  In64  1  0.67514129  0.16386593  0.17533734  1
  In  In65  1  0.49113892  -0.00703487  0.49168642  1
  In  In66  1  0.84010440  0.16304908  0.31512159  1
  In  In67  1  0.48204573  0.32965508  0.81779135  1
  In  In68  1  0.52198108  0.01865594  0.15498608  1
  In  In69  1  0.45597496  0.17490043  0.64735400  1
  In  In70  1  0.32898150  0.00682677  0.35249582  1
  In  In71  1  0.16777544  0.34782579  0.49619273  1
  Te  Te72  1  0.09894814  0.07386287  0.06996801  1
  Te  Te73  1  0.07330468  0.04766397  0.40426159  1
  Te  Te74  1  0.08615968  0.09471198  0.73315596  1
  Te  Te75  1  0.08414391  0.43144296  0.05583637  1
  Te  Te76  1  0.07887076  0.42564639  0.40245955  1
  Te  Te77  1  0.11128066  0.43841246  0.79887292  1
  Te  Te78  1  0.07413860  0.72944178  0.07765284  1
  Te  Te79  1  0.08377787  0.80649537  0.40992748  1
  Te  Te80  1  0.05474248  0.74069509  0.77581649  1
  Te  Te81  1  0.41793208  0.10793824  0.08849073  1
  Te  Te82  1  0.40834574  0.09924759  0.43408200  1
  Te  Te83  1  0.44298071  0.07894275  0.76779830  1
  Te  Te84  1  0.38483788  0.44046826  0.08693432  1
  Te  Te85  1  0.41327150  0.42360983  0.41281116  1
  Te  Te86  1  0.39382837  0.43243015  0.76090637  1
  Te  Te87  1  0.41913841  0.77156107  0.04952720  1
  Te  Te88  1  0.40794625  0.76619595  0.40895448  1
  Te  Te89  1  0.40359064  0.74828941  0.75100361  1
  Te  Te90  1  0.77070041  0.08651298  0.08678841  1
  Te  Te91  1  0.75395984  0.06132634  0.38878130  1
  Te  Te92  1  0.74379212  0.08249900  0.74851636  1
  Te  Te93  1  0.77731773  0.44408653  0.07864366  1
  Te  Te94  1  0.76697982  0.42237616  0.40865944  1
  Te  Te95  1  0.73643055  0.43355060  0.75942216  1
  Te  Te96  1  0.73279810  0.71679945  0.04989998  1
  Te  Te97  1  0.75766460  0.72729444  0.42290829  1
  Te  Te98  1  0.75330009  0.72939524  0.78066667  1
  Te  Te99  1  0.08202294  0.25165488  0.25591816  1
  Te  Te100  1  0.07151397  0.26929937  0.58702333  1
  Te  Te101  1  0.07354242  0.23115053  0.90272427  1
  Te  Te102  1  0.10138778  0.53662198  0.23441217  1
  Te  Te103  1  0.09991401  0.57808046  0.58862433  1
  Te  Te104  1  0.05351838  0.55140084  0.95838204  1
  Te  Te105  1  0.06160956  0.88657640  0.21193061  1
  Te  Te106  1  0.06313328  0.88448105  0.59756378  1
  Te  Te107  1  0.07278923  0.91012546  0.90820471  1
  Te  Te108  1  0.42127310  0.25469621  0.24875432  1
  Te  Te109  1  0.34871394  0.27307588  0.62485586  1
  Te  Te110  1  0.41052290  0.28050610  0.94306973  1
  Te  Te111  1  0.41225118  0.60322051  0.22253621  1
  Te  Te112  1  0.40524530  0.58563110  0.58685161  1
  Te  Te113  1  0.41569976  0.56938700  0.88996269  1
  Te  Te114  1  0.40475457  0.92941561  0.23910144  1
  Te  Te115  1  0.41607694  0.92684843  0.60706326  1
  Te  Te116  1  0.45168399  0.89638806  0.92922427  1
  Te  Te117  1  0.76896451  0.27109534  0.23675013  1
  Te  Te118  1  0.76299931  0.25640144  0.56129046  1
  Te  Te119  1  0.76650005  0.23872765  0.92706239  1
  Te  Te120  1  0.74372846  0.58800669  0.25022018  1
  Te  Te121  1  0.77378327  0.53300772  0.58218062  1
  Te  Te122  1  0.75940904  0.59014795  0.95693673  1
  Te  Te123  1  0.73161727  0.89152621  0.23606768  1
  Te  Te124  1  0.76913852  0.89804246  0.60365391  1
  Te  Te125  1  0.76460175  0.88779950  0.93803987  1
  Te  Te126  1  0.24999009  0.26666560  0.12223751  1
  Te  Te127  1  0.25744578  0.25765496  0.41414534  1
  Te  Te128  1  0.25743413  0.26865064  0.75650621  1
  Te  Te129  1  0.25870396  0.55278411  0.03991629  1
  Te  Te130  1  0.22007518  0.61095917  0.42321685  1
  Te  Te131  1  0.21442261  0.57089659  0.78378658  1
  Te  Te132  1  0.25541001  0.92616392  0.07305863  1
  Te  Te133  1  0.23053432  0.89206614  0.38487671  1
  Te  Te134  1  0.23752321  0.93048114  0.73583461  1
  Te  Te135  1  0.59671557  0.26763415  0.08386785  1
  Te  Te136  1  0.57689992  0.24782341  0.42807459  1
  Te  Te137  1  0.58259874  0.24780016  0.72951847  1
  Te  Te138  1  0.56615698  0.59499933  0.06804525  1
  Te  Te139  1  0.58824388  0.56992342  0.42230450  1
  Te  Te140  1  0.58416146  0.60375475  0.73782145  1
  Te  Te141  1  0.60472803  0.90370986  0.11379871  1
  Te  Te142  1  0.59009476  0.91671196  0.40580728  1
  Te  Te143  1  0.59940053  0.89209952  0.77261946  1
  Te  Te144  1  0.91291170  0.27373771  0.08347682  1
  Te  Te145  1  0.93451119  0.22607886  0.41604150  1
  Te  Te146  1  0.93584377  0.26538738  0.74952952  1
  Te  Te147  1  0.94888594  0.61756850  0.05731155  1
  Te  Te148  1  0.94722966  0.60342734  0.42058399  1
  Te  Te149  1  0.91695281  0.55903939  0.79266117  1
  Te  Te150  1  0.89808369  0.87882293  0.06942444  1
  Te  Te151  1  0.91749702  0.87558251  0.43077150  1
  Te  Te152  1  0.91004822  0.89684405  0.76770344  1
  Te  Te153  1  0.25549558  0.09148707  0.24742383  1
  Te  Te154  1  0.24144920  0.07938302  0.55118547  1
  Te  Te155  1  0.26784840  0.08756698  0.91482946  1
  Te  Te156  1  0.23727945  0.46283818  0.26241383  1
  Te  Te157  1  0.24917805  0.42340055  0.59307471  1
  Te  Te158  1  0.20469547  0.35938866  0.89430446  1
  Te  Te159  1  0.22624528  0.73558617  0.23020180  1
  Te  Te160  1  0.25458977  0.74731894  0.58444747  1
  Te  Te161  1  0.24640096  0.76173033  0.89895973  1
  Te  Te162  1  0.58316187  0.09390194  0.26422170  1
  Te  Te163  1  0.58359936  0.08308987  0.58497579  1
  Te  Te164  1  0.59375236  0.07211238  0.92457642  1
  Te  Te165  1  0.58886131  0.42082734  0.25360835  1
  Te  Te166  1  0.56088519  0.40641306  0.57234536  1
  Te  Te167  1  0.59165365  0.41072736  0.89894920  1
  Te  Te168  1  0.55628319  0.72628965  0.22553553  1
  Te  Te169  1  0.58937685  0.74207488  0.57220809  1
  Te  Te170  1  0.60308384  0.71744130  0.96127607  1
  Te  Te171  1  0.93486649  0.07800499  0.23167342  1
  Te  Te172  1  0.90400008  0.08243901  0.58550827  1
  Te  Te173  1  0.92626940  0.08696573  0.91833683  1
  Te  Te174  1  0.94009218  0.46044008  0.22240296  1
  Te  Te175  1  0.89194405  0.43942304  0.61503322  1
  Te  Te176  1  0.91437176  0.43963040  0.90299929  1
  Te  Te177  1  0.92926530  0.72575286  0.24806409  1
  Te  Te178  1  0.91027162  0.71347497  0.59852445  1
  Te  Te179  1  0.94148371  0.74907691  0.97295442  1
