# generated using pymatgen
data_In2Te3
_symmetry_space_group_name_H-M   'P 1'
_cell_length_a   18.96671614
_cell_length_b   18.96905584
_cell_length_c   18.98370990
_cell_angle_alpha   90.09199505
_cell_angle_beta   89.96465243
_cell_angle_gamma   90.10428716
_symmetry_Int_Tables_number   1
_chemical_formula_structural   In2Te3
_chemical_formula_sum   'In72 Te108'
_cell_volume   6829.95098628
_cell_formula_units_Z   36
loop_
 _symmetry_equiv_pos_site_id
 _symmetry_equiv_pos_as_xyz
  1  'x, y, z'
loop_
 _atom_site_type_symbol
 _atom_site_label
 _atom_site_symmetry_multiplicity
 _atom_site_fract_x
 _atom_site_fract_y
 _atom_site_fract_z
 _atom_site_occupancy
  In  In0  1  0.34002077  0.82372696  0.15983668  1
  In  In1  1  0.64390577  0.84295761  0.84706189  1
  In  In2  1  -0.01618161  0.51489091  0.16886927  1
  In  In3  1  0.19541382  0.18518729  0.34787903  1
  In  In4  1  0.16539394  0.80362913  -0.00153519  1
  In  In5  1  0.83124095  0.84011725  0.64996241  1
  In  In6  1  -0.01940978  0.16779760  0.14617094  1
  In  In7  1  0.88022467  0.49433771  0.66222085  1
  In  In8  1  0.17295634  0.02593190  0.18330190  1
  In  In9  1  0.01583958  0.33143867  0.34353855  1
  In  In10  1  0.83006938  0.83686733  0.32667428  1
  In  In11  1  0.66133946  0.32058777  0.67610386  1
  In  In12  1  0.16126767  0.34072847  0.16946342  1
  In  In13  1  0.52468585  -0.00347860  0.13721656  1
  In  In14  1  0.33130169  0.86180546  0.80518504  1
  In  In15  1  0.67494355  0.86148867  0.49210934  1
  In  In16  1  0.65194683  0.48469561  0.83662134  1
  In  In17  1  0.84531446  0.48462325  0.32670345  1
  In  In18  1  0.66990324  0.64707244  0.66551911  1
  In  In19  1  0.31888529  0.62379983  -0.04258474  1
  In  In20  1  0.48921642  0.48655366  0.69660766  1
  In  In21  1  0.84456652  0.17411963  0.67593394  1
  In  In22  1  0.02378729  0.66489347  0.33859366  1
  In  In23  1  0.49407933  0.34424460  0.18771649  1
  In  In24  1  0.48248763  0.64472005  0.16215979  1
  In  In25  1  0.33541792  0.79922310  0.53165230  1
  In  In26  1  0.00782832  0.16510340  0.52269090  1
  In  In27  1  0.49315903  0.84949678  0.67737870  1
  In  In28  1  0.82119116  0.16390591  0.31708639  1
  In  In29  1  0.66596298  0.67281128  0.33407009  1
  In  In30  1  0.17594035  0.12874368  -0.02376177  1
  In  In31  1  0.32146273  0.36049669  0.66858529  1
  In  In32  1  0.17320746  0.81710841  0.35128520  1
  In  In33  1  -0.03449570  -0.01492118  -0.02589302  1
  In  In34  1  0.16177297  0.16779488  0.66445034  1
  In  In35  1  0.81719847  0.82409814  -0.01767557  1
  In  In36  1  0.66433837  0.48186303  0.14553240  1
  In  In37  1  0.34786331  0.17981028  0.17818811  1
  In  In38  1  0.31506815  -0.01265320  -0.02177618  1
  In  In39  1  0.75556437  -0.01511640  0.14706983  1
  In  In40  1  0.18765750  -0.01877671  0.50994275  1
  In  In41  1  0.33084541  0.49869910  0.18827337  1
  In  In42  1  -0.00021443  0.00635005  0.33773165  1
  In  In43  1  0.02596316  0.82806874  0.13478692  1
  In  In44  1  0.70547569  0.49108859  0.50030706  1
  In  In45  1  0.52121492  0.65882391  0.50731949  1
  In  In46  1  0.01582813  0.66236733  0.67668114  1
  In  In47  1  0.32487086  0.33341521  0.01226906  1
  In  In48  1  0.34497807  0.17810314  0.49927456  1
  In  In49  1  0.65431513  0.18219261  0.50704490  1
  In  In50  1  0.31543035  0.64907288  0.70140474  1
  In  In51  1  0.84268415  0.67090520  0.15337872  1
  In  In52  1  0.00522925  0.49568014  0.48682911  1
  In  In53  1  0.31939080  0.52695560  0.49127724  1
  In  In54  1  0.01120972  0.83046135  0.48588165  1
  In  In55  1  0.66860251  0.17100725  0.17225910  1
  In  In56  1  0.50620005  0.83075998  0.33868800  1
  In  In57  1  0.00886110  0.16614211  0.81100344  1
  In  In58  1  0.49391941  0.00883123  0.84504257  1
  In  In59  1  0.67332861  0.66972246  -0.00880942  1
  In  In60  1  0.16056471  0.68002157  0.16845545  1
  In  In61  1  0.47631653  0.17648125  -0.00535370  1
  In  In62  1  0.84162253  0.33128717  0.83208237  1
  In  In63  1  -0.00607859  0.32917736  0.00795471  1
  In  In64  1  0.81116630  0.01415822  0.81692914  1
  In  In65  1  0.00774537  0.82389666  0.82051646  1
  In  In66  1  0.63546953  0.02777400  0.35068375  1
  In  In67  1  0.66596267  0.33701051  -0.01924833  1
  In  In68  1  0.50297119  0.34497256  0.49194918  1
  In  In69  1  0.51476892  0.16503100  0.69002641  1
  In  In70  1  0.83315601  0.65130798  0.80873294  1
  In  In71  1  0.14883253  0.36308631  0.82154411  1
  Te  Te72  1  0.06756617  0.06296335  0.07141007  1
  Te  Te73  1  0.10555919  0.07843813  0.41800132  1
  Te  Te74  1  0.09128878  0.06250642  0.74478054  1
  Te  Te75  1  0.08116960  0.43145189  0.08204942  1
  Te  Te76  1  0.10422073  0.43465451  0.39550221  1
  Te  Te77  1  0.11227170  0.44568148  0.70192009  1
  Te  Te78  1  0.06345910  0.70532873  0.05317668  1
  Te  Te79  1  0.11753541  0.71360830  0.45097039  1
  Te  Te80  1  0.11292928  0.74709045  0.75114115  1
  Te  Te81  1  0.39456716  0.06745649  0.08318125  1
  Te  Te82  1  0.39380255  0.10057801  0.38700002  1
  Te  Te83  1  0.40836777  0.08480015  0.75338296  1
  Te  Te84  1  0.41734126  0.42639685  0.08565329  1
  Te  Te85  1  0.41494091  0.43937679  0.42174159  1
  Te  Te86  1  0.37619095  0.44385055  0.78708950  1
  Te  Te87  1  0.40161119  0.72699881  0.06618438  1
  Te  Te88  1  0.42430601  0.73485021  0.42127957  1
  Te  Te89  1  0.42049193  0.74585999  0.75896254  1
  Te  Te90  1  0.76041273  0.11039703  0.07345448  1
  Te  Te91  1  0.75124526  0.08616098  0.42595225  1
  Te  Te92  1  0.73139829  0.12333877  0.75814842  1
  Te  Te93  1  0.76159534  0.41250588  0.06195554  1
  Te  Te94  1  0.76805763  0.39382024  0.41141983  1
  Te  Te95  1  0.75704428  0.43018801  0.73750544  1
  Te  Te96  1  0.73696782  0.76070301  0.09625795  1
  Te  Te97  1  0.75689823  0.74998315  0.42780130  1
  Te  Te98  1  0.74124237  0.75948954  0.75515995  1
  Te  Te99  1  0.08350952  0.22283240  0.24422225  1
  Te  Te100  1  0.10612049  0.26564666  0.56715093  1
  Te  Te101  1  0.09247189  0.24154245  0.91834347  1
  Te  Te102  1  0.09973962  0.56756277  0.25286701  1
  Te  Te103  1  0.09090315  0.56479086  0.59096994  1
  Te  Te104  1  0.18393858  0.57372249  0.90621969  1
  Te  Te105  1  0.09208928  0.91082341  0.26021219  1
  Te  Te106  1  0.08440008  0.90904120  0.58389031  1
  Te  Te107  1  0.08463698  0.90948645  0.92054845  1
  Te  Te108  1  0.39077942  0.28120914  0.27590323  1
  Te  Te109  1  0.42584494  0.27162007  0.60129155  1
  Te  Te110  1  0.37729015  0.24245367  0.91069440  1
  Te  Te111  1  0.42500782  0.57123574  0.27490005  1
  Te  Te112  1  0.42333313  0.58978138  0.60160578  1
  Te  Te113  1  0.42370219  0.53699456  0.89898021  1
  Te  Te114  1  0.43540567  0.91409096  0.23372141  1
  Te  Te115  1  0.39613872  0.91815973  0.59352886  1
  Te  Te116  1  0.42472083  0.90081010  0.92604178  1
  Te  Te117  1  0.74291893  0.26834485  0.25299779  1
  Te  Te118  1  0.76097997  0.26110455  0.58119580  1
  Te  Te119  1  0.73184750  0.24619702  0.88211194  1
  Te  Te120  1  0.75557536  0.58589011  0.24578506  1
  Te  Te121  1  0.78285303  0.59005688  0.58619522  1
  Te  Te122  1  0.75450728  0.57087051  0.90996579  1
  Te  Te123  1  0.71353558  0.91779506  0.27569272  1
  Te  Te124  1  0.74759456  0.94245076  0.58910710  1
  Te  Te125  1  0.73555283  0.93807988  0.92405829  1
  Te  Te126  1  0.23253850  0.22383491  0.08927358  1
  Te  Te127  1  0.23597239  0.27187487  0.45980578  1
  Te  Te128  1  0.24125823  0.26330209  0.75406124  1
  Te  Te129  1  0.25290938  0.58634433  0.09334284  1
  Te  Te130  1  0.24359609  0.62750160  0.41946263  1
  Te  Te131  1  0.21558739  0.55065020  0.76137123  1
  Te  Te132  1  0.23422315  0.91256754  0.09347153  1
  Te  Te133  1  0.27812523  0.89750216  0.42188388  1
  Te  Te134  1  0.22290169  0.95414851  0.76943343  1
  Te  Te135  1  0.56909943  0.25786201  0.08523504  1
  Te  Te136  1  0.58086599  0.25736121  0.40593886  1
  Te  Te137  1  0.55921799  0.27903802  0.77218820  1
  Te  Te138  1  0.57849276  0.57580353  0.06577524  1
  Te  Te139  1  0.59957190  0.56601265  0.41793723  1
  Te  Te140  1  0.57285906  0.59497619  0.76687073  1
  Te  Te141  1  0.63656215  0.92254473  0.08106104  1
  Te  Te142  1  0.55265990  0.93395632  0.43918125  1
  Te  Te143  1  0.59260183  0.94015904  0.74453119  1
  Te  Te144  1  0.88642022  0.24601179  0.06657865  1
  Te  Te145  1  0.92892639  0.22681457  0.40930854  1
  Te  Te146  1  0.94372597  0.27612146  0.73204856  1
  Te  Te147  1  0.90031577  0.57267956  0.06305132  1
  Te  Te148  1  0.91275268  0.59247468  0.41031480  1
  Te  Te149  1  0.95381518  0.56537948  0.77727596  1
  Te  Te150  1  0.90205051  0.90467719  0.08733195  1
  Te  Te151  1  0.90749597  0.92368898  0.42460099  1
  Te  Te152  1  0.91112824  0.91893301  0.75277228  1
  Te  Te153  1  0.28200736  0.07078262  0.28413230  1
  Te  Te154  1  0.26499770  0.08493914  0.58971166  1
  Te  Te155  1  0.26072158  0.07085593  0.86484263  1
  Te  Te156  1  0.26170098  0.39027126  0.26512505  1
  Te  Te157  1  0.23337878  0.44567574  0.58439052  1
  Te  Te158  1  0.22213589  0.41748306  0.94092241  1
  Te  Te159  1  0.26694427  0.73732280  0.26068172  1
  Te  Te160  1  0.23412344  0.75020522  0.62904983  1
  Te  Te161  1  0.26519760  0.75835036  0.89873437  1
  Te  Te162  1  0.55530549  0.09923213  0.24438329  1
  Te  Te163  1  0.56341018  0.09046948  0.57504905  1
  Te  Te164  1  0.57636304  0.08909902  0.93572811  1
  Te  Te165  1  0.59457918  0.42366409  0.25877266  1
  Te  Te166  1  0.59184382  0.43556385  0.59424596  1
  Te  Te167  1  0.55303488  0.41023253  0.91735578  1
  Te  Te168  1  0.57634587  0.74391542  0.23670456  1
  Te  Te169  1  0.59719754  0.76080249  0.59141877  1
  Te  Te170  1  0.56844556  0.74394389  0.92196648  1
  Te  Te171  1  0.90644910  0.06428761  0.23521010  1
  Te  Te172  1  0.92490400  0.07633547  0.60185680  1
  Te  Te173  1  0.90534577  0.10149316  0.90216710  1
  Te  Te174  1  0.92546540  0.39238719  0.23685711  1
  Te  Te175  1  0.91845114  0.40044122  0.55797318  1
  Te  Te176  1  0.94089639  0.41484196  0.90093793  1
  Te  Te177  1  0.93514777  0.75453594  0.25131457  1
  Te  Te178  1  0.92854864  0.74600160  0.58291498  1
  Te  Te179  1  0.91387173  0.73899859  0.90575737  1
