# generated using pymatgen
data_In2Te3
_symmetry_space_group_name_H-M   'P 1'
_cell_length_a   19.01297606
_cell_length_b   19.00769412
_cell_length_c   19.01927196
_cell_angle_alpha   89.96934483
_cell_angle_beta   89.87372488
_cell_angle_gamma   90.09254210
_symmetry_Int_Tables_number   1
_chemical_formula_structural   In2Te3
_chemical_formula_sum   'In72 Te108'
_cell_volume   6873.40192729
_cell_formula_units_Z   36
loop_
 _symmetry_equiv_pos_site_id
 _symmetry_equiv_pos_as_xyz
  1  'x, y, z'
loop_
 _atom_site_type_symbol
 _atom_site_label
 _atom_site_symmetry_multiplicity
 _atom_site_fract_x
 _atom_site_fract_y
 _atom_site_fract_z
 _atom_site_occupancy
  In  In0  1  0.67253123  0.80616317  0.17328346  1
  In  In1  1  -0.00333957  0.16230924  0.84784587  1
  In  In2  1  0.14884814  -0.02724458  0.15569316  1
  In  In3  1  -0.04297956  0.34623474  0.64854826  1
  In  In4  1  0.82460263  -0.00021805  0.51038544  1
  In  In5  1  0.49317160  0.34987027  0.86145247  1
  In  In6  1  0.83166633  0.19824837  0.00820136  1
  In  In7  1  0.47759565  0.36600934  0.13247660  1
  In  In8  1  0.67165777  0.50776679  0.48825480  1
  In  In9  1  0.15798983  0.19788104  0.67404038  1
  In  In10  1  0.69212250  -0.01396913  0.32635226  1
  In  In11  1  0.51956793  -0.01002215  0.84033453  1
  In  In12  1  0.20933585  0.17830291  0.36192318  1
  In  In13  1  0.33976099  0.65619161  0.31045494  1
  In  In14  1  0.31826561  -0.00057067  0.34786403  1
  In  In15  1  0.02272159  0.66978752  -0.00343956  1
  In  In16  1  0.66171567  0.80717285  0.81105994  1
  In  In17  1  0.85524066  0.00960923  0.14305521  1
  In  In18  1  0.47779971  0.00936920  0.16774314  1
  In  In19  1  0.16910228  0.81420666  0.66284864  1
  In  In20  1  0.18224449  0.65260512  0.17309945  1
  In  In21  1  0.67175178  0.48829185  0.82465669  1
  In  In22  1  0.33684990  0.17004905  0.15296788  1
  In  In23  1  0.29435646  0.36614419  -0.04164041  1
  In  In24  1  0.49611797  0.33693905  0.48370910  1
  In  In25  1  0.66661921  0.68098872  0.31742121  1
  In  In26  1  0.00879449  0.33708721  0.35448234  1
  In  In27  1  0.31668064  -0.00919415  0.66915903  1
  In  In28  1  0.83778864  0.82413412  0.36339661  1
  In  In29  1  0.64421351  0.49370335  0.16993645  1
  In  In30  1  0.50852137  0.15376956  0.65886955  1
  In  In31  1  0.00453143  0.80859592  0.18261300  1
  In  In32  1  0.84067439  0.34961887  0.18866299  1
  In  In33  1  0.81576009  0.81891921  -0.00256901  1
  In  In34  1  0.67270392  -0.01100622  0.66198433  1
  In  In35  1  0.68822122  0.83180959  0.50752812  1
  In  In36  1  0.83488490  0.67764405  0.15929523  1
  In  In37  1  -0.00515454  0.18082193  0.18778554  1
  In  In38  1  0.32535430  0.83014758  0.53518020  1
  In  In39  1  0.00631865  -0.02257970  -0.04485070  1
  In  In40  1  0.34887130  0.19082466  0.48983575  1
  In  In41  1  0.49958129  0.82690438  -0.00805518  1
  In  In42  1  0.33071344  0.35800843  0.35511793  1
  In  In43  1  0.88069846  0.49373162  0.40048645  1
  In  In44  1  0.51343278  0.81981698  0.34790705  1
  In  In45  1  -0.00754579  0.52649620  0.80580668  1
  In  In46  1  0.32648924  0.83047489  0.15150269  1
  In  In47  1  0.15910954  0.67351341  0.49851449  1
  In  In48  1  0.16272303  0.15084069  -0.00478448  1
  In  In49  1  0.50340264  0.16145157  0.32063676  1
  In  In50  1  0.66306861  0.31879045  0.31140475  1
  In  In51  1  0.16068678  0.35840153  0.16578016  1
  In  In52  1  0.49622106  0.65066710  0.51730954  1
  In  In53  1  0.84457691  0.50827499  -0.01386982  1
  In  In54  1  0.29150795  0.66600234  -0.03312673  1
  In  In55  1  0.65985637  0.00124062  -0.00088551  1
  In  In56  1  0.50015345  0.48683076  0.67337802  1
  In  In57  1  0.00940982  0.80592263  0.81672094  1
  In  In58  1  0.31534457  0.18347105  0.81932042  1
  In  In59  1  0.18442602  0.49270084  0.66662584  1
  In  In60  1  -0.00989455  0.81610324  0.52513266  1
  In  In61  1  0.03665132  0.36228234  -0.01725114  1
  In  In62  1  0.46085080  0.69573584  0.80669264  1
  In  In63  1  0.69661045  0.32551734  0.67557232  1
  In  In64  1  0.82869112  0.16565449  0.66461528  1
  In  In65  1  0.14772351  0.50499911  0.34215983  1
  In  In66  1  0.16290979  -0.02699701  0.81092343  1
  In  In67  1  0.15271289  0.00610773  0.52880555  1
  In  In68  1  0.68551913  0.65889672  0.65964987  1
  In  In69  1  0.64726670  0.32973679  0.00673629  1
  In  In70  1  -0.01543226  0.16408647  0.48300281  1
  In  In71  1  0.67013234  0.16908584  0.82759212  1
  Te  Te72  1  0.06267428  0.08502591  0.08671761  1
  Te  Te73  1  0.09806912  0.08782518  0.41387435  1
  Te  Te74  1  0.08482942  0.08837904  0.74870378  1
  Te  Te75  1  0.08084394  0.45164513  0.08849924  1
  Te  Te76  1  0.08057969  0.42560119  0.44755454  1
  Te  Te77  1  0.06289886  0.41580822  0.73048361  1
  Te  Te78  1  0.10828705  0.75453371  0.08665553  1
  Te  Te79  1  0.08256608  0.77064950  0.42231794  1
  Te  Te80  1  0.11148574  0.71153735  0.75746540  1
  Te  Te81  1  0.40708771  0.07970740  0.06270907  1
  Te  Te82  1  0.42466337  0.07833496  0.42131922  1
  Te  Te83  1  0.41620761  0.08151682  0.75497602  1
  Te  Te84  1  0.37495438  0.44129153  0.05840987  1
  Te  Te85  1  0.41703286  0.44977118  0.43158157  1
  Te  Te86  1  0.40477193  0.42876870  0.77242713  1
  Te  Te87  1  0.39699234  0.73813982  0.05835804  1
  Te  Te88  1  0.40762033  0.74787198  0.42845675  1
  Te  Te89  1  0.40045074  0.74899070  0.68449265  1
  Te  Te90  1  0.74532512  0.09410431  0.08187569  1
  Te  Te91  1  0.74926161  0.08328696  0.41816834  1
  Te  Te92  1  0.75702711  0.06856913  0.75979920  1
  Te  Te93  1  0.75499965  0.41684062  0.08229497  1
  Te  Te94  1  0.74710027  0.42064720  0.39144136  1
  Te  Te95  1  0.77494674  0.43840869  0.73019786  1
  Te  Te96  1  0.72451756  0.71615929  0.06321114  1
  Te  Te97  1  0.75736136  0.71862046  0.43557837  1
  Te  Te98  1  0.77566794  0.73081179  0.75346650  1
  Te  Te99  1  0.11203107  0.25223734  0.26584067  1
  Te  Te100  1  0.05861502  0.25675184  0.57804320  1
  Te  Te101  1  0.10468205  0.25473536  0.90040365  1
  Te  Te102  1  0.07594372  0.60090283  0.25895888  1
  Te  Te103  1  0.08942141  0.58339494  0.59386687  1
  Te  Te104  1  0.09300643  0.57095326  0.90951251  1
  Te  Te105  1  0.06460681  0.91731496  0.25933184  1
  Te  Te106  1  0.06810866  0.91458836  0.61499271  1
  Te  Te107  1  0.10969728  0.87599311  0.91461615  1
  Te  Te108  1  0.39761790  0.25267114  0.26396063  1
  Te  Te109  1  0.42543615  0.26392146  0.59819640  1
  Te  Te110  1  0.39434330  0.25512697  0.92688612  1
  Te  Te111  1  0.44071615  0.58531803  0.23375696  1
  Te  Te112  1  0.40832785  0.54585599  0.57343331  1
  Te  Te113  1  0.39472338  0.59001995  0.88736414  1
  Te  Te114  1  0.41510789  0.91170072  0.26777226  1
  Te  Te115  1  0.41604827  0.93690684  0.57762185  1
  Te  Te116  1  0.41693362  0.91320799  0.90942797  1
  Te  Te117  1  0.75615652  0.23999195  0.23115480  1
  Te  Te118  1  0.77776169  0.26579509  0.57056747  1
  Te  Te119  1  0.74721957  0.27256466  0.90712219  1
  Te  Te120  1  0.74789684  0.58034655  0.23954107  1
  Te  Te121  1  0.76126380  0.54581923  0.60000051  1
  Te  Te122  1  0.75009574  0.58286984  0.90472857  1
  Te  Te123  1  0.77796387  0.89696180  0.23500627  1
  Te  Te124  1  0.78010109  0.89319828  0.60938227  1
  Te  Te125  1  0.73137530  0.90654949  0.90736409  1
  Te  Te126  1  0.23664427  0.25789665  0.07698145  1
  Te  Te127  1  0.23876845  0.29660692  0.45978632  1
  Te  Te128  1  0.25478226  0.29200815  0.73667949  1
  Te  Te129  1  0.26467048  0.57244443  0.07970624  1
  Te  Te130  1  0.25384645  0.58725594  0.41458189  1
  Te  Te131  1  0.27818059  0.54216988  0.77532801  1
  Te  Te132  1  0.25607107  0.92805170  0.06984347  1
  Te  Te133  1  0.23473323  0.91468213  0.44023380  1
  Te  Te134  1  0.27319146  0.87941297  0.76105834  1
  Te  Te135  1  0.55960548  0.25273280  0.09395173  1
  Te  Te136  1  0.58929194  0.23787519  0.41848212  1
  Te  Te137  1  0.57431224  0.26568262  0.75965169  1
  Te  Te138  1  0.54342951  0.58524417  0.11906182  1
  Te  Te139  1  0.57824517  0.59084792  0.40477844  1
  Te  Te140  1  0.57707166  0.59201965  0.74904684  1
  Te  Te141  1  0.58447081  0.91024058  0.09634016  1
  Te  Te142  1  0.59630926  0.91874805  0.42517695  1
  Te  Te143  1  0.57185184  0.89978868  0.73159799  1
  Te  Te144  1  0.94296380  0.27384899  0.07847698  1
  Te  Te145  1  0.90125024  0.24967561  0.40015732  1
  Te  Te146  1  0.91131018  0.24966351  0.76019449  1
  Te  Te147  1  0.92904940  0.58662967  0.08459944  1
  Te  Te148  1  0.95040582  0.60076218  0.47786459  1
  Te  Te149  1  0.90655565  0.62110144  0.73274269  1
  Te  Te150  1  0.92662686  0.89430500  0.07120726  1
  Te  Te151  1  0.92697237  0.92314777  0.42905116  1
  Te  Te152  1  0.94151278  0.93610264  0.82739440  1
  Te  Te153  1  0.24669633  0.08131332  0.24230809  1
  Te  Te154  1  0.25623525  0.10914151  0.58719566  1
  Te  Te155  1  0.24413649  0.07261510  0.89585128  1
  Te  Te156  1  0.25475051  0.43766504  0.25309533  1
  Te  Te157  1  0.25623919  0.38340254  0.60013385  1
  Te  Te158  1  0.20749103  0.46497929  0.88961604  1
  Te  Te159  1  0.24766879  0.76477783  0.26027127  1
  Te  Te160  1  0.27079060  0.70868759  0.61080387  1
  Te  Te161  1  0.22503400  0.73954405  0.85819088  1
  Te  Te162  1  0.59429660  0.07060447  0.24187410  1
  Te  Te163  1  0.61091033  0.09096737  0.57800522  1
  Te  Te164  1  0.57549908  0.10303585  0.92505717  1
  Te  Te165  1  0.55387967  0.40790021  0.25742150  1
  Te  Te166  1  0.59823241  0.40675656  0.58001248  1
  Te  Te167  1  0.57785742  0.44649514  0.94039514  1
  Te  Te168  1  0.54857232  0.73505425  0.22770350  1
  Te  Te169  1  0.58804874  0.74951885  0.58564056  1
  Te  Te170  1  0.57576382  0.72877909  0.90758693  1
  Te  Te171  1  0.91056474  0.08321714  0.25570088  1
  Te  Te172  1  0.92676291  0.07660052  0.59282997  1
  Te  Te173  1  0.89678117  0.08576332  0.93205094  1
  Te  Te174  1  0.93397033  0.43630226  0.26606867  1
  Te  Te175  1  0.92913584  0.44599013  0.54026543  1
  Te  Te176  1  0.92580205  0.41791615  0.89760700  1
  Te  Te177  1  0.91621463  0.72708366  0.27698381  1
  Te  Te178  1  0.93762130  0.69760339  0.60050284  1
  Te  Te179  1  0.91441861  0.73630030  0.91630696  1
