# generated using pymatgen
data_In2Te3
_symmetry_space_group_name_H-M   'P 1'
_cell_length_a   18.99842029
_cell_length_b   19.01917597
_cell_length_c   19.00493283
_cell_angle_alpha   89.85693418
_cell_angle_beta   89.98901380
_cell_angle_gamma   89.97005275
_symmetry_Int_Tables_number   1
_chemical_formula_structural   In2Te3
_chemical_formula_sum   'In72 Te108'
_cell_volume   6867.11160597
_cell_formula_units_Z   36
loop_
 _symmetry_equiv_pos_site_id
 _symmetry_equiv_pos_as_xyz
  1  'x, y, z'
loop_
 _atom_site_type_symbol
 _atom_site_label
 _atom_site_symmetry_multiplicity
 _atom_site_fract_x
 _atom_site_fract_y
 _atom_site_fract_z
 _atom_site_occupancy
  In  In0  1  0.35551206  0.31574978  0.30982594  1
  In  In1  1  0.65702292  0.48963157  0.85829215  1
  In  In2  1  0.16452227  0.82359899  0.64512008  1
  In  In3  1  0.32093159  0.51436341  0.50875883  1
  In  In4  1  0.01514127  0.83372836  0.16662231  1
  In  In5  1  0.84228491  0.66431194  0.16164379  1
  In  In6  1  0.18240460  0.30635584  0.47163540  1
  In  In7  1  0.18204994  0.49810638  0.67052021  1
  In  In8  1  0.31401040  0.66427573  0.32409006  1
  In  In9  1  0.00280385  0.15969624  0.50399000  1
  In  In10  1  0.64457922  0.49372179  0.50955322  1
  In  In11  1  0.34768327  0.63329531  0.00793752  1
  In  In12  1  0.50489265  0.85287556  0.32626915  1
  In  In13  1  0.70329232  -0.00827824  0.63633562  1
  In  In14  1  0.16148344  -0.01118740  0.83619474  1
  In  In15  1  0.49710187  0.68896540  0.16495630  1
  In  In16  1  0.82242902  0.64811422  0.81442228  1
  In  In17  1  0.66260576  0.51707942  0.20287362  1
  In  In18  1  -0.01403209  0.85465130  0.80634631  1
  In  In19  1  0.84797021  0.14552830  0.30975346  1
  In  In20  1  0.48315374  0.46898519  0.01769080  1
  In  In21  1  0.66268373  0.81502558  0.82774914  1
  In  In22  1  0.50212927  0.66735395  0.80381962  1
  In  In23  1  0.85196322  0.42939691  0.01868510  1
  In  In24  1  0.63195417  0.03738322  0.00971137  1
  In  In25  1  0.68025850  -0.02424611  0.36495189  1
  In  In26  1  0.65271410  0.31475542  0.01679803  1
  In  In27  1  0.84689152  0.83799104  0.34247566  1
  In  In28  1  0.17244457  0.80565883  0.00827150  1
  In  In29  1  0.35684046  0.02386386  0.32961832  1
  In  In30  1  0.63905983  0.30231735  0.33634703  1
  In  In31  1  0.01017552  0.17490340  0.84747723  1
  In  In32  1  0.18497977  0.15666629  0.00897740  1
  In  In33  1  0.34141137  0.47862042  0.16957946  1
  In  In34  1  0.00107779  0.65815615  0.00015891  1
  In  In35  1  0.48331339  0.65355203  0.51853414  1
  In  In36  1  0.15058221  0.00112857  0.46784301  1
  In  In37  1  0.47708691  0.84091861  0.67884069  1
  In  In38  1  0.16540733  0.16342476  0.65658187  1
  In  In39  1  -0.01126037  0.33176566  0.33846479  1
  In  In40  1  0.84818661  0.30515044  0.88081402  1
  In  In41  1  0.81878181  0.48910018  0.67958301  1
  In  In42  1  0.83345033  0.00623214  0.83481863  1
  In  In43  1  0.17062280  0.03277243  0.18069471  1
  In  In44  1  0.17589286  0.47143428  0.01124279  1
  In  In45  1  0.02053796  0.01245317  0.01756484  1
  In  In46  1  0.83506038  0.18243378  0.64633643  1
  In  In47  1  0.49349996  0.02831869  0.16391164  1
  In  In48  1  0.32443429  0.82171242  0.50536135  1
  In  In49  1  0.16861019  0.82220005  0.31224150  1
  In  In50  1  0.16935271  0.31862584  0.18842507  1
  In  In51  1  0.82753825  0.36299969  0.50398391  1
  In  In52  1  0.83839722  0.84639810  -0.01450169  1
  In  In53  1  0.33455455  -0.01212543  0.00193801  1
  In  In54  1  0.64901396  0.68515855  -0.00126969  1
  In  In55  1  0.68749550  0.68583243  0.64336554  1
  In  In56  1  0.85648803  0.50892523  0.35487278  1
  In  In57  1  0.66352852  0.18292719  0.49892934  1
  In  In58  1  0.51299272  0.50120490  0.35693902  1
  In  In59  1  0.00148070  0.84547268  0.47635801  1
  In  In60  1  0.49367737  0.17241473  0.65946820  1
  In  In61  1  0.18221098  0.66184669  0.80909714  1
  In  In62  1  0.50915200  0.33202472  0.51906181  1
  In  In63  1  0.67467851  0.15189338  0.17646850  1
  In  In64  1  0.50164723  -0.00799678  0.84059088  1
  In  In65  1  0.00816869  0.51777263  0.80382609  1
  In  In66  1  0.03293020  0.50840497  0.22677470  1
  In  In67  1  0.30570034  0.00161850  0.66352959  1
  In  In68  1  0.62626850  0.16068923  0.82592166  1
  In  In69  1  0.21118728  0.32835096  0.82369906  1
  In  In70  1  0.65650164  0.87268442  0.17326664  1
  In  In71  1  0.02113820  0.50995233  0.52048379  1
  Te  Te72  1  0.06128211  0.12582748  0.10910255  1
  Te  Te73  1  0.08156885  0.10748650  0.39027340  1
  Te  Te74  1  0.07816774  0.08050665  0.75008076  1
  Te  Te75  1  0.07832090  0.41601735  0.11309344  1
  Te  Te76  1  0.08401111  0.41220670  0.42176858  1
  Te  Te77  1  0.09322047  0.40711162  0.75059956  1
  Te  Te78  1  0.09205483  0.71895225  0.10346162  1
  Te  Te79  1  0.08742244  0.74345598  0.40725471  1
  Te  Te80  1  0.07316700  0.75074070  0.74391526  1
  Te  Te81  1  0.38988567  0.09547273  0.08513466  1
  Te  Te82  1  0.47444276  0.07251307  0.40061261  1
  Te  Te83  1  0.41497495  0.07012809  0.74259812  1
  Te  Te84  1  0.39412948  0.36980617  0.08409413  1
  Te  Te85  1  0.41160566  0.41626908  0.42589885  1
  Te  Te86  1  0.35388035  0.37800474  0.76679395  1
  Te  Te87  1  0.39393162  0.75147977  0.08375548  1
  Te  Te88  1  0.41580579  0.74409356  0.40690554  1
  Te  Te89  1  0.39321624  0.73470082  0.73267979  1
  Te  Te90  1  0.75321163  0.07897272  0.07692397  1
  Te  Te91  1  0.75739012  0.09268419  0.42261179  1
  Te  Te92  1  0.74235612  0.09773920  0.74609469  1
  Te  Te93  1  0.72250610  0.42238766  0.09734447  1
  Te  Te94  1  0.72701669  0.41503469  0.40269729  1
  Te  Te95  1  0.76279336  0.40605427  0.79137996  1
  Te  Te96  1  0.75005715  0.76218022  0.08474856  1
  Te  Te97  1  0.76099917  0.77676229  0.44710230  1
  Te  Te98  1  0.77374261  0.76964835  0.73681182  1
  Te  Te99  1  0.08633460  0.23623389  0.28121245  1
  Te  Te100  1  0.08009382  0.26185557  0.58128989  1
  Te  Te101  1  0.10981551  0.25554425  0.92316254  1
  Te  Te102  1  0.10023447  0.60755189  0.30764693  1
  Te  Te103  1  0.11356743  0.60280671  0.58945864  1
  Te  Te104  1  0.10024217  0.57869298  0.91764294  1
  Te  Te105  1  0.08164973  0.93544423  0.25638817  1
  Te  Te106  1  0.08085798  0.93054692  0.58141353  1
  Te  Te107  1  0.07031047  0.89405165  0.92648915  1
  Te  Te108  1  0.45593167  0.25606552  0.22161811  1
  Te  Te109  1  0.40223862  0.24850293  0.57305719  1
  Te  Te110  1  0.35159684  0.29911815  0.88955782  1
  Te  Te111  1  0.42976327  0.57940736  0.25051605  1
  Te  Te112  1  0.42598037  0.55190136  0.60597910  1
  Te  Te113  1  0.44507816  0.57052472  0.91052510  1
  Te  Te114  1  0.41001371  0.91989566  0.23179582  1
  Te  Te115  1  0.40602155  0.92706512  0.57582148  1
  Te  Te116  1  0.40228190  0.90546269  0.90168848  1
  Te  Te117  1  0.75588130  0.25529233  0.25196677  1
  Te  Te118  1  0.73333540  0.28109299  0.59107886  1
  Te  Te119  1  0.72486451  0.22228957  0.92277781  1
  Te  Te120  1  0.76202921  0.60329218  0.27475824  1
  Te  Te121  1  0.75829792  0.57497586  0.56918077  1
  Te  Te122  1  0.74591347  0.58955205  0.93168315  1
  Te  Te123  1  0.76929506  0.93357593  0.24759192  1
  Te  Te124  1  0.77249499  0.89189721  0.55076244  1
  Te  Te125  1  0.72857001  0.92461956  0.91641970  1
  Te  Te126  1  0.25595799  0.26575801  0.08005063  1
  Te  Te127  1  0.28472096  0.22591896  0.40201825  1
  Te  Te128  1  0.27619265  0.23162098  0.72708229  1
  Te  Te129  1  0.24371766  0.57189010  0.10157375  1
  Te  Te130  1  0.22947904  0.57366111  0.40468285  1
  Te  Te131  1  0.28160006  0.57453649  0.74873467  1
  Te  Te132  1  0.22407211  0.92458449  0.08472692  1
  Te  Te133  1  0.26028760  0.91543613  0.40274242  1
  Te  Te134  1  0.24570596  0.89521147  0.75295099  1
  Te  Te135  1  0.56730595  0.23819876  0.11432289  1
  Te  Te136  1  0.53675333  0.21504055  0.41198089  1
  Te  Te137  1  0.55905648  0.26618594  0.75126632  1
  Te  Te138  1  0.57956358  0.57913005  0.08445789  1
  Te  Te139  1  0.59395325  0.60888374  0.42298259  1
  Te  Te140  1  0.62268272  0.59446264  0.75099488  1
  Te  Te141  1  0.55966358  0.92015191  0.07103546  1
  Te  Te142  1  0.57709422  0.90474632  0.44146848  1
  Te  Te143  1  0.60092240  0.92061877  0.73623879  1
  Te  Te144  1  0.88659986  0.28781688  0.02399073  1
  Te  Te145  1  0.89464884  0.25174617  0.42737928  1
  Te  Te146  1  0.91876291  0.24937636  0.75246167  1
  Te  Te147  1  0.91393154  0.56283305  0.07733872  1
  Te  Te148  1  0.92706814  0.59573770  0.44577553  1
  Te  Te149  1  0.92171011  0.60062837  0.71206204  1
  Te  Te150  1  0.91979300  0.92154622  0.08778601  1
  Te  Te151  1  0.93926866  0.94305415  0.38549617  1
  Te  Te152  1  0.90474824  0.94217136  0.72379387  1
  Te  Te153  1  0.27444828  0.11305531  0.24580231  1
  Te  Te154  1  0.24456966  0.08519786  0.55326567  1
  Te  Te155  1  0.25842827  0.08201229  0.90050577  1
  Te  Te156  1  0.24885738  0.41735774  0.27131862  1
  Te  Te157  1  0.24731418  0.39918445  0.57305396  1
  Te  Te158  1  0.27916338  0.44032106  0.90671018  1
  Te  Te159  1  0.26713873  0.75920604  0.22309321  1
  Te  Te160  1  0.23931755  0.72014859  0.57008787  1
  Te  Te161  1  0.26373963  0.72965103  0.91811525  1
  Te  Te162  1  0.59201098  0.06647496  0.27249612  1
  Te  Te163  1  0.59377679  0.07918484  0.58427943  1
  Te  Te164  1  0.52733551  0.11177559  0.93094438  1
  Te  Te165  1  0.56742782  0.40843737  0.25079403  1
  Te  Te166  1  0.56888796  0.42613845  0.61481499  1
  Te  Te167  1  0.56214147  0.38665076  0.91728795  1
  Te  Te168  1  0.60018246  0.75684940  0.25238942  1
  Te  Te169  1  0.56859998  0.75901574  0.58640456  1
  Te  Te170  1  0.55120011  0.76267226  0.91497299  1
  Te  Te171  1  0.93133193  0.11590190  0.19623693  1
  Te  Te172  1  0.91058741  0.07615040  0.58158585  1
  Te  Te173  1  0.91938815  0.08559549  0.93098045  1
  Te  Te174  1  0.90910088  0.42051894  0.24482793  1
  Te  Te175  1  0.92660493  0.41652356  0.60205527  1
  Te  Te176  1  0.95306831  0.41885681  0.90274582  1
  Te  Te177  1  0.93049300  0.74348557  0.25355220  1
  Te  Te178  1  0.88622990  0.78374819  0.54944347  1
  Te  Te179  1  0.91213596  0.73902171  0.90677192  1
