# generated using pymatgen
data_In2Te3
_symmetry_space_group_name_H-M   'P 1'
_cell_length_a   18.93722682
_cell_length_b   18.93590992
_cell_length_c   18.92768834
_cell_angle_alpha   89.99590807
_cell_angle_beta   89.85290842
_cell_angle_gamma   90.14571975
_symmetry_Int_Tables_number   1
_chemical_formula_structural   In2Te3
_chemical_formula_sum   'In72 Te108'
_cell_volume   6787.30396460
_cell_formula_units_Z   36
loop_
 _symmetry_equiv_pos_site_id
 _symmetry_equiv_pos_as_xyz
  1  'x, y, z'
loop_
 _atom_site_type_symbol
 _atom_site_label
 _atom_site_symmetry_multiplicity
 _atom_site_fract_x
 _atom_site_fract_y
 _atom_site_fract_z
 _atom_site_occupancy
  In  In0  1  0.51069751  0.32224668  0.82130230  1
  In  In1  1  0.35457430  0.29743388  0.31428916  1
  In  In2  1  0.18350300  0.15915915  0.31233314  1
  In  In3  1  0.67338097  0.49316462  0.16958631  1
  In  In4  1  -0.02267115  0.51254801  0.48603071  1
  In  In5  1  0.00097551  -0.00996178  0.01407402  1
  In  In6  1  0.53412646  0.69034981  0.14972192  1
  In  In7  1  0.33032688  0.49250137  0.18038538  1
  In  In8  1  0.85016961  0.67619168  0.87393340  1
  In  In9  1  0.30865559  0.33340197  -0.00336442  1
  In  In10  1  0.64295351  0.29663085  0.02566895  1
  In  In11  1  -0.01691978  0.18553990  0.84244322  1
  In  In12  1  -0.01388615  0.33568172  0.34034511  1
  In  In13  1  0.15844860  0.14704946  0.00838244  1
  In  In14  1  0.79124852  0.32994271  0.48902947  1
  In  In15  1  0.49435808  0.01436991  0.16970416  1
  In  In16  1  0.13493741  0.32385993  0.48010225  1
  In  In17  1  0.01305528  0.68129866  0.68613096  1
  In  In18  1  0.14137273  0.83525519  0.32483817  1
  In  In19  1  0.82956524  0.33261556  0.85102026  1
  In  In20  1  0.36171326  0.16078320  0.82225519  1
  In  In21  1  0.46932603  0.47913693  -0.00660862  1
  In  In22  1  0.85006302  0.52668435  0.26725384  1
  In  In23  1  0.83599177  0.47133911  0.67335374  1
  In  In24  1  0.01678458  0.84630450  0.50344605  1
  In  In25  1  0.83292289  0.14690141  0.32869729  1
  In  In26  1  -0.01216115  -0.00947653  0.69372096  1
  In  In27  1  0.15935849  0.32156334  0.16719712  1
  In  In28  1  -0.01549239  -0.00006970  0.29643962  1
  In  In29  1  0.35956581  0.14982333  0.50504016  1
  In  In30  1  0.34758848  0.52404400  0.82431927  1
  In  In31  1  0.63716098  0.30077251  0.35012055  1
  In  In32  1  0.33850861  0.01820930  0.34077627  1
  In  In33  1  0.85678320  -0.00964460  0.48554101  1
  In  In34  1  0.66097871  0.30116530  0.67844986  1
  In  In35  1  0.50038495  0.84800865  -0.00564780  1
  In  In36  1  0.01129155  0.52638494  0.84048647  1
  In  In37  1  0.47564939  0.47563897  0.34271285  1
  In  In38  1  0.33931591  -0.01763511  -0.00739381  1
  In  In39  1  0.17409031  0.36943097  0.82418083  1
  In  In40  1  0.10773062  0.72054596  0.88164100  1
  In  In41  1  0.83819059  0.31896619  0.15853200  1
  In  In42  1  0.66469856  0.46129284  0.48588242  1
  In  In43  1  0.47364986  0.85058414  0.65787440  1
  In  In44  1  0.34185938  0.31410185  0.63999289  1
  In  In45  1  0.19556947  0.66890163  0.50128464  1
  In  In46  1  0.31514076  0.67263027  -0.00298033  1
  In  In47  1  0.33852327  0.47762443  0.47342773  1
  In  In48  1  0.65802448  0.03814778  0.67024389  1
  In  In49  1  0.48393672  0.67774677  0.52184993  1
  In  In50  1  0.64709605  -0.00365365  0.33529582  1
  In  In51  1  0.00862142  0.14001609  0.51278289  1
  In  In52  1  -0.03477087  0.69003721  0.23627064  1
  In  In53  1  0.17220337  0.15600186  0.65048023  1
  In  In54  1  0.19228112  0.01950423  0.50639884  1
  In  In55  1  0.81453955  0.13628730  0.00990630  1
  In  In56  1  0.69512129  0.83292962  0.17595224  1
  In  In57  1  0.32473355  0.69225290  0.66707197  1
  In  In58  1  0.14545837  0.70049012  0.14376733  1
  In  In59  1  0.52183769  0.51286140  0.66400531  1
  In  In60  1  0.65136811  0.83601914  0.49111669  1
  In  In61  1  0.82481190  0.85572771  0.69744351  1
  In  In62  1  0.31965819  0.86734183  0.16255178  1
  In  In63  1  -0.00026690  0.34339763  0.00109648  1
  In  In64  1  0.69393362  0.66060561  0.70099113  1
  In  In65  1  0.55175015  -0.01280483  0.85425281  1
  In  In66  1  0.35868353  0.68165269  0.33873065  1
  In  In67  1  0.66043472  0.65242903  0.33815151  1
  In  In68  1  0.18828137  -0.02662603  0.80769998  1
  In  In69  1  0.82256243  0.67360609  0.50777562  1
  In  In70  1  0.68103016  0.69725665  0.00562159  1
  In  In71  1  0.16314648  0.49453732  0.68031903  1
  Te  Te72  1  0.07281265  0.08042472  0.10664044  1
  Te  Te73  1  0.08200252  0.06696366  0.40213151  1
  Te  Te74  1  0.08801196  0.09184115  0.76088068  1
  Te  Te75  1  0.09890266  0.41948649  0.07723920  1
  Te  Te76  1  0.08046512  0.44033497  0.39935938  1
  Te  Te77  1  0.05219091  0.41315629  0.74544797  1
  Te  Te78  1  0.03514396  0.76743379  0.06510527  1
  Te  Te79  1  0.08208888  0.73439749  0.42329217  1
  Te  Te80  1  0.10995004  0.77342159  0.74267385  1
  Te  Te81  1  0.43246403  0.08309847  0.05085284  1
  Te  Te82  1  0.44609882  0.11200774  0.38939906  1
  Te  Te83  1  0.47609105  0.08742909  0.76521577  1
  Te  Te84  1  0.40879540  0.39101349  0.10063616  1
  Te  Te85  1  0.42768272  0.36226812  0.43178182  1
  Te  Te86  1  0.40924448  0.41220396  0.74292072  1
  Te  Te87  1  0.41022896  0.75722845  0.09424942  1
  Te  Te88  1  0.41226692  0.77301058  0.43928065  1
  Te  Te89  1  0.43744002  0.73931613  0.74558249  1
  Te  Te90  1  0.69936588  0.04585138  0.04866689  1
  Te  Te91  1  0.74657730  0.07557176  0.42882261  1
  Te  Te92  1  0.76011703  0.04360099  0.77492530  1
  Te  Te93  1  0.74822303  0.40363254  0.07303374  1
  Te  Te94  1  0.76652254  0.43083211  0.37900207  1
  Te  Te95  1  0.73130632  0.41109871  0.76207901  1
  Te  Te96  1  0.77404893  0.80484259  0.04926429  1
  Te  Te97  1  0.75041066  0.75781581  0.40388876  1
  Te  Te98  1  0.75184064  0.76480071  0.79442817  1
  Te  Te99  1  0.06661280  0.23673705  0.25449070  1
  Te  Te100  1  0.06811758  0.25262022  0.59691323  1
  Te  Te101  1  0.10204417  0.26078517  0.91335428  1
  Te  Te102  1  0.08524388  0.60598782  0.24030709  1
  Te  Te103  1  0.07839160  0.58134125  0.58221472  1
  Te  Te104  1  0.08014888  0.59308334  0.94986704  1
  Te  Te105  1  0.08584173  0.92192003  0.21812101  1
  Te  Te106  1  0.09253692  0.94106930  0.59249892  1
  Te  Te107  1  0.11635104  0.93143785  0.93103122  1
  Te  Te108  1  0.45254541  0.21766236  0.24179810  1
  Te  Te109  1  0.44675391  0.21440203  0.60789170  1
  Te  Te110  1  0.41881053  0.25618829  0.92568317  1
  Te  Te111  1  0.43540148  0.58724001  0.24426769  1
  Te  Te112  1  0.39520478  0.56450263  0.58490451  1
  Te  Te113  1  0.43001959  0.60654946  0.92034127  1
  Te  Te114  1  0.42207858  0.91473980  0.26114727  1
  Te  Te115  1  0.39517654  0.94795664  0.58303990  1
  Te  Te116  1  0.41608364  0.91022693  0.88610529  1
  Te  Te117  1  0.74629828  0.24793930  0.25570669  1
  Te  Te118  1  0.75907196  0.23260657  0.59314552  1
  Te  Te119  1  0.73739222  0.23382360  0.92292411  1
  Te  Te120  1  0.74191414  0.62279491  0.21253981  1
  Te  Te121  1  0.74823963  0.55940625  0.57694790  1
  Te  Te122  1  0.76090337  0.58853196  0.94976953  1
  Te  Te123  1  0.76132844  0.93687309  0.25821365  1
  Te  Te124  1  0.75802354  0.91149035  0.57379578  1
  Te  Te125  1  0.70117025  0.97954839  0.89691900  1
  Te  Te126  1  0.25561196  0.22882766  0.09366989  1
  Te  Te127  1  0.24486335  0.23068797  0.43265320  1
  Te  Te128  1  0.25072945  0.25530459  0.74837317  1
  Te  Te129  1  0.24458665  0.58632914  0.10027651  1
  Te  Te130  1  0.25845549  0.57971228  0.39497729  1
  Te  Te131  1  0.23633483  0.60111212  0.75704084  1
  Te  Te132  1  0.22744609  0.90070243  0.05077706  1
  Te  Te133  1  0.24257180  0.91687558  0.40889281  1
  Te  Te134  1  0.29542514  0.93132083  0.71437664  1
  Te  Te135  1  0.56645866  0.22861612  0.13382568  1
  Te  Te136  1  0.58421336  0.20200217  0.44374207  1
  Te  Te137  1  0.59389257  0.20780295  0.77541450  1
  Te  Te138  1  0.56912994  0.56043764  0.08121512  1
  Te  Te139  1  0.56581428  0.57249371  0.42983465  1
  Te  Te140  1  0.59806457  0.57465799  0.77118401  1
  Te  Te141  1  0.58516342  0.91055867  0.10181711  1
  Te  Te142  1  0.56042847  0.93748223  0.44001129  1
  Te  Te143  1  0.59473273  0.90999502  0.72398041  1
  Te  Te144  1  0.92290017  0.23202710  0.06880586  1
  Te  Te145  1  0.91659908  0.23151540  0.42712590  1
  Te  Te146  1  0.89228299  0.24847881  0.74769562  1
  Te  Te147  1  0.90570403  0.59264605  0.14197506  1
  Te  Te148  1  0.90058888  0.60495450  0.39524163  1
  Te  Te149  1  0.90144209  0.59266638  0.74352226  1
  Te  Te150  1  0.87883984  0.92275591  0.06968584  1
  Te  Te151  1  0.92520387  0.89292369  0.39199623  1
  Te  Te152  1  0.93176371  0.89457477  0.78984815  1
  Te  Te153  1  0.26128738  0.06990190  0.22703649  1
  Te  Te154  1  0.29489343  0.06591083  0.62726038  1
  Te  Te155  1  0.25550720  0.08533650  0.90079780  1
  Te  Te156  1  0.25118104  0.39606923  0.26770018  1
  Te  Te157  1  0.23325268  0.40841557  0.57373641  1
  Te  Te158  1  0.25220388  0.45327741  0.92238827  1
  Te  Te159  1  0.25432299  0.75390660  0.25084686  1
  Te  Te160  1  0.23594781  0.77807331  0.58873537  1
  Te  Te161  1  0.24833873  0.76776423  0.90998172  1
  Te  Te162  1  0.60291909  0.09792202  0.23216671  1
  Te  Te163  1  0.57679559  0.11102433  0.57158420  1
  Te  Te164  1  0.57642078  0.08495483  0.97024582  1
  Te  Te165  1  0.58019639  0.40693236  0.25711804  1
  Te  Te166  1  0.57444246  0.39428162  0.58812100  1
  Te  Te167  1  0.58256772  0.40352648  0.92749733  1
  Te  Te168  1  0.58358256  0.76498016  0.26932591  1
  Te  Te169  1  0.60873932  0.72820337  0.59148404  1
  Te  Te170  1  0.58466642  0.75826226  0.91516247  1
  Te  Te171  1  0.87446145  0.05952623  0.21587120  1
  Te  Te172  1  0.90385693  0.07735230  0.60280370  1
  Te  Te173  1  0.91392103  0.07216308  0.91337859  1
  Te  Te174  1  0.94084019  0.41226977  0.21875921  1
  Te  Te175  1  0.91109805  0.40121681  0.56309526  1
  Te  Te176  1  0.91300285  0.43788435  0.92177906  1
  Te  Te177  1  0.94815501  0.82732158  0.17523663  1
  Te  Te178  1  0.91661339  0.76169994  0.58942226  1
  Te  Te179  1  0.96100439  0.76142458  0.92403827  1
