# generated using pymatgen
data_In2Te3
_symmetry_space_group_name_H-M   'P 1'
_cell_length_a   18.90212320
_cell_length_b   18.93025489
_cell_length_c   18.92380408
_cell_angle_alpha   90.22219439
_cell_angle_beta   89.92114917
_cell_angle_gamma   89.91168305
_symmetry_Int_Tables_number   1
_chemical_formula_structural   In2Te3
_chemical_formula_sum   'In72 Te108'
_cell_volume   6771.28818782
_cell_formula_units_Z   36
loop_
 _symmetry_equiv_pos_site_id
 _symmetry_equiv_pos_as_xyz
  1  'x, y, z'
loop_
 _atom_site_type_symbol
 _atom_site_label
 _atom_site_symmetry_multiplicity
 _atom_site_fract_x
 _atom_site_fract_y
 _atom_site_fract_z
 _atom_site_occupancy
  In  In0  1  0.17190926  0.84639101  0.01999738  1
  In  In1  1  0.34546389  0.82454874  0.83271626  1
  In  In2  1  0.65412006  0.17374973  0.17272605  1
  In  In3  1  0.04178206  0.29500081  0.63837876  1
  In  In4  1  0.37490992  0.65197935  0.03292239  1
  In  In5  1  0.13826361  0.31865656  0.15676037  1
  In  In6  1  0.49482836  0.14279414  0.32594747  1
  In  In7  1  0.15339236  0.16233969  0.01263876  1
  In  In8  1  0.13054078  0.69903127  0.47747903  1
  In  In9  1  0.19084643  -0.00051327  0.49337187  1
  In  In10  1  0.66743027  0.51744649  0.48798795  1
  In  In11  1  0.66483763  0.00533579  0.66608798  1
  In  In12  1  0.15464520  0.68663310  0.82677715  1
  In  In13  1  -0.01169481  0.14580831  0.19386338  1
  In  In14  1  0.47612871  0.30855129  0.81375539  1
  In  In15  1  0.50053581  0.34264118  0.47991523  1
  In  In16  1  0.82775967  0.31818412  0.51382101  1
  In  In17  1  0.34468038  0.33618390  -0.01627017  1
  In  In18  1  0.16811308  0.83249854  0.68061311  1
  In  In19  1  0.50588422  0.85063661  0.65359570  1
  In  In20  1  -0.00343762  -0.00743164  0.65586656  1
  In  In21  1  0.50445542  0.51077913  0.34480788  1
  In  In22  1  0.80679055  0.37155542  0.14554145  1
  In  In23  1  0.00252192  0.51220849  0.17062453  1
  In  In24  1  0.65705190  0.35841036  -0.00298715  1
  In  In25  1  0.51721779  0.49867151  0.67778131  1
  In  In26  1  0.83482918  -0.01041569  0.49601455  1
  In  In27  1  0.33700125  0.50277773  0.85269779  1
  In  In28  1  0.79123595  0.84520777  0.07094569  1
  In  In29  1  -0.01278614  0.33370908  -0.00493495  1
  In  In30  1  0.66280881  0.17040924  0.81473039  1
  In  In31  1  0.17810826  0.00477388  0.17633808  1
  In  In32  1  0.67549645  0.50002769  0.82912072  1
  In  In33  1  0.18731289  0.65675072  0.18583747  1
  In  In34  1  0.32822384  0.49222476  0.16671856  1
  In  In35  1  0.66678775  0.00960479  -0.01277837  1
  In  In36  1  0.01129858  0.14891215  0.83161575  1
  In  In37  1  0.84947181  0.16288268  -0.00368898  1
  In  In38  1  0.82101235  0.84930271  0.32457069  1
  In  In39  1  0.30648338  0.30319831  0.66036079  1
  In  In40  1  0.79546815  0.66548833  0.18060821  1
  In  In41  1  -0.01757838  0.84400659  0.17771260  1
  In  In42  1  0.33565592  0.14332232  0.18605687  1
  In  In43  1  0.48862088  0.33593026  0.17346178  1
  In  In44  1  0.81679602  0.49278266  0.66837600  1
  In  In45  1  0.15691121  0.50386735  0.66326373  1
  In  In46  1  0.01637627  0.84404895  0.81966346  1
  In  In47  1  0.86758726  0.69694856  0.51733919  1
  In  In48  1  0.49501982  0.82254183  0.00254238  1
  In  In49  1  -0.00571243  0.32836359  0.31893437  1
  In  In50  1  0.00134650  0.00097233  0.34245488  1
  In  In51  1  0.66669228  0.81856321  0.84514307  1
  In  In52  1  0.84025443  0.34398614  0.82738883  1
  In  In53  1  0.33979323  0.68491895  0.35863981  1
  In  In54  1  0.66617392  0.34913675  0.34488640  1
  In  In55  1  0.34513787  0.49002443  0.51706357  1
  In  In56  1  0.33522754  0.00613842  0.02016640  1
  In  In57  1  0.80730536  0.15037284  0.35678949  1
  In  In58  1  0.35310355  0.66850817  0.64660006  1
  In  In59  1  0.19288639  -0.00249829  0.81203755  1
  In  In60  1  -0.00203548  0.47426602  0.82129124  1
  In  In61  1  0.64864614  0.85455475  0.48505775  1
  In  In62  1  0.16512869  0.49823853  0.34467491  1
  In  In63  1  0.81741682  0.16106072  0.66487806  1
  In  In64  1  0.47294392  0.04400515  0.79809082  1
  In  In65  1  0.49123768  -0.02483035  0.18947722  1
  In  In66  1  0.00614105  0.65538191  -0.00231926  1
  In  In67  1  0.32614394  0.16347791  0.48359369  1
  In  In68  1  0.35867002  0.85568320  0.50571592  1
  In  In69  1  0.59188017  0.68133298  0.16696537  1
  In  In70  1  0.83642459  0.67904159  0.82886794  1
  In  In71  1  -0.02658613  0.50345840  0.48992149  1
  Te  Te72  1  0.06727062  0.06566956  0.09039241  1
  Te  Te73  1  0.08159423  0.08615958  0.43432179  1
  Te  Te74  1  0.09848572  0.08181824  0.72689017  1
  Te  Te75  1  0.08102594  0.42872353  0.07029351  1
  Te  Te76  1  0.07180418  0.40767695  0.42278436  1
  Te  Te77  1  0.09976127  0.38963595  0.74540057  1
  Te  Te78  1  0.08427013  0.74641053  0.09453603  1
  Te  Te79  1  0.05571519  0.79369524  0.39719558  1
  Te  Te80  1  0.05584212  0.72850630  0.71634244  1
  Te  Te81  1  0.44033258  0.08662651  0.09378429  1
  Te  Te82  1  0.43486868  0.06747621  0.43880061  1
  Te  Te83  1  0.36511322  0.11996155  0.71994045  1
  Te  Te84  1  0.42772497  0.42987187  0.06982409  1
  Te  Te85  1  0.39665880  0.41460611  0.39559602  1
  Te  Te86  1  0.39708122  0.41836094  0.73148742  1
  Te  Te87  1  0.44293792  0.74787411  0.12244476  1
  Te  Te88  1  0.44437126  0.75182508  0.44001396  1
  Te  Te89  1  0.43869062  0.74247900  0.74658179  1
  Te  Te90  1  0.74980423  0.09057473  0.08605854  1
  Te  Te91  1  0.72284906  0.04878016  0.42030983  1
  Te  Te92  1  0.76419285  0.06748535  0.77044189  1
  Te  Te93  1  0.71415346  0.47314160  0.07662086  1
  Te  Te94  1  0.77163026  0.42571672  0.42157862  1
  Te  Te95  1  0.73172833  0.38657841  0.73311401  1
  Te  Te96  1  0.70848312  0.71704085  0.06751287  1
  Te  Te97  1  0.75585382  0.76162166  0.42674296  1
  Te  Te98  1  0.74224081  0.74851834  0.74038705  1
  Te  Te99  1  0.09530492  0.22490389  0.26774786  1
  Te  Te100  1  0.11638344  0.21551262  0.53421683  1
  Te  Te101  1  0.08669132  0.25487038  0.91279585  1
  Te  Te102  1  0.07661927  0.59810686  0.27198399  1
  Te  Te103  1  0.07475690  0.58804823  0.56685497  1
  Te  Te104  1  0.08832922  0.57228396  0.90073523  1
  Te  Te105  1  0.09295464  0.90853335  0.26100128  1
  Te  Te106  1  0.09445041  0.90993556  0.57392830  1
  Te  Te107  1  0.10101921  0.92823229  0.91372999  1
  Te  Te108  1  0.40517153  0.25182585  0.26790818  1
  Te  Te109  1  0.41913223  0.25410579  0.57000874  1
  Te  Te110  1  0.40865559  0.22452919  0.91298965  1
  Te  Te111  1  0.40518567  0.58579225  0.25770342  1
  Te  Te112  1  0.45168863  0.58452179  0.56634207  1
  Te  Te113  1  0.43334805  0.59648502  0.91002329  1
  Te  Te114  1  0.41314506  0.92447264  0.30418361  1
  Te  Te115  1  0.45076203  0.95735758  0.56523570  1
  Te  Te116  1  0.41796485  0.93138849  0.91499823  1
  Te  Te117  1  0.75427624  0.25984070  0.25004925  1
  Te  Te118  1  0.72518085  0.22394534  0.56687912  1
  Te  Te119  1  0.75160212  0.25529379  0.92237478  1
  Te  Te120  1  0.69963663  0.59273991  0.26533155  1
  Te  Te121  1  0.76019220  0.59718954  0.57728609  1
  Te  Te122  1  0.76560834  0.58058241  0.91322732  1
  Te  Te123  1  0.73276177  0.88608201  0.20816801  1
  Te  Te124  1  0.75135948  0.90671633  0.59145337  1
  Te  Te125  1  0.75866966  0.90327419  0.93042574  1
  Te  Te126  1  0.25620939  0.24399491  0.09242713  1
  Te  Te127  1  0.22790541  0.26760195  0.44704735  1
  Te  Te128  1  0.25812622  0.21552293  0.76642273  1
  Te  Te129  1  0.24726394  0.57849391  0.07001735  1
  Te  Te130  1  0.24817432  0.58527868  0.43822410  1
  Te  Te131  1  0.25197941  0.59734064  0.74013919  1
  Te  Te132  1  0.27702735  0.90301650  0.11363185  1
  Te  Te133  1  0.27143402  0.91345861  0.39966721  1
  Te  Te134  1  0.28759460  0.91502684  0.72553887  1
  Te  Te135  1  0.57385029  0.25652581  0.07482708  1
  Te  Te136  1  0.58610653  0.23931694  0.40745954  1
  Te  Te137  1  0.56800991  0.23476294  0.71814225  1
  Te  Te138  1  0.58497853  0.55633984  0.09083178  1
  Te  Te139  1  0.60522320  0.61271390  0.38988661  1
  Te  Te140  1  0.60814222  0.59488875  0.73909479  1
  Te  Te141  1  0.58165016  0.92119367  0.07791503  1
  Te  Te142  1  0.54610257  0.87865550  0.37308634  1
  Te  Te143  1  0.57522651  0.93077581  0.76929482  1
  Te  Te144  1  0.91961923  0.25569280  0.10575314  1
  Te  Te145  1  0.91512995  0.23979804  0.41627936  1
  Te  Te146  1  0.92394676  0.24516332  0.74731521  1
  Te  Te147  1  0.90437401  0.59491380  0.09122677  1
  Te  Te148  1  0.90811649  0.60504380  0.40826638  1
  Te  Te149  1  0.91907825  0.57502716  0.74311832  1
  Te  Te150  1  0.91459404  0.92725795  0.07972806  1
  Te  Te151  1  0.93626181  0.89121198  0.42835670  1
  Te  Te152  1  0.90969910  0.89804859  0.73083504  1
  Te  Te153  1  0.24737249  0.07938072  0.28265305  1
  Te  Te154  1  0.26805429  0.07957198  0.59442782  1
  Te  Te155  1  0.25104841  0.08647927  0.92364831  1
  Te  Te156  1  0.23199676  0.40509484  0.24483915  1
  Te  Te157  1  0.23243529  0.40522241  0.57305404  1
  Te  Te158  1  0.24162055  0.41077657  0.91190194  1
  Te  Te159  1  0.25403906  0.75891610  0.26494358  1
  Te  Te160  1  0.24804095  0.74994319  0.57226302  1
  Te  Te161  1  0.25095798  0.75101229  0.92692875  1
  Te  Te162  1  0.60321285  0.06045954  0.25794526  1
  Te  Te163  1  0.59568132  0.12220071  0.61213497  1
  Te  Te164  1  0.57054602  0.09667412  0.90877480  1
  Te  Te165  1  0.58604290  0.42814920  0.24453017  1
  Te  Te166  1  0.59477591  0.41566268  0.57362699  1
  Te  Te167  1  0.56597186  0.41046952  0.88948025  1
  Te  Te168  1  0.61536221  0.79720724  0.25874420  1
  Te  Te169  1  0.58887637  0.75733873  0.57736310  1
  Te  Te170  1  0.57194378  0.73130426  0.91679010  1
  Te  Te171  1  0.88483177  0.05829719  0.26134922  1
  Te  Te172  1  0.91716963  0.09221876  0.57253253  1
  Te  Te173  1  0.92283151  0.06694348  0.91365563  1
  Te  Te174  1  0.90363540  0.43014077  0.25098345  1
  Te  Te175  1  0.92658657  0.40035939  0.59934450  1
  Te  Te176  1  0.89697378  0.43753338  0.93255783  1
  Te  Te177  1  0.90634237  0.74157392  0.25705842  1
  Te  Te178  1  0.94334729  0.77542340  0.61612793  1
  Te  Te179  1  0.93313859  0.75995839  0.91655038  1
