# generated using pymatgen
data_In2Te3
_symmetry_space_group_name_H-M   'P 1'
_cell_length_a   18.96865629
_cell_length_b   18.94932648
_cell_length_c   18.95936185
_cell_angle_alpha   89.96812418
_cell_angle_beta   89.81471902
_cell_angle_gamma   90.03502557
_symmetry_Int_Tables_number   1
_chemical_formula_structural   In2Te3
_chemical_formula_sum   'In72 Te108'
_cell_volume   6814.77687959
_cell_formula_units_Z   36
loop_
 _symmetry_equiv_pos_site_id
 _symmetry_equiv_pos_as_xyz
  1  'x, y, z'
loop_
 _atom_site_type_symbol
 _atom_site_label
 _atom_site_symmetry_multiplicity
 _atom_site_fract_x
 _atom_site_fract_y
 _atom_site_fract_z
 _atom_site_occupancy
  In  In0  1  0.69100978  0.47004336  0.48753494  1
  In  In1  1  0.00055836  0.00003443  -0.01570939  1
  In  In2  1  0.67756120  0.29854381  0.62436092  1
  In  In3  1  0.47745095  0.50821147  0.67077537  1
  In  In4  1  0.32765618  0.02502645  0.32876123  1
  In  In5  1  0.00859114  0.17747251  0.50484107  1
  In  In6  1  -0.00070277  0.01747047  0.36417819  1
  In  In7  1  0.50765616  0.17006269  0.35529245  1
  In  In8  1  0.82999569  0.84124659  0.69721131  1
  In  In9  1  0.63247688  0.02688676  0.64302557  1
  In  In10  1  0.01475906  0.81855097  0.16446080  1
  In  In11  1  0.40597373  0.83687237  -0.05021992  1
  In  In12  1  0.01806247  0.83392765  0.84271175  1
  In  In13  1  0.86224997  -0.01259136  0.17670872  1
  In  In14  1  0.32283917  0.31320450  -0.03025218  1
  In  In15  1  0.48053447  0.85211179  0.65006362  1
  In  In16  1  0.83318253  0.04317537  0.82163220  1
  In  In17  1  0.02428279  0.33024901  0.34300181  1
  In  In18  1  0.32647984  0.49153430  0.17102820  1
  In  In19  1  0.81806273  0.65495385  0.18901697  1
  In  In20  1  0.84752477  0.45480770  0.62665967  1
  In  In21  1  0.17063487  -0.00123645  0.50263442  1
  In  In22  1  0.17247581  0.66127522  0.86064928  1
  In  In23  1  0.50275040  0.36308869  0.17867846  1
  In  In24  1  0.17569853  0.86268607  0.66290626  1
  In  In25  1  0.49178944  0.14809100  -0.00343853  1
  In  In26  1  0.85743102  0.77359388  0.32828185  1
  In  In27  1  0.17152690  0.84635459  0.32553621  1
  In  In28  1  0.65531308  0.83931317  0.16619370  1
  In  In29  1  0.66409089  0.32018326  -0.00672657  1
  In  In30  1  0.17632511  0.33548072  0.80371223  1
  In  In31  1  0.84833145  0.34784979  0.19611682  1
  In  In32  1  0.34234167  0.69165232  0.33345878  1
  In  In33  1  0.14487638  0.16725216  0.01843225  1
  In  In34  1  0.32112772  0.35036673  0.65210407  1
  In  In35  1  -0.00281628  0.32665331  -0.00791813  1
  In  In36  1  0.49889530  0.33302525  0.49978135  1
  In  In37  1  0.16989655  0.15663223  0.65604409  1
  In  In38  1  0.36451330  0.10623587  0.82405126  1
  In  In39  1  0.15164689  0.51161680  0.33463532  1
  In  In40  1  0.67961799  0.65153885  0.65119219  1
  In  In41  1  0.32370075  0.16855796  0.16237774  1
  In  In42  1  0.14941693  0.49165246  0.65291206  1
  In  In43  1  0.32504558  0.66001045  0.66286540  1
  In  In44  1  0.83808053  0.47126901  -0.00704723  1
  In  In45  1  0.16957402  0.02748588  0.81736271  1
  In  In46  1  0.82136679  0.82526887  -0.03977671  1
  In  In47  1  -0.01588823  0.18915105  0.18750090  1
  In  In48  1  0.34997938  0.65559900  0.01643918  1
  In  In49  1  0.84869351  0.02550216  0.50863268  1
  In  In50  1  0.50965384  0.68492516  0.82923589  1
  In  In51  1  0.51991793  0.50185372  -0.01041830  1
  In  In52  1  0.14348086  0.48316164  0.00180131  1
  In  In53  1  0.49821080  0.50866035  0.33888102  1
  In  In54  1  0.67596933  0.52591036  0.18847957  1
  In  In55  1  0.65276998  0.16520461  0.80506974  1
  In  In56  1  0.69372674  0.18068693  0.16250767  1
  In  In57  1  0.67498326  0.01229507  0.00740576  1
  In  In58  1  0.63775518  0.68850841  -0.00996415  1
  In  In59  1  0.48705713  0.03336932  0.18816585  1
  In  In60  1  0.17655944  0.65458723  0.51521880  1
  In  In61  1  0.52079069  0.83861200  0.35000808  1
  In  In62  1  0.69319853  0.47197242  0.82554760  1
  In  In63  1  0.01347131  0.65965113  0.02616788  1
  In  In64  1  0.67836089  0.65864779  0.34099035  1
  In  In65  1  0.67840224  -0.00630049  0.37056890  1
  In  In66  1  0.31210912  0.84397512  0.15723760  1
  In  In67  1  -0.00031212  0.64857385  0.68315588  1
  In  In68  1  0.64273927  0.84822145  0.51996083  1
  In  In69  1  -0.00686959  0.81747716  0.50621381  1
  In  In70  1  0.30973642  0.31349678  0.34989790  1
  In  In71  1  0.81545228  0.64763201  0.81471552  1
  Te  Te72  1  0.05410405  0.07896348  0.10077934  1
  Te  Te73  1  0.11167093  0.10666218  0.41371162  1
  Te  Te74  1  0.06480721  0.09370172  0.73946779  1
  Te  Te75  1  0.05546026  0.41365399  0.09728955  1
  Te  Te76  1  0.12032536  0.40214721  0.43214851  1
  Te  Te77  1  0.06151123  0.41007011  0.74365249  1
  Te  Te78  1  0.11303089  0.76616346  0.06218193  1
  Te  Te79  1  0.10140848  0.75214246  0.42405184  1
  Te  Te80  1  0.10099035  0.74678565  0.74475917  1
  Te  Te81  1  0.39223459  0.06323449  0.07382278  1
  Te  Te82  1  0.38868507  0.11629634  0.43178109  1
  Te  Te83  1  0.45950750  0.06645385  0.70668228  1
  Te  Te84  1  0.41400333  0.41033386  0.06352035  1
  Te  Te85  1  0.40516331  0.41435771  0.41277999  1
  Te  Te86  1  0.39846863  0.42089925  0.75556331  1
  Te  Te87  1  0.42359356  0.76863366  0.08648471  1
  Te  Te88  1  0.42907161  0.75781021  0.43028446  1
  Te  Te89  1  0.40686341  0.75678924  0.74599389  1
  Te  Te90  1  0.78271675  0.08195328  0.08671197  1
  Te  Te91  1  0.73813452  0.10129943  0.45031158  1
  Te  Te92  1  0.74982727  0.10002266  0.70757119  1
  Te  Te93  1  0.72811985  0.41821371  0.08890748  1
  Te  Te94  1  0.81661399  0.38903088  0.46379599  1
  Te  Te95  1  0.75929614  0.37971001  0.72829364  1
  Te  Te96  1  0.75070761  0.75351442  0.08116455  1
  Te  Te97  1  0.73483551  0.77065145  0.42292655  1
  Te  Te98  1  0.72363136  0.75346152  0.76068743  1
  Te  Te99  1  0.10161039  0.23695219  0.25855934  1
  Te  Te100  1  0.08877103  0.26837847  0.59450661  1
  Te  Te101  1  0.09369765  0.25096413  0.90265718  1
  Te  Te102  1  0.08375042  0.57106790  0.21840695  1
  Te  Te103  1  0.05540196  0.57595989  0.56276007  1
  Te  Te104  1  0.05987803  0.57187547  0.91003143  1
  Te  Te105  1  0.06575720  0.92800916  0.25623926  1
  Te  Te106  1  0.06257361  0.92671431  0.58478908  1
  Te  Te107  1  0.11266600  0.92123991  0.92043719  1
  Te  Te108  1  0.42301496  0.25303296  0.24908760  1
  Te  Te109  1  0.41388594  0.25049988  0.58965027  1
  Te  Te110  1  0.42474619  0.23408201  0.89235223  1
  Te  Te111  1  0.41684831  0.58932241  0.24097344  1
  Te  Te112  1  0.39933474  0.57581553  0.56923149  1
  Te  Te113  1  0.42454030  0.58329129  0.90491767  1
  Te  Te114  1  0.42002751  0.91551557  0.25710155  1
  Te  Te115  1  0.39463503  0.96252316  0.60152051  1
  Te  Te116  1  0.39302061  0.96044517  0.87073899  1
  Te  Te117  1  0.74895543  0.26637805  0.26656617  1
  Te  Te118  1  0.79799677  0.26173872  0.54459593  1
  Te  Te119  1  0.74431729  0.22336549  0.91322161  1
  Te  Te120  1  0.78048930  0.55172947  0.29625043  1
  Te  Te121  1  0.77365059  0.57665324  0.56114734  1
  Te  Te122  1  0.73640215  0.58126731  0.93258809  1
  Te  Te123  1  0.74902951  0.91984141  0.25319275  1
  Te  Te124  1  0.76316183  0.91801462  0.58478098  1
  Te  Te125  1  0.74532047  0.93581836  0.89540233  1
  Te  Te126  1  0.23790419  0.26856566  0.08608790  1
  Te  Te127  1  0.26722321  0.20912512  0.44138018  1
  Te  Te128  1  0.26958639  0.23131676  0.74527540  1
  Te  Te129  1  0.23852984  0.57558626  0.08100909  1
  Te  Te130  1  0.26145892  0.58624116  0.40998272  1
  Te  Te131  1  0.23260182  0.57657994  0.74921927  1
  Te  Te132  1  0.20308848  0.89468983  0.07682850  1
  Te  Te133  1  0.26744858  0.91687757  0.41816934  1
  Te  Te134  1  0.26233351  0.92068956  0.76727745  1
  Te  Te135  1  0.56607492  0.24294952  0.09051944  1
  Te  Te136  1  0.60045998  0.26238756  0.41956052  1
  Te  Te137  1  0.57093429  0.25402381  0.71910803  1
  Te  Te138  1  0.57646950  0.59512120  0.09394947  1
  Te  Te139  1  0.59236296  0.57654456  0.43558212  1
  Te  Te140  1  0.59820520  0.57762372  0.76097722  1
  Te  Te141  1  0.57245150  0.94209341  0.09439576  1
  Te  Te142  1  0.55515555  0.95087325  0.44799860  1
  Te  Te143  1  0.58517222  0.91878792  0.72898322  1
  Te  Te144  1  0.89614135  0.25734046  0.08440745  1
  Te  Te145  1  0.91434615  0.25822639  0.41968634  1
  Te  Te146  1  0.87414838  0.22652608  0.82639420  1
  Te  Te147  1  0.89951679  0.57609266  0.08401882  1
  Te  Te148  1  0.91401011  0.65058063  0.37954062  1
  Te  Te149  1  0.89987158  0.55016120  0.74082750  1
  Te  Te150  1  0.91699959  0.89058018  0.06266782  1
  Te  Te151  1  0.91001432  0.89969206  0.40795526  1
  Te  Te152  1  0.92865644  0.93019002  0.76864527  1
  Te  Te153  1  0.23511930  0.07162148  0.22684356  1
  Te  Te154  1  0.26737732  0.05379041  0.60330772  1
  Te  Te155  1  0.24518274  0.09987602  0.92695800  1
  Te  Te156  1  0.23633211  0.40581196  0.25355777  1
  Te  Te157  1  0.23148539  0.41638751  0.55390729  1
  Te  Te158  1  0.24650709  0.42650768  0.90465146  1
  Te  Te159  1  0.23488001  0.73950490  0.23836119  1
  Te  Te160  1  0.25737464  0.76765966  0.57749266  1
  Te  Te161  1  0.27768932  0.74981636  0.92157201  1
  Te  Te162  1  0.60935784  0.08694572  0.25983951  1
  Te  Te163  1  0.53945315  0.13388063  0.59750904  1
  Te  Te164  1  0.58128812  0.06992248  0.90294240  1
  Te  Te165  1  0.60301935  0.41912715  0.27437461  1
  Te  Te166  1  0.58970895  0.42781079  0.59329212  1
  Te  Te167  1  0.57874739  0.39782987  0.89553458  1
  Te  Te168  1  0.58283739  0.73891071  0.25255986  1
  Te  Te169  1  0.57035969  0.73613165  0.59114231  1
  Te  Te170  1  0.55695597  0.79515064  0.92341596  1
  Te  Te171  1  0.90062360  0.09275638  0.27725624  1
  Te  Te172  1  0.93605032  0.09434225  0.60400982  1
  Te  Te173  1  0.93030088  0.11364172  0.91383716  1
  Te  Te174  1  0.95724023  0.42915989  0.25214778  1
  Te  Te175  1  0.97153114  0.37038545  0.61680828  1
  Te  Te176  1  0.90212597  0.38504005  0.89191500  1
  Te  Te177  1  0.99442507  0.69115468  0.24891936  1
  Te  Te178  1  0.90692582  0.74398564  0.60783792  1
  Te  Te179  1  0.92119784  0.72752915  0.89900406  1
