# generated using pymatgen
data_In2Te3
_symmetry_space_group_name_H-M   'P 1'
_cell_length_a   18.82096364
_cell_length_b   18.81096742
_cell_length_c   18.81514898
_cell_angle_alpha   90.07653501
_cell_angle_beta   89.94431510
_cell_angle_gamma   89.98439358
_symmetry_Int_Tables_number   1
_chemical_formula_structural   In2Te3
_chemical_formula_sum   'In72 Te108'
_cell_volume   6661.31605137
_cell_formula_units_Z   36
loop_
 _symmetry_equiv_pos_site_id
 _symmetry_equiv_pos_as_xyz
  1  'x, y, z'
loop_
 _atom_site_type_symbol
 _atom_site_label
 _atom_site_symmetry_multiplicity
 _atom_site_fract_x
 _atom_site_fract_y
 _atom_site_fract_z
 _atom_site_occupancy
  In  In0  1  0.66502908  0.83171384  0.51952485  1
  In  In1  1  0.51197334  0.00100065  0.52548315  1
  In  In2  1  0.32839209  0.82537523  0.15891662  1
  In  In3  1  0.20161029  0.81667406  0.64032313  1
  In  In4  1  0.81898754  0.02259896  0.82018327  1
  In  In5  1  -0.02930940  0.18030718  0.16807633  1
  In  In6  1  0.49030755  0.49109184  0.31663717  1
  In  In7  1  0.18038908  0.49545301  0.66119175  1
  In  In8  1  0.65820670  0.17690469  0.17616097  1
  In  In9  1  0.15264564  0.31913459  0.17550551  1
  In  In10  1  -0.03567081  0.48477559  0.85149991  1
  In  In11  1  0.82045794  0.86416854  -0.00247133  1
  In  In12  1  -0.00036747  0.68162796  0.01407917  1
  In  In13  1  0.79935032  0.70261732  0.80297173  1
  In  In14  1  0.67302890  0.30933238  0.66362628  1
  In  In15  1  0.36290666  0.68219182  -0.01487402  1
  In  In16  1  0.66454252  0.83294994  0.14824820  1
  In  In17  1  0.16546302  0.64008208  0.82505265  1
  In  In18  1  0.01390233  0.67865348  0.33670787  1
  In  In19  1  0.63757246  0.65896104  -0.00204905  1
  In  In20  1  0.81076263  0.33307135  0.52131203  1
  In  In21  1  0.49814609  0.32681208  0.16077066  1
  In  In22  1  0.66315126  0.01071490  -0.00522956  1
  In  In23  1  0.00111715  0.50405956  0.48526878  1
  In  In24  1  0.81817541  0.48290392  0.33080236  1
  In  In25  1  0.35168770  -0.00477618  0.67138699  1
  In  In26  1  0.16295011  0.47219897  0.02814389  1
  In  In27  1  0.82248419  0.54349105  0.65238018  1
  In  In28  1  0.01253011  0.31681010  0.65558822  1
  In  In29  1  0.49016182  0.66475851  0.49510742  1
  In  In30  1  0.33105065  0.31913592  0.33871655  1
  In  In31  1  0.50901098  0.69697250  0.81073993  1
  In  In32  1  0.86457959  0.86156826  0.35263616  1
  In  In33  1  0.15874422  0.02118519  0.82296235  1
  In  In34  1  0.51337916  0.31664097  0.47668424  1
  In  In35  1  0.65419536  0.50216588  0.84582163  1
  In  In36  1  0.16590271  0.00267633  0.49899977  1
  In  In37  1  0.84079306  -0.01043427  0.16938182  1
  In  In38  1  0.66961269  0.31991564  -0.00214167  1
  In  In39  1  0.50200871  0.50136667  0.66299626  1
  In  In40  1  0.65744366  0.16980593  0.83519547  1
  In  In41  1  0.17113549  0.83638861  -0.01232274  1
  In  In42  1  0.01811876  0.15433516  0.50400741  1
  In  In43  1  0.36476640  0.15455616  0.81687786  1
  In  In44  1  0.34508858  0.50812169  0.16645149  1
  In  In45  1  0.17667231  0.15585937  0.00781838  1
  In  In46  1  0.82912379  0.66854034  0.19286587  1
  In  In47  1  0.35379404  0.34509164  0.00337905  1
  In  In48  1  0.81213291  0.18023349  0.65881060  1
  In  In49  1  0.81514461  0.16139793  0.34621162  1
  In  In50  1  0.38210352  0.86802151  0.83634816  1
  In  In51  1  0.65851746  0.02791497  0.32907983  1
  In  In52  1  0.17253063  0.31421795  0.82779036  1
  In  In53  1  0.66196880  0.66445560  0.33413311  1
  In  In54  1  0.33633129  0.51868609  0.81513364  1
  In  In55  1  0.34238769  0.01117135  0.33855418  1
  In  In56  1  0.18020491  0.52818399  0.35284554  1
  In  In57  1  0.16262954  0.64928068  0.17929227  1
  In  In58  1  0.82685796  0.67877537  0.52756377  1
  In  In59  1  0.49406809  0.81786435  0.32783723  1
  In  In60  1  0.17164863  0.83670288  0.35354852  1
  In  In61  1  -0.00803589  0.34431203  0.33494350  1
  In  In62  1  0.36780690  0.13694132  0.15591222  1
  In  In63  1  0.34558009  0.33950123  0.64822095  1
  In  In64  1  -0.00604209  0.00721584  0.67685583  1
  In  In65  1  -0.01336707  0.15919349  0.85597085  1
  In  In66  1  0.33944880  0.16253423  0.50258315  1
  In  In67  1  0.00983993  0.84511292  0.83253755  1
  In  In68  1  0.16719813  -0.00369471  0.18102531  1
  In  In69  1  -0.01681995  0.69001529  0.63974427  1
  In  In70  1  0.80735746  0.34170268  0.85164425  1
  In  In71  1  0.80819043  0.49862018  0.02473213  1
  Te  Te72  1  0.07609872  0.08745306  0.09689248  1
  Te  Te73  1  0.07750368  0.06676780  0.39969110  1
  Te  Te74  1  0.07817222  0.11832082  0.73912037  1
  Te  Te75  1  0.05617861  0.40616727  0.10382972  1
  Te  Te76  1  0.10131075  0.41205855  0.41928204  1
  Te  Te77  1  0.07965748  0.41986791  0.75914885  1
  Te  Te78  1  0.09598086  0.76309762  0.09933826  1
  Te  Te79  1  0.08664300  0.75090913  0.44144440  1
  Te  Te80  1  0.08802393  0.74870480  0.74277951  1
  Te  Te81  1  0.42227916  0.05850007  0.04520098  1
  Te  Te82  1  0.44477482  0.08986698  0.41888580  1
  Te  Te83  1  0.45993291  0.05554790  0.75499742  1
  Te  Te84  1  0.45032538  0.45163358  0.06897202  1
  Te  Te85  1  0.40965296  0.41612805  0.42499736  1
  Te  Te86  1  0.42433551  0.40894009  0.75872509  1
  Te  Te87  1  0.43814092  0.76180060  0.08178121  1
  Te  Te88  1  0.39439366  0.75229771  0.41759553  1
  Te  Te89  1  0.40562824  0.76757960  0.73085148  1
  Te  Te90  1  0.75348919  0.08624995  0.09271111  1
  Te  Te91  1  0.76684325  0.04612666  0.42668492  1
  Te  Te92  1  0.71113149  0.07401937  0.71692800  1
  Te  Te93  1  0.72555254  0.40672966  0.10360272  1
  Te  Te94  1  0.73045495  0.41361425  0.42821911  1
  Te  Te95  1  0.75407627  0.42801497  0.73762081  1
  Te  Te96  1  0.75988511  0.73762040  0.07198141  1
  Te  Te97  1  0.75582814  0.75936372  0.40665079  1
  Te  Te98  1  0.72048591  0.77750498  0.69549356  1
  Te  Te99  1  0.07434311  0.23217827  0.27078700  1
  Te  Te100  1  0.10994055  0.25424694  0.56571565  1
  Te  Te101  1  0.08277502  0.25166531  0.93304518  1
  Te  Te102  1  0.06534479  0.56050372  0.25451022  1
  Te  Te103  1  0.08121512  0.58834406  0.58301150  1
  Te  Te104  1  0.07523119  0.57459250  0.93099964  1
  Te  Te105  1  0.07986044  0.91867469  0.27145309  1
  Te  Te106  1  0.09231578  0.91542042  0.60046398  1
  Te  Te107  1  0.07840353  0.94236091  0.92720423  1
  Te  Te108  1  0.42885550  0.23375094  0.25987925  1
  Te  Te109  1  0.44140530  0.23699299  0.58791687  1
  Te  Te110  1  0.42259129  0.24656310  0.91906192  1
  Te  Te111  1  0.41007163  0.60155490  0.25878779  1
  Te  Te112  1  0.40518310  0.57190749  0.57658082  1
  Te  Te113  1  0.44287965  0.58605826  0.89925981  1
  Te  Te114  1  0.41791317  0.91991299  0.24291917  1
  Te  Te115  1  0.43037371  0.89479882  0.59232231  1
  Te  Te116  1  0.44527023  0.93517865  0.95057397  1
  Te  Te117  1  0.75236130  0.25955125  0.25626068  1
  Te  Te118  1  0.70145615  0.21341191  0.53659535  1
  Te  Te119  1  0.76440222  0.21825492  0.93018150  1
  Te  Te120  1  0.72653211  0.56614349  0.23649021  1
  Te  Te121  1  0.71444352  0.59043711  0.56444544  1
  Te  Te122  1  0.76481266  0.58743405  0.90740724  1
  Te  Te123  1  0.74415462  0.90601165  0.25589178  1
  Te  Te124  1  0.72349539  0.91681213  0.62696419  1
  Te  Te125  1  0.72947189  0.91147108  0.88418981  1
  Te  Te126  1  0.26523150  0.25417538  0.09082570  1
  Te  Te127  1  0.24182523  0.23233651  0.41655412  1
  Te  Te128  1  0.26400132  0.24000567  0.73554597  1
  Te  Te129  1  0.25279072  0.59399416  0.06488360  1
  Te  Te130  1  0.26321252  0.60565284  0.44454069  1
  Te  Te131  1  0.26837045  0.60973028  0.71473892  1
  Te  Te132  1  0.25529843  0.92958827  0.07410817  1
  Te  Te133  1  0.27538127  0.91742402  0.43605212  1
  Te  Te134  1  0.24487851  0.91313717  0.75818580  1
  Te  Te135  1  0.56517723  0.22920574  0.06496494  1
  Te  Te136  1  0.62329970  0.24478685  0.40826414  1
  Te  Te137  1  0.57182151  0.26564535  0.76200404  1
  Te  Te138  1  0.56178503  0.56310954  0.07386831  1
  Te  Te139  1  0.58051397  0.56813699  0.41671152  1
  Te  Te140  1  0.59783623  0.59472841  0.73905764  1
  Te  Te141  1  0.57320995  0.93005718  0.08302503  1
  Te  Te142  1  0.58242757  0.91146473  0.40925205  1
  Te  Te143  1  0.61619598  0.85649017  0.77345592  1
  Te  Te144  1  0.91493669  0.27001698  0.06749050  1
  Te  Te145  1  0.91400963  0.25603950  0.43846871  1
  Te  Te146  1  0.90562302  0.25728770  0.75513396  1
  Te  Te147  1  0.91549009  0.58485974  0.09641165  1
  Te  Te148  1  0.90027695  0.59306060  0.41326286  1
  Te  Te149  1  0.92430497  0.60034349  0.75471541  1
  Te  Te150  1  0.92944065  0.90533842  0.08574279  1
  Te  Te151  1  0.92398605  0.92198123  0.47114350  1
  Te  Te152  1  0.90130548  0.91115051  0.74921066  1
  Te  Te153  1  0.25433844  0.09992259  0.25210640  1
  Te  Te154  1  0.25155353  0.08187763  0.59846038  1
  Te  Te155  1  0.26699477  0.07928944  0.91226820  1
  Te  Te156  1  0.24966546  0.42060686  0.24683041  1
  Te  Te157  1  0.25025298  0.41236103  0.56269429  1
  Te  Te158  1  0.25240953  0.42512951  0.90644496  1
  Te  Te159  1  0.25152975  0.74107057  0.26065700  1
  Te  Te160  1  0.26427253  0.73695013  0.53150083  1
  Te  Te161  1  0.25369354  0.74577123  0.89706366  1
  Te  Te162  1  0.56254860  0.07652673  0.23017658  1
  Te  Te163  1  0.60257804  0.08681587  0.60298295  1
  Te  Te164  1  0.56773928  0.06167132  0.88939931  1
  Te  Te165  1  0.58527632  0.39283213  0.25935771  1
  Te  Te166  1  0.58702562  0.40602673  0.57989464  1
  Te  Te167  1  0.57903945  0.38874765  0.90031589  1
  Te  Te168  1  0.57756077  0.73553438  0.22925941  1
  Te  Te169  1  0.54894315  0.76658732  0.58940009  1
  Te  Te170  1  0.59576396  0.77233026  0.91018982  1
  Te  Te171  1  0.91618046  0.07601648  0.26869805  1
  Te  Te172  1  0.90154619  0.08393738  0.58152324  1
  Te  Te173  1  0.90751563  0.06137673  0.93207960  1
  Te  Te174  1  0.89880445  0.40176316  0.23639163  1
  Te  Te175  1  0.92140367  0.42676714  0.59302008  1
  Te  Te176  1  0.90959346  0.38694592  0.96071396  1
  Te  Te177  1  0.92941310  0.76990920  0.24783282  1
  Te  Te178  1  0.90998316  0.79987877  0.56799612  1
  Te  Te179  1  0.91284037  0.75657729  0.91273150  1
