# generated using pymatgen
data_In2Te3
_symmetry_space_group_name_H-M   'P 1'
_cell_length_a   19.01678052
_cell_length_b   19.00791894
_cell_length_c   19.01032743
_cell_angle_alpha   89.88382537
_cell_angle_beta   89.89989509
_cell_angle_gamma   89.87989029
_symmetry_Int_Tables_number   1
_chemical_formula_structural   In2Te3
_chemical_formula_sum   'In72 Te108'
_cell_volume   6871.61242000
_cell_formula_units_Z   36
loop_
 _symmetry_equiv_pos_site_id
 _symmetry_equiv_pos_as_xyz
  1  'x, y, z'
loop_
 _atom_site_type_symbol
 _atom_site_label
 _atom_site_symmetry_multiplicity
 _atom_site_fract_x
 _atom_site_fract_y
 _atom_site_fract_z
 _atom_site_occupancy
  In  In0  1  0.16887557  0.32237667  0.47349295  1
  In  In1  1  0.02047206  0.14706370  0.15810920  1
  In  In2  1  0.83524194  0.84312488  -0.00543394  1
  In  In3  1  0.17576128  -0.00392947  0.82075572  1
  In  In4  1  0.84118511  0.15881487  0.35322379  1
  In  In5  1  0.50897017  0.48892393  -0.00224725  1
  In  In6  1  -0.01488112  0.65944470  0.69070151  1
  In  In7  1  0.64825944  0.32636870  0.33607637  1
  In  In8  1  0.16640094  0.50521363  0.02758040  1
  In  In9  1  0.14488737  0.31794186  0.84138922  1
  In  In10  1  0.33719293  0.18114634  0.81943852  1
  In  In11  1  0.84777536  0.17484172  0.00626975  1
  In  In12  1  0.00603653  0.81186346  0.50665379  1
  In  In13  1  0.68995036  0.16988363  0.81891150  1
  In  In14  1  0.66782094  0.47703496  0.50769320  1
  In  In15  1  0.33405354  0.83862327  0.82431104  1
  In  In16  1  0.79368415  0.33839389  0.15964236  1
  In  In17  1  0.15888639  0.68297546  0.85057428  1
  In  In18  1  -0.01868853  0.48243266  0.14276222  1
  In  In19  1  0.03471343  -0.00607687  0.63571402  1
  In  In20  1  0.67932315  0.49807960  0.83948625  1
  In  In21  1  0.02113532  0.01469528  0.01229634  1
  In  In22  1  0.84196067  -0.00419376  0.80582889  1
  In  In23  1  0.13945682  0.53359911  0.34190292  1
  In  In24  1  0.64948627  0.65173343  0.00311069  1
  In  In25  1  0.00914088  0.84324860  0.83020290  1
  In  In26  1  0.34941262  0.33409229  0.31278910  1
  In  In27  1  0.33466988  0.87371173  0.17721990  1
  In  In28  1  0.29268713  0.53816196  0.48698155  1
  In  In29  1  0.64354188  0.33160735  0.64863657  1
  In  In30  1  0.65741997  0.01017210  0.33774253  1
  In  In31  1  0.85037320  0.35690467  0.84785033  1
  In  In32  1  0.17055193  0.15170144  0.66792827  1
  In  In33  1  0.46499813  0.65891876  0.49452136  1
  In  In34  1  0.00800020  0.68171396  0.02347521  1
  In  In35  1  0.31311886  0.31173218  0.00518962  1
  In  In36  1  0.83071586  0.52150161  0.67468051  1
  In  In37  1  0.67573461  0.72341128  0.65314326  1
  In  In38  1  0.16596132  0.15799483  -0.00077092  1
  In  In39  1  0.50442291  -0.00061150  0.81873656  1
  In  In40  1  0.01466594  0.15218626  0.48207109  1
  In  In41  1  0.50549607  0.68653740  0.19796884  1
  In  In42  1  0.68208156  -0.00391169  -0.01705167  1
  In  In43  1  0.81622976  0.00658266  0.17495109  1
  In  In44  1  0.49579902  0.49512164  0.32567445  1
  In  In45  1  0.33898136  -0.01260152  0.64045121  1
  In  In46  1  0.48675344  0.01530023  0.17156491  1
  In  In47  1  0.49154321  0.48279782  0.64165821  1
  In  In48  1  0.17046701  0.67213379  0.18322793  1
  In  In49  1  0.66227864  0.82621718  0.19034483  1
  In  In50  1  0.49858981  0.33052944  0.79733707  1
  In  In51  1  -0.01243786  0.34678920  0.66597413  1
  In  In52  1  0.50619335  0.82974817  -0.00365098  1
  In  In53  1  0.49261713  0.84485174  0.64221804  1
  In  In54  1  0.16134652  0.49735340  0.67035805  1
  In  In55  1  0.01634921  0.83131029  0.18741144  1
  In  In56  1  0.37182640  0.17648676  0.49352363  1
  In  In57  1  0.02498708  -0.02530826  0.34798587  1
  In  In58  1  0.54129749  0.20646615  0.12636452  1
  In  In59  1  0.32599419  0.81222290  0.51469216  1
  In  In60  1  0.73204855  0.66677317  0.35347808  1
  In  In61  1  0.34049850  0.50727466  0.17582946  1
  In  In62  1  0.35267908  -0.01629434  0.35668017  1
  In  In63  1  0.17959623  0.31903101  0.17271006  1
  In  In64  1  0.83171851  0.65992114  0.17853777  1
  In  In65  1  0.77598274  -0.09290521  0.50179109  1
  In  In66  1  0.83176760  0.18828183  0.65445345  1
  In  In67  1  -0.00710078  0.33449408  0.31444170  1
  In  In68  1  0.50219459  0.66809973  0.81925055  1
  In  In69  1  0.64071923  0.15649368  0.49678748  1
  In  In70  1  0.34271784  0.51215213  0.84250858  1
  In  In71  1  -0.03929559  0.53872463  0.49167804  1
  Te  Te72  1  0.11178542  0.03096387  0.13073959  1
  Te  Te73  1  0.11118462  0.07950757  0.40164068  1
  Te  Te74  1  0.07091238  0.08397893  0.75737862  1
  Te  Te75  1  0.08405556  0.38896250  0.07844136  1
  Te  Te76  1  0.06757833  0.42499128  0.41994018  1
  Te  Te77  1  0.06746782  0.42548007  0.76729614  1
  Te  Te78  1  0.10885767  0.77541214  0.08316976  1
  Te  Te79  1  0.06649934  0.73814488  0.39337398  1
  Te  Te80  1  0.09116865  0.75697095  0.73649234  1
  Te  Te81  1  0.45562061  0.10633367  0.06201322  1
  Te  Te82  1  0.43907224  0.10215104  0.38465465  1
  Te  Te83  1  0.41302201  0.08334017  0.73188220  1
  Te  Te84  1  0.40389313  0.41207389  0.07716600  1
  Te  Te85  1  0.38677937  0.43690661  0.41385958  1
  Te  Te86  1  0.39093528  0.41614641  0.73634168  1
  Te  Te87  1  0.42103203  0.76419798  0.10000278  1
  Te  Te88  1  0.41031471  0.76183923  0.40658983  1
  Te  Te89  1  0.41080688  0.74812260  0.73017185  1
  Te  Te90  1  0.74088692  0.09670125  0.08019987  1
  Te  Te91  1  0.75927906  0.06902859  0.44112294  1
  Te  Te92  1  0.74911020  0.07612128  0.71651913  1
  Te  Te93  1  0.74463950  0.42798817  0.04985876  1
  Te  Te94  1  0.74549175  0.41174128  0.40510705  1
  Te  Te95  1  0.74646813  0.39766366  0.73752470  1
  Te  Te96  1  0.74145501  0.75710766  0.07824107  1
  Te  Te97  1  0.78316465  0.76428965  0.45798697  1
  Te  Te98  1  0.80821137  0.74972292  0.71356871  1
  Te  Te99  1  0.09218021  0.23288641  0.26149463  1
  Te  Te100  1  0.08252836  0.25535900  0.58693875  1
  Te  Te101  1  0.06426795  0.23835864  0.93384213  1
  Te  Te102  1  0.05381046  0.58721144  0.23088537  1
  Te  Te103  1  0.06746578  0.58391434  0.58631525  1
  Te  Te104  1  0.07836315  0.58147317  0.93297497  1
  Te  Te105  1  0.11020695  0.85610962  0.30482063  1
  Te  Te106  1  0.11456137  0.90674837  0.54807077  1
  Te  Te107  1  0.09995605  0.91732287  0.92536640  1
  Te  Te108  1  0.42653214  0.26022171  0.21542249  1
  Te  Te109  1  0.43748764  0.26204515  0.58912383  1
  Te  Te110  1  0.42256292  0.26058981  0.91348075  1
  Te  Te111  1  0.40153757  0.60374787  0.27312823  1
  Te  Te112  1  0.38640975  0.58372871  0.59884944  1
  Te  Te113  1  0.42576959  0.60031207  0.93142873  1
  Te  Te114  1  0.45517731  0.90961085  0.27139427  1
  Te  Te115  1  0.45123633  0.95732882  0.54498050  1
  Te  Te116  1  0.41742893  0.92425900  0.91811053  1
  Te  Te117  1  0.74876642  0.23285459  0.26387898  1
  Te  Te118  1  0.73898486  0.25694794  0.55746416  1
  Te  Te119  1  0.75505694  0.25775884  0.92079457  1
  Te  Te120  1  0.72524470  0.57949842  0.23683481  1
  Te  Te121  1  0.72281794  0.58725007  0.59305274  1
  Te  Te122  1  0.74876873  0.60755343  0.90539277  1
  Te  Te123  1  0.75727188  0.90914051  0.27339207  1
  Te  Te124  1  0.72910803  0.86796225  0.64110306  1
  Te  Te125  1  0.75070853  0.90332025  0.88462770  1
  Te  Te126  1  0.25950391  0.20957660  0.10488516  1
  Te  Te127  1  0.26521790  0.23917571  0.39453687  1
  Te  Te128  1  0.24169233  0.26517927  0.73772432  1
  Te  Te129  1  0.26551522  0.60134962  0.08374322  1
  Te  Te130  1  0.20691078  0.64506274  0.41786931  1
  Te  Te131  1  0.24194551  0.58931408  0.76031918  1
  Te  Te132  1  0.26179659  0.96384266  0.08492273  1
  Te  Te133  1  0.25022793  0.91842763  0.44416201  1
  Te  Te134  1  0.24225948  0.90449819  0.72091670  1
  Te  Te135  1  0.64281568  0.31973096  0.10721229  1
  Te  Te136  1  0.55672774  0.22352185  0.39469412  1
  Te  Te137  1  0.57800528  0.22136642  0.72894062  1
  Te  Te138  1  0.56662639  0.57884194  0.10599924  1
  Te  Te139  1  0.57175717  0.56792606  0.43288171  1
  Te  Te140  1  0.57408138  0.55854280  0.74354372  1
  Te  Te141  1  0.59752843  0.91606989  0.08313133  1
  Te  Te142  1  0.60569137  0.93876215  0.45780315  1
  Te  Te143  1  0.58541580  0.90506174  0.74062694  1
  Te  Te144  1  0.91629451  0.24749658  0.11750466  1
  Te  Te145  1  0.92274633  0.26088231  0.42763489  1
  Te  Te146  1  0.91895712  0.25022392  0.76129501  1
  Te  Te147  1  0.89884234  0.58390649  0.06527673  1
  Te  Te148  1  0.86461756  0.60765065  0.40888406  1
  Te  Te149  1  0.91604149  0.56792128  0.78277029  1
  Te  Te150  1  0.91670632  0.92621596  0.09075716  1
  Te  Te151  1  0.92010061  0.92066731  0.44125766  1
  Te  Te152  1  0.93470900  0.91362169  0.71914922  1
  Te  Te153  1  0.27545771  0.01296659  0.22834902  1
  Te  Te154  1  0.26022221  0.09370631  0.56574692  1
  Te  Te155  1  0.26140211  0.08442616  0.90837230  1
  Te  Te156  1  0.22594936  0.43687180  0.25557788  1
  Te  Te157  1  0.24043282  0.41702751  0.56712216  1
  Te  Te158  1  0.24308219  0.41784929  0.91797376  1
  Te  Te159  1  0.25285103  0.77269439  0.25149053  1
  Te  Te160  1  0.24145009  0.70062692  0.55917189  1
  Te  Te161  1  0.25915971  0.76034359  0.92192988  1
  Te  Te162  1  0.59883754  0.09677920  0.22894020  1
  Te  Te163  1  0.57939626  0.04227504  0.56916985  1
  Te  Te164  1  0.59296616  0.08969908  0.90432931  1
  Te  Te165  1  0.57092953  0.40560811  0.23518434  1
  Te  Te166  1  0.53708890  0.37168703  0.54585679  1
  Te  Te167  1  0.58478384  0.39817737  0.90284677  1
  Te  Te168  1  0.60428541  0.74072042  0.29846982  1
  Te  Te169  1  0.57108919  0.75553191  0.54912815  1
  Te  Te170  1  0.59515397  0.75488503  0.90014656  1
  Te  Te171  1  0.92556381  0.06912990  0.26096595  1
  Te  Te172  1  0.92536005  0.08863184  0.58545965  1
  Te  Te173  1  0.91289141  0.06905765  0.91839692  1
  Te  Te174  1  0.89222253  0.42538073  0.24932648  1
  Te  Te175  1  0.89725272  0.42740156  0.57569194  1
  Te  Te176  1  0.87859209  0.41500123  0.97892416  1
  Te  Te177  1  0.90679582  0.76156999  0.25321074  1
  Te  Te178  1  0.90205203  0.73561709  0.58899155  1
  Te  Te179  1  0.92479891  0.75126505  0.91520689  1
