# generated using pymatgen
data_In2Te3
_symmetry_space_group_name_H-M   'P 1'
_cell_length_a   18.86807363
_cell_length_b   18.86917473
_cell_length_c   18.86360764
_cell_angle_alpha   89.98566278
_cell_angle_beta   89.97006820
_cell_angle_gamma   89.93308501
_symmetry_Int_Tables_number   1
_chemical_formula_structural   In2Te3
_chemical_formula_sum   'In72 Te108'
_cell_volume   6715.90979282
_cell_formula_units_Z   36
loop_
 _symmetry_equiv_pos_site_id
 _symmetry_equiv_pos_as_xyz
  1  'x, y, z'
loop_
 _atom_site_type_symbol
 _atom_site_label
 _atom_site_symmetry_multiplicity
 _atom_site_fract_x
 _atom_site_fract_y
 _atom_site_fract_z
 _atom_site_occupancy
  In  In0  1  0.32289872  0.01335490  0.67811385  1
  In  In1  1  0.16827584  0.13823596  0.67501968  1
  In  In2  1  -0.08548796  0.12908640  0.09519075  1
  In  In3  1  0.15492866  0.83614005  0.30521488  1
  In  In4  1  0.12804636  -0.03282949  0.83867423  1
  In  In5  1  0.66148359  0.50912426  0.16532720  1
  In  In6  1  0.81514156  0.51232255  0.69300133  1
  In  In7  1  0.53329868  0.30029518  0.80935441  1
  In  In8  1  0.51955953  0.85328524  0.29872260  1
  In  In9  1  0.50418691  0.31779047  0.14655815  1
  In  In10  1  0.77586696  0.13197821  0.71174269  1
  In  In11  1  0.15053492  0.82517809  0.00332118  1
  In  In12  1  0.36241772  0.68618412  0.31950129  1
  In  In13  1  -0.01948292  0.48511638  0.84877410  1
  In  In14  1  0.67190038  0.48553305  0.84499774  1
  In  In15  1  0.66249120  0.83395413  0.51058622  1
  In  In16  1  0.53603164  0.00202312  0.82956190  1
  In  In17  1  0.17089069  -0.00185854  0.53070850  1
  In  In18  1  0.52103503  0.50951565  0.69533768  1
  In  In19  1  0.49528372  0.51864860  0.34401965  1
  In  In20  1  0.15961298  0.32796503  0.84922381  1
  In  In21  1  0.66780467  0.50065074  0.48989239  1
  In  In22  1  0.36408501  0.70578370  0.68805527  1
  In  In23  1  0.33680906  0.65416622  0.00616647  1
  In  In24  1  0.15919785  0.67437525  0.80728963  1
  In  In25  1  -0.03309055  0.81045529  0.51858812  1
  In  In26  1  0.80074664  0.67594246  0.83978301  1
  In  In27  1  0.68275856  0.32361718  0.32333599  1
  In  In28  1  0.14838974  0.14733424  -0.02532867  1
  In  In29  1  0.32895956  0.84112577  0.50249493  1
  In  In30  1  0.35265533  0.85435840  0.83976996  1
  In  In31  1  0.13041843  0.81413838  0.66282408  1
  In  In32  1  0.54306314  0.69437987  0.12652132  1
  In  In33  1  0.86018419  0.50299623  0.31232668  1
  In  In34  1  0.69899266  0.88893262  0.12606842  1
  In  In35  1  0.66705490  0.31396773  0.02473368  1
  In  In36  1  0.37349811  -0.02748975  0.33674446  1
  In  In37  1  0.02217104  0.00120635  0.32922761  1
  In  In38  1  -0.02533288  0.15335962  0.52529480  1
  In  In39  1  0.81714407  0.01761026  0.49129125  1
  In  In40  1  0.81773187  0.30004154  0.52037217  1
  In  In41  1  0.14892611  0.30927348  0.46831856  1
  In  In42  1  0.31791652  0.32981790  0.00040115  1
  In  In43  1  0.16698329  0.18312119  0.32139149  1
  In  In44  1  0.52202863  0.86607787  0.69669280  1
  In  In45  1  0.52499595  0.03380902  0.51585107  1
  In  In46  1  0.81942426  0.33393716  0.85320170  1
  In  In47  1  0.34511518  0.82378645  0.16508752  1
  In  In48  1  0.00600973  0.33662126  0.30508646  1
  In  In49  1  0.52884313  0.14619176  0.00455462  1
  In  In50  1  0.84346982  0.68763834  0.53635736  1
  In  In51  1  0.17607899  -0.00045938  0.16471715  1
  In  In52  1  0.48566877  0.49473872  0.02025873  1
  In  In53  1  0.81205920  0.85625480  0.31749069  1
  In  In54  1  0.35517034  0.34117306  0.64500498  1
  In  In55  1  0.83611471  0.16734289  0.32921879  1
  In  In56  1  -0.03195860  0.32156744  0.68501963  1
  In  In57  1  0.00656935  0.49691179  0.15532644  1
  In  In58  1  0.00712819  0.46845181  0.48706036  1
  In  In59  1  0.36276101  0.16025002  0.16546551  1
  In  In60  1  0.52433799  0.30849298  0.49591332  1
  In  In61  1  -0.01494128  0.70145397  0.65341653  1
  In  In62  1  0.17817905  0.51786866  0.67166706  1
  In  In63  1  0.80629648  0.68815009  0.13708963  1
  In  In64  1  0.17339925  0.32907137  0.17983237  1
  In  In65  1  0.33896183  0.48626506  0.49447896  1
  In  In66  1  0.17003960  0.50505222  0.01223527  1
  In  In67  1  -0.02608636  0.66811717  0.30834537  1
  In  In68  1  0.16469863  0.65244359  0.47453823  1
  In  In69  1  0.32575803  0.16705806  0.84169520  1
  In  In70  1  0.51469371  0.65016479  0.51089018  1
  In  In71  1  -0.02013821  0.68798837  -0.00633342  1
  Te  Te72  1  0.07373670  0.07241613  0.08127840  1
  Te  Te73  1  0.08673296  0.09540025  0.43196718  1
  Te  Te74  1  0.06198429  0.08714036  0.76513264  1
  Te  Te75  1  0.08594809  0.39449965  0.07348644  1
  Te  Te76  1  0.10593572  0.43066651  0.37524136  1
  Te  Te77  1  0.07940983  0.42195854  0.74322030  1
  Te  Te78  1  0.08022169  0.73071437  0.09154269  1
  Te  Te79  1  0.07552130  0.76117560  0.41358804  1
  Te  Te80  1  0.04450646  0.77036926  0.78118163  1
  Te  Te81  1  0.39823381  0.08762592  0.04238890  1
  Te  Te82  1  0.42762463  0.08267067  0.41664744  1
  Te  Te83  1  0.42527868  0.08882162  0.75746695  1
  Te  Te84  1  0.39008505  0.41093596  0.10711092  1
  Te  Te85  1  0.43044743  0.39922717  0.41158683  1
  Te  Te86  1  0.42962967  0.40593977  0.75989585  1
  Te  Te87  1  0.43035876  0.77334229  0.05006310  1
  Te  Te88  1  0.43640211  0.76054567  0.42873925  1
  Te  Te89  1  0.45961309  0.75643433  0.79320132  1
  Te  Te90  1  0.77042041  0.07354487  0.06449139  1
  Te  Te91  1  0.72767694  0.10733300  0.41330684  1
  Te  Te92  1  0.74180760  0.01337791  0.79450641  1
  Te  Te93  1  0.74774681  0.42076727  0.08563850  1
  Te  Te94  1  0.77101225  0.41857601  0.41282863  1
  Te  Te95  1  0.73453710  0.39389822  0.73938637  1
  Te  Te96  1  0.73668809  0.76065529  0.02199634  1
  Te  Te97  1  0.76215530  0.75819889  0.42318006  1
  Te  Te98  1  0.75001256  0.77223639  0.74094594  1
  Te  Te99  1  0.06324380  0.22628942  0.21959741  1
  Te  Te100  1  0.07295437  0.25086224  0.59683480  1
  Te  Te101  1  0.05770077  0.24033346  0.90514572  1
  Te  Te102  1  0.07843032  0.58195206  0.25219748  1
  Te  Te103  1  0.07489436  0.58922340  0.58215347  1
  Te  Te104  1  0.08534701  0.58373905  0.91099266  1
  Te  Te105  1  0.06002235  0.90803923  0.21297357  1
  Te  Te106  1  0.05441866  0.92252644  0.58659042  1
  Te  Te107  1  0.04648309  0.92235007  0.95779798  1
  Te  Te108  1  0.44881561  0.23554680  0.25590219  1
  Te  Te109  1  0.43711726  0.23404828  0.58981297  1
  Te  Te110  1  0.42436791  0.25605394  0.91898464  1
  Te  Te111  1  0.45253643  0.60782225  0.22828470  1
  Te  Te112  1  0.40860796  0.57903930  0.59388195  1
  Te  Te113  1  0.42440067  0.57817983  0.91626074  1
  Te  Te114  1  0.43828669  0.94152078  0.20152008  1
  Te  Te115  1  0.42107960  0.92433971  0.59085105  1
  Te  Te116  1  0.43427307  0.94441841  0.92208202  1
  Te  Te117  1  0.76284829  0.24511542  0.22723861  1
  Te  Te118  1  0.71878124  0.22437619  0.60037387  1
  Te  Te119  1  0.72837558  0.23025408  0.91446454  1
  Te  Te120  1  0.75622968  0.59473817  0.24993875  1
  Te  Te121  1  0.73552563  0.59379603  0.59225728  1
  Te  Te122  1  0.78062265  0.55352023  0.91854900  1
  Te  Te123  1  0.72236146  0.96396770  0.26587294  1
  Te  Te124  1  0.71604166  0.95266735  0.58547309  1
  Te  Te125  1  0.76148148  0.95961030  0.96438338  1
  Te  Te126  1  0.24072075  0.22657289  0.08131784  1
  Te  Te127  1  0.27061808  0.25649584  0.40097609  1
  Te  Te128  1  0.25021048  0.25756363  0.74134124  1
  Te  Te129  1  0.26161313  0.57334016  0.10394628  1
  Te  Te130  1  0.27458796  0.58305484  0.39560933  1
  Te  Te131  1  0.27841915  0.59320839  0.75559714  1
  Te  Te132  1  0.25790977  0.91000310  0.07393129  1
  Te  Te133  1  0.23434037  0.91942245  0.40861393  1
  Te  Te134  1  0.24445560  0.89557362  0.73254674  1
  Te  Te135  1  0.60707646  0.20788520  0.11924780  1
  Te  Te136  1  0.60476315  0.22389923  0.40260757  1
  Te  Te137  1  0.60326062  0.20581073  0.71486020  1
  Te  Te138  1  0.60948529  0.58258686  0.04157963  1
  Te  Te139  1  0.60737494  0.60726018  0.39792560  1
  Te  Te140  1  0.60594689  0.59819416  0.77397017  1
  Te  Te141  1  0.58838286  0.98017944  0.07725364  1
  Te  Te142  1  0.57961155  0.92517499  0.41915618  1
  Te  Te143  1  0.63920006  0.88976653  0.79325002  1
  Te  Te144  1  0.88211055  0.25434899  0.01356076  1
  Te  Te145  1  0.93059679  0.26313852  0.41977092  1
  Te  Te146  1  0.88898018  0.22602515  0.76699719  1
  Te  Te147  1  0.90644942  0.58641366  0.08067455  1
  Te  Te148  1  0.91830680  0.59205590  0.43073534  1
  Te  Te149  1  0.92861461  0.59376811  0.75298332  1
  Te  Te150  1  0.84170026  0.92368700  0.08627491  1
  Te  Te151  1  0.91859359  0.92328171  0.41582917  1
  Te  Te152  1  0.98322861  0.95554628  0.79594541  1
  Te  Te153  1  0.26319629  0.07648948  0.26279157  1
  Te  Te154  1  0.27164221  0.10602539  0.56650276  1
  Te  Te155  1  0.24240467  0.05538663  0.89969469  1
  Te  Te156  1  0.24789665  0.38282351  0.29261713  1
  Te  Te157  1  0.22807619  0.41296593  0.56998609  1
  Te  Te158  1  0.25482143  0.43136271  0.90628463  1
  Te  Te159  1  0.24352996  0.73516257  0.23518908  1
  Te  Te160  1  0.24583787  0.73808870  0.57987994  1
  Te  Te161  1  0.24835031  0.75144056  0.90599904  1
  Te  Te162  1  0.58724684  0.02775199  0.21783161  1
  Te  Te163  1  0.61505923  0.06811024  0.63105090  1
  Te  Te164  1  0.62435426  0.10859341  0.89356272  1
  Te  Te165  1  0.57747550  0.41686066  0.25540504  1
  Te  Te166  1  0.58101159  0.42136444  0.58504934  1
  Te  Te167  1  0.57262116  0.39530632  0.92786545  1
  Te  Te168  1  0.62514389  0.78159699  0.22176697  1
  Te  Te169  1  0.57634952  0.75095087  0.60529098  1
  Te  Te170  1  0.58869271  0.75485462  0.99146269  1
  Te  Te171  1  0.91632835  0.07008989  0.24601531  1
  Te  Te172  1  0.88888667  0.07197211  0.61532187  1
  Te  Te173  1  0.88743907  0.07967429  0.95616441  1
  Te  Te174  1  0.90178833  0.39656882  0.21240427  1
  Te  Te175  1  0.90219497  0.42519413  0.59175312  1
  Te  Te176  1  0.91641180  0.39715677  0.95141205  1
  Te  Te177  1  0.90028653  0.77177354  0.22556519  1
  Te  Te178  1  0.86654353  0.80644412  0.64184313  1
  Te  Te179  1  0.88355213  0.77230437  0.91900901  1
