# generated using pymatgen
data_In2Te3
_symmetry_space_group_name_H-M   'P 1'
_cell_length_a   18.85209569
_cell_length_b   18.84236718
_cell_length_c   18.86651709
_cell_angle_alpha   89.92669776
_cell_angle_beta   89.87779529
_cell_angle_gamma   89.92579676
_symmetry_Int_Tables_number   1
_chemical_formula_structural   In2Te3
_chemical_formula_sum   'In72 Te108'
_cell_volume   6701.70220090
_cell_formula_units_Z   36
loop_
 _symmetry_equiv_pos_site_id
 _symmetry_equiv_pos_as_xyz
  1  'x, y, z'
loop_
 _atom_site_type_symbol
 _atom_site_label
 _atom_site_symmetry_multiplicity
 _atom_site_fract_x
 _atom_site_fract_y
 _atom_site_fract_z
 _atom_site_occupancy
  In  In0  1  0.34432474  0.63609740  0.36276285  1
  In  In1  1  0.34164978  0.00386544  0.31632847  1
  In  In2  1  -0.01036709  0.65464376  0.66296528  1
  In  In3  1  0.50265239  -0.01832467  0.85631043  1
  In  In4  1  0.64670208  0.78756775  0.53456480  1
  In  In5  1  0.49686045  0.49212800  -0.00770628  1
  In  In6  1  0.51932469  0.39006797  0.80435508  1
  In  In7  1  -0.00734070  0.35473824  0.02710939  1
  In  In8  1  0.49033786  0.65521588  0.18796060  1
  In  In9  1  -0.04121812  0.79003383  0.84484154  1
  In  In10  1  0.34762266  -0.04263455  0.01840091  1
  In  In11  1  0.79694473  0.37514576  0.79691137  1
  In  In12  1  0.81221988  0.63807049  0.15159950  1
  In  In13  1  0.83428637  0.83292900  0.33532774  1
  In  In14  1  0.35754590  0.83719408  0.47288128  1
  In  In15  1  0.67137730  0.21053784  0.51920425  1
  In  In16  1  0.00553609  -0.00755347  0.69393416  1
  In  In17  1  0.34017176  0.19853587  0.19251733  1
  In  In18  1  0.50269808  0.15322613  -0.00605580  1
  In  In19  1  0.66410968  0.15956460  0.15753251  1
  In  In20  1  0.17317554  0.24284162  0.37539332  1
  In  In21  1  0.51458303  0.79860737  -0.00359648  1
  In  In22  1  0.84191271  0.20185726  0.35693044  1
  In  In23  1  0.83458908  0.35875391  0.16022575  1
  In  In24  1  0.31637312  0.16010644  0.83032377  1
  In  In25  1  0.00412314  -0.02963554  0.00344035  1
  In  In26  1  0.49185009  0.62261339  0.53928242  1
  In  In27  1  0.65344315  0.17429872  0.81583974  1
  In  In28  1  0.81744446  0.17510087  -0.00427659  1
  In  In29  1  -0.00669025  0.36866006  0.67291194  1
  In  In30  1  0.00129752  0.49181033  0.49070967  1
  In  In31  1  0.15520999  -0.01607576  0.81081565  1
  In  In32  1  0.68026768  0.80077457  0.80929724  1
  In  In33  1  0.81996088  0.18664172  0.62724575  1
  In  In34  1  0.33034859  -0.00125152  0.65908238  1
  In  In35  1  0.65890443  -0.00389185  0.68417113  1
  In  In36  1  0.81510899  0.63236350  0.52223392  1
  In  In37  1  0.33920725  0.31083303  -0.00091461  1
  In  In38  1  0.68247974  -0.01185119  0.33930161  1
  In  In39  1  0.67070405  0.36521836  0.34564119  1
  In  In40  1  0.85635871  -0.02089221  0.16020127  1
  In  In41  1  0.82878090  0.50459498  -0.01698293  1
  In  In42  1  0.50260951  0.00087473  0.48802688  1
  In  In43  1  0.01331614  0.02785529  0.34904911  1
  In  In44  1  0.48433679  0.17808456  0.31980540  1
  In  In45  1  0.00100432  0.52142593  0.84710458  1
  In  In46  1  0.65252832  0.64631641  0.32828886  1
  In  In47  1  0.81566215  -0.02954858  0.84254300  1
  In  In48  1  0.01339401  0.81436743  0.14563487  1
  In  In49  1  0.00207392  0.52296905  0.18009808  1
  In  In50  1  0.48513396  -0.02605372  0.15620967  1
  In  In51  1  0.17066027  0.66094568  0.16060240  1
  In  In52  1  0.49930015  0.39800626  0.49420746  1
  In  In53  1  0.20366538  -0.01524518  0.15733206  1
  In  In54  1  -0.00786684  0.17968255  0.84001039  1
  In  In55  1  0.48389920  0.19079645  0.65961311  1
  In  In56  1  0.20305496  0.23181518  0.62405578  1
  In  In57  1  0.16083893  0.33741572  0.81665940  1
  In  In58  1  0.82164201  -0.00490692  0.52269450  1
  In  In59  1  0.16880137  0.81793113  0.66433353  1
  In  In60  1  0.34616170  0.83739408  0.16147884  1
  In  In61  1  0.19553663  0.66345567  0.47753875  1
  In  In62  1  0.02864072  0.16312896  0.19555045  1
  In  In63  1  0.32414132  0.53528949  0.81117650  1
  In  In64  1  -0.01621112  0.18881926  0.47096990  1
  In  In65  1  0.17413002  0.84737989  0.31450231  1
  In  In66  1  0.51271772  0.33897416  0.17658572  1
  In  In67  1  0.01575557  0.83727499  0.53684856  1
  In  In68  1  0.19813952  0.16231436  0.00772648  1
  In  In69  1  0.16429943  0.50802549  -0.00362362  1
  In  In70  1  0.65915248  0.65002156  -0.01240761  1
  In  In71  1  0.00634588  0.65657638  0.33626052  1
  Te  Te72  1  0.08708148  0.07385002  0.07869054  1
  Te  Te73  1  0.10974284  0.10869908  0.42962899  1
  Te  Te74  1  0.09354834  0.11055205  0.74890516  1
  Te  Te75  1  0.09687087  0.42438303  0.10776947  1
  Te  Te76  1  0.09798488  0.43881686  0.38850348  1
  Te  Te77  1  0.09816178  0.45342816  0.74379665  1
  Te  Te78  1  0.09411802  0.73170024  0.05479762  1
  Te  Te79  1  0.08160280  0.76978878  0.41591875  1
  Te  Te80  1  0.07795920  0.73868997  0.75445260  1
  Te  Te81  1  0.40169982  0.09227459  0.09248018  1
  Te  Te82  1  0.40402700  0.09654234  0.42125619  1
  Te  Te83  1  0.43183880  0.07881260  0.75951676  1
  Te  Te84  1  0.40848916  0.41106276  0.08957361  1
  Te  Te85  1  0.41341237  0.47314257  0.39643421  1
  Te  Te86  1  0.41512413  0.45128337  0.70742317  1
  Te  Te87  1  0.40810249  0.72700454  0.07814050  1
  Te  Te88  1  0.44762055  0.72531967  0.42697538  1
  Te  Te89  1  0.36432614  0.68373394  0.77385668  1
  Te  Te90  1  0.75342110  0.06451416  0.07914751  1
  Te  Te91  1  0.74684885  0.09447017  0.42887175  1
  Te  Te92  1  0.76669907  0.08900051  0.74343745  1
  Te  Te93  1  0.74172039  0.41812342  0.06471218  1
  Te  Te94  1  0.76890178  0.40425776  0.44697312  1
  Te  Te95  1  0.70863230  0.47277684  0.72726459  1
  Te  Te96  1  0.73335596  0.73857468  0.08009426  1
  Te  Te97  1  0.75114177  0.74157759  0.42428725  1
  Te  Te98  1  0.77419928  0.69543160  0.76088207  1
  Te  Te99  1  0.05834682  0.27957800  0.28051993  1
  Te  Te100  1  0.06213832  0.27703261  0.57228069  1
  Te  Te101  1  0.09363352  0.25007348  0.93032506  1
  Te  Te102  1  0.11970875  0.57455991  0.27700843  1
  Te  Te103  1  0.08844750  0.59562580  0.56360534  1
  Te  Te104  1  0.10797802  0.60651662  0.90138519  1
  Te  Te105  1  0.06782212  0.92889210  0.23928523  1
  Te  Te106  1  0.10812737  0.94328320  0.59058435  1
  Te  Te107  1  0.07312657  0.88947631  0.89662334  1
  Te  Te108  1  0.40472972  0.30158968  0.28097390  1
  Te  Te109  1  0.42372907  0.28015692  0.55655393  1
  Te  Te110  1  0.43145590  0.24520245  0.89654166  1
  Te  Te111  1  0.39972984  0.55250813  0.25172999  1
  Te  Te112  1  0.36519571  0.55537335  0.59198750  1
  Te  Te113  1  0.41308739  0.59049205  0.91725770  1
  Te  Te114  1  0.43634096  0.89230148  0.27383917  1
  Te  Te115  1  0.43123707  0.90893720  0.58674044  1
  Te  Te116  1  0.40661791  0.87193641  0.90493607  1
  Te  Te117  1  0.74045293  0.25472896  0.24802889  1
  Te  Te118  1  0.75725985  0.31509277  0.58186103  1
  Te  Te119  1  0.74547811  0.26402435  0.89853384  1
  Te  Te120  1  0.75157913  0.55861082  0.25918614  1
  Te  Te121  1  0.70643805  0.57038608  0.60280179  1
  Te  Te122  1  0.76121329  0.59926229  0.88541681  1
  Te  Te123  1  0.74428596  0.89994171  0.23191195  1
  Te  Te124  1  0.73982885  0.89579685  0.60142791  1
  Te  Te125  1  0.72582364  0.88628498  0.92030429  1
  Te  Te126  1  0.23451402  0.26911108  0.10798955  1
  Te  Te127  1  0.28732596  0.29424139  0.46137860  1
  Te  Te128  1  0.28464737  0.28044183  0.74521111  1
  Te  Te129  1  0.26301064  0.58078553  0.07923736  1
  Te  Te130  1  0.27282172  0.53387513  0.45217755  1
  Te  Te131  1  0.25120806  0.59061382  0.69232495  1
  Te  Te132  1  0.22880754  0.87105740  0.06221578  1
  Te  Te133  1  0.24940599  0.93046104  0.41665378  1
  Te  Te134  1  0.27034785  0.89506729  0.75600426  1
  Te  Te135  1  0.58678547  0.25573317  0.06889812  1
  Te  Te136  1  0.57472767  0.26316694  0.41284279  1
  Te  Te137  1  0.59179210  0.27524878  0.72231001  1
  Te  Te138  1  0.57969176  0.57325066  0.09237315  1
  Te  Te139  1  0.58226839  0.56251982  0.43040723  1
  Te  Te140  1  0.54406514  0.52792847  0.73875124  1
  Te  Te141  1  0.58038804  0.91267407  0.06428644  1
  Te  Te142  1  0.60117222  0.89933720  0.43155092  1
  Te  Te143  1  0.56775037  0.89504222  0.74915278  1
  Te  Te144  1  0.92272341  0.23325022  0.09006943  1
  Te  Te145  1  0.89920920  0.31275149  0.44014163  1
  Te  Te146  1  0.90841429  0.25681962  0.73956199  1
  Te  Te147  1  0.93239366  0.58932764  0.05883638  1
  Te  Te148  1  0.90128856  0.57576255  0.40750314  1
  Te  Te149  1  0.89440870  0.58910642  0.76209673  1
  Te  Te150  1  0.89709471  0.87414683  0.05418367  1
  Te  Te151  1  0.91991034  0.92505890  0.42401864  1
  Te  Te152  1  0.90189080  0.89326956  0.74366919  1
  Te  Te153  1  0.23872230  0.09788052  0.25188878  1
  Te  Te154  1  0.27264543  0.10697206  0.58012743  1
  Te  Te155  1  0.25604503  0.04988767  0.91908101  1
  Te  Te156  1  0.20647350  0.37341602  0.30458863  1
  Te  Te157  1  0.21446173  0.36989955  0.56988933  1
  Te  Te158  1  0.25611741  0.40801066  0.91482625  1
  Te  Te159  1  0.27004691  0.74314691  0.26297428  1
  Te  Te160  1  0.27240880  0.75500755  0.57135801  1
  Te  Te161  1  0.28281104  0.76384159  0.86526174  1
  Te  Te162  1  0.57843989  0.07430014  0.25513793  1
  Te  Te163  1  0.58576748  0.08818101  0.58464942  1
  Te  Te164  1  0.60801816  0.07183397  0.91990412  1
  Te  Te165  1  0.59603772  0.44047120  0.24366014  1
  Te  Te166  1  0.59620934  0.45776199  0.59048454  1
  Te  Te167  1  0.60441191  0.41914892  0.92141608  1
  Te  Te168  1  0.58512516  0.75022511  0.24819277  1
  Te  Te169  1  0.56637730  0.71334326  0.63217205  1
  Te  Te170  1  0.57086104  0.71623647  0.88133714  1
  Te  Te171  1  0.89722927  0.08686028  0.26095365  1
  Te  Te172  1  0.93355530  0.08398011  0.58106673  1
  Te  Te173  1  0.91755216  0.07090875  0.91761627  1
  Te  Te174  1  0.92206617  0.42454178  0.25599505  1
  Te  Te175  1  0.91215539  0.47684155  0.61048230  1
  Te  Te176  1  0.92104037  0.39780254  0.90101424  1
  Te  Te177  1  0.91727528  0.74169679  0.24110933  1
  Te  Te178  1  0.90200994  0.74919044  0.57999391  1
  Te  Te179  1  0.90322600  0.72584131  0.96430021  1
