# generated using pymatgen
data_In2Te3
_symmetry_space_group_name_H-M   'P 1'
_cell_length_a   18.99148263
_cell_length_b   19.00588618
_cell_length_c   19.01523681
_cell_angle_alpha   90.04123327
_cell_angle_beta   90.17555097
_cell_angle_gamma   89.81142953
_symmetry_Int_Tables_number   1
_chemical_formula_structural   In2Te3
_chemical_formula_sum   'In72 Te108'
_cell_volume   6863.47779613
_cell_formula_units_Z   36
loop_
 _symmetry_equiv_pos_site_id
 _symmetry_equiv_pos_as_xyz
  1  'x, y, z'
loop_
 _atom_site_type_symbol
 _atom_site_label
 _atom_site_symmetry_multiplicity
 _atom_site_fract_x
 _atom_site_fract_y
 _atom_site_fract_z
 _atom_site_occupancy
  In  In0  1  -0.02005631  0.37478438  -0.01568096  1
  In  In1  1  0.68330394  0.15052418  0.15376440  1
  In  In2  1  0.29557259  0.17586657  0.83127676  1
  In  In3  1  0.17300335  0.45574299  -0.03532877  1
  In  In4  1  0.67086137  0.84899550  0.83064656  1
  In  In5  1  0.35718275  0.01701869  0.66889105  1
  In  In6  1  0.32220164  0.67887447  0.66310034  1
  In  In7  1  0.48458835  -0.01580186  0.83733188  1
  In  In8  1  0.13709614  -0.00902931  0.81064206  1
  In  In9  1  0.32659403  -0.00758664  0.32863257  1
  In  In10  1  0.18141977  0.48731859  0.66840132  1
  In  In11  1  0.85930885  0.84667817  0.03686509  1
  In  In12  1  0.48555538  0.81738557  0.00582593  1
  In  In13  1  0.19662982  0.84897589  0.64796491  1
  In  In14  1  0.66505655  0.81951093  0.18771082  1
  In  In15  1  0.34712805  0.64899431  0.01560236  1
  In  In16  1  0.30254143  0.02885819  0.03221420  1
  In  In17  1  0.16300869  0.68080656  0.17630119  1
  In  In18  1  0.84175366  0.51345695  0.67763151  1
  In  In19  1  -0.00652959  0.68460497  0.33458018  1
  In  In20  1  0.66766727  0.34306518  0.00307303  1
  In  In21  1  -0.00895007  0.67824146  0.64702173  1
  In  In22  1  0.33127009  0.47259691  0.15377496  1
  In  In23  1  0.46522609  0.44427182  0.67289408  1
  In  In24  1  0.33829105  0.48164126  0.50593665  1
  In  In25  1  0.35057094  0.80705373  0.83718520  1
  In  In26  1  0.67575499  0.52499630  0.16911502  1
  In  In27  1  0.16437911  0.32846737  0.17594086  1
  In  In28  1  0.83106283  0.00614260  0.49619587  1
  In  In29  1  0.52704852  0.66983095  0.17138512  1
  In  In30  1  0.49449055  0.64772600  0.81224351  1
  In  In31  1  -0.00149208  0.83161913  0.84737575  1
  In  In32  1  0.51408784  0.48842262  0.33848447  1
  In  In33  1  0.67697008  0.65837576  0.66232812  1
  In  In34  1  0.14558526  0.21463173  -0.00455977  1
  In  In35  1  0.14010284  0.66392654  0.83284667  1
  In  In36  1  0.81496262  0.34354430  0.16358779  1
  In  In37  1  0.67174997  0.00593237  0.34919613  1
  In  In38  1  0.16410671  0.50587661  0.32907028  1
  In  In39  1  0.65091939  0.33506053  0.65810289  1
  In  In40  1  0.00244678  0.84945681  0.52235887  1
  In  In41  1  -0.01186647  0.15695364  0.18535797  1
  In  In42  1  0.34032452  0.64665703  0.33580635  1
  In  In43  1  0.14372010  0.87085169  0.33893219  1
  In  In44  1  0.15823757  0.17061619  0.65643133  1
  In  In45  1  0.83740299  0.31370007  0.49141203  1
  In  In46  1  0.82958040  0.49361052  0.32646197  1
  In  In47  1  -0.02739045  0.62969346  0.02396913  1
  In  In48  1  0.15031211  0.84339725  -0.00893524  1
  In  In49  1  -0.00837592  0.00742262  0.68348797  1
  In  In50  1  0.84152911  0.85385893  0.31940273  1
  In  In51  1  0.02120912  0.50675661  0.50840297  1
  In  In52  1  -0.00715797  0.33561261  0.35428915  1
  In  In53  1  0.00750844  0.32195038  0.66989742  1
  In  In54  1  0.36212987  0.19590369  0.20078128  1
  In  In55  1  0.68852565  -0.00308358  0.00416572  1
  In  In56  1  0.69553602  0.65569888  -0.02846800  1
  In  In57  1  0.50054004  0.18353893  -0.02221063  1
  In  In58  1  0.16754250  0.12870164  0.36802995  1
  In  In59  1  0.83231287  0.16899212  0.67502863  1
  In  In60  1  0.80550959  0.83604015  0.64713468  1
  In  In61  1  0.68671669  0.47075779  0.84110629  1
  In  In62  1  0.66912350  0.84842246  0.48705607  1
  In  In63  1  0.50250439  -0.00493677  0.18668768  1
  In  In64  1  0.88373091  0.17539996  -0.03347300  1
  In  In65  1  0.34883419  0.16400423  0.49427852  1
  In  In66  1  0.51458403  0.03621969  0.51688881  1
  In  In67  1  0.67240472  0.18178267  0.81809149  1
  In  In68  1  0.47822293  0.47953455  0.00267337  1
  In  In69  1  0.65170755  0.31885495  0.33335586  1
  In  In70  1  0.51737103  0.64776390  0.49375060  1
  In  In71  1  0.13799447  0.00024636  0.18193590  1
  Te  Te72  1  0.08556057  0.10455288  0.08269502  1
  Te  Te73  1  0.07859936  0.01323261  0.35635977  1
  Te  Te74  1  0.06235348  0.11380232  0.76656098  1
  Te  Te75  1  0.08922165  0.42294486  0.08552700  1
  Te  Te76  1  0.10306392  0.40853989  0.42822378  1
  Te  Te77  1  0.08977091  0.41118125  0.75523849  1
  Te  Te78  1  0.07297662  0.73922764  0.06889307  1
  Te  Te79  1  0.08163377  0.75995364  0.43042332  1
  Te  Te80  1  0.09532511  0.77378318  0.73908087  1
  Te  Te81  1  0.42933186  0.09172056  0.08621341  1
  Te  Te82  1  0.42769213  0.08106714  0.39608175  1
  Te  Te83  1  0.41928543  0.10550662  0.77294232  1
  Te  Te84  1  0.42349667  0.37789403  0.09146298  1
  Te  Te85  1  0.41237148  0.40319028  0.40276834  1
  Te  Te86  1  0.36220109  0.39985796  0.76491830  1
  Te  Te87  1  0.40372403  0.74915749  0.11177867  1
  Te  Te88  1  0.42131562  0.73267242  0.42207553  1
  Te  Te89  1  0.43830826  0.75941327  0.72623745  1
  Te  Te90  1  0.78724165  0.09509132  0.06000503  1
  Te  Te91  1  0.74438080  0.10417422  0.42907499  1
  Te  Te92  1  0.75522361  0.07768803  0.76025614  1
  Te  Te93  1  0.76643155  0.44942129  0.06296030  1
  Te  Te94  1  0.74318878  0.40784253  0.41566148  1
  Te  Te95  1  0.76645874  0.39507275  0.73838559  1
  Te  Te96  1  0.74524483  0.75274033  0.07726422  1
  Te  Te97  1  0.76531416  0.76899870  0.41163506  1
  Te  Te98  1  0.75641494  0.74542229  0.75798950  1
  Te  Te99  1  0.08631306  0.23895486  0.26943211  1
  Te  Te100  1  0.06437423  0.23611968  0.56523886  1
  Te  Te101  1  0.07739649  0.30071797  0.89684886  1
  Te  Te102  1  0.06796937  0.58393984  0.24303564  1
  Te  Te103  1  0.10626896  0.60020313  0.59028237  1
  Te  Te104  1  0.07369226  0.56647070  0.92442529  1
  Te  Te105  1  0.05106386  0.88076459  0.21516100  1
  Te  Te106  1  0.09631775  0.94658130  0.58907426  1
  Te  Te107  1  0.04637464  0.94386994  0.94118110  1
  Te  Te108  1  0.44862661  0.26191562  0.30048757  1
  Te  Te109  1  0.46374071  0.23895783  0.55916211  1
  Te  Te110  1  0.38409425  0.25786300  0.92238004  1
  Te  Te111  1  0.42585918  0.57042995  0.22767605  1
  Te  Te112  1  0.41718124  0.57550857  0.59974103  1
  Te  Te113  1  0.40268050  0.56794668  0.90195888  1
  Te  Te114  1  0.40984875  0.90245199  0.24727669  1
  Te  Te115  1  0.43941286  0.93001901  0.58688642  1
  Te  Te116  1  0.38903913  0.92180780  0.94449253  1
  Te  Te117  1  0.75709715  0.23880183  0.25349631  1
  Te  Te118  1  0.73834100  0.23958766  0.57748431  1
  Te  Te119  1  0.75691490  0.25304057  0.92201290  1
  Te  Te120  1  0.77801301  0.60465662  0.23951079  1
  Te  Te121  1  0.76239174  0.57918855  0.57506740  1
  Te  Te122  1  0.78885947  0.56915514  0.89237365  1
  Te  Te123  1  0.74471379  0.93773594  0.23493088  1
  Te  Te124  1  0.72523882  0.94898379  0.58719451  1
  Te  Te125  1  0.77741676  0.90964653  0.91995153  1
  Te  Te126  1  0.25808302  0.24685631  0.09113530  1
  Te  Te127  1  0.24812558  0.23781157  0.41634301  1
  Te  Te128  1  0.25786546  0.26371040  0.71718202  1
  Te  Te129  1  0.23882702  0.57279419  0.08717579  1
  Te  Te130  1  0.24594476  0.57889948  0.43285158  1
  Te  Te131  1  0.25041535  0.59021125  0.76228677  1
  Te  Te132  1  0.23370619  0.91132970  0.09798739  1
  Te  Te133  1  0.25015502  0.91960543  0.42940560  1
  Te  Te134  1  0.26601094  0.91821196  0.76834327  1
  Te  Te135  1  0.58636269  0.24714438  0.08649459  1
  Te  Te136  1  0.54894622  0.25579152  0.42093806  1
  Te  Te137  1  0.56451973  0.25666659  0.75084710  1
  Te  Te138  1  0.58381557  0.58575661  0.05064156  1
  Te  Te139  1  0.60575310  0.58622859  0.39441335  1
  Te  Te140  1  0.59920065  0.56016313  0.74910794  1
  Te  Te141  1  0.58393018  0.91014630  0.07652449  1
  Te  Te142  1  0.56285436  0.92665770  0.41479463  1
  Te  Te143  1  0.57925910  0.92353788  0.74484975  1
  Te  Te144  1  0.92558252  0.26664488  0.08688688  1
  Te  Te145  1  0.91478816  0.22401015  0.40478398  1
  Te  Te146  1  0.90516090  0.26515608  0.75813036  1
  Te  Te147  1  0.86373418  0.56960437  0.10141248  1
  Te  Te148  1  0.92410782  0.57604534  0.41558510  1
  Te  Te149  1  0.94243627  0.59127943  0.75131773  1
  Te  Te150  1  0.93421281  0.94175211  0.12879712  1
  Te  Te151  1  0.93364417  0.93226543  0.41320956  1
  Te  Te152  1  0.90981564  0.89695141  0.74306263  1
  Te  Te153  1  0.25175824  0.09729909  0.23618613  1
  Te  Te154  1  0.25443005  0.07999463  0.58007353  1
  Te  Te155  1  0.21676643  0.07835126  0.91752169  1
  Te  Te156  1  0.25844372  0.40461949  0.26723618  1
  Te  Te157  1  0.25754619  0.38896809  0.58787553  1
  Te  Te158  1  0.28710801  0.39077347  0.90129090  1
  Te  Te159  1  0.23938741  0.74822074  0.28277210  1
  Te  Te160  1  0.26989882  0.76375270  0.55563763  1
  Te  Te161  1  0.24788578  0.73875448  0.92718557  1
  Te  Te162  1  0.58755105  0.09613651  0.25723343  1
  Te  Te163  1  0.54599128  0.13376190  0.62510983  1
  Te  Te164  1  0.58992310  0.07380362  0.91770311  1
  Te  Te165  1  0.59443092  0.41571241  0.22752848  1
  Te  Te166  1  0.56899050  0.42446876  0.57397076  1
  Te  Te167  1  0.56720802  0.40229750  0.90592939  1
  Te  Te168  1  0.57878887  0.75022046  0.28164372  1
  Te  Te169  1  0.59345717  0.75057321  0.57720431  1
  Te  Te170  1  0.57479138  0.74456669  0.90621756  1
  Te  Te171  1  0.89952465  0.05137702  0.23014803  1
  Te  Te172  1  0.92393056  0.09263428  0.57894644  1
  Te  Te173  1  0.95273533  0.06436013  0.90446635  1
  Te  Te174  1  0.92607495  0.41294532  0.24269286  1
  Te  Te175  1  0.91904809  0.41577865  0.57299171  1
  Te  Te176  1  0.87465560  0.43947173  0.90794950  1
  Te  Te177  1  0.91672561  0.75938685  0.23306989  1
  Te  Te178  1  0.89304530  0.75048005  0.55788452  1
  Te  Te179  1  0.91447840  0.74480847  0.93655314  1
