# generated using pymatgen
data_In2Te3
_symmetry_space_group_name_H-M   'P 1'
_cell_length_a   18.94741129
_cell_length_b   18.96844321
_cell_length_c   19.00229994
_cell_angle_alpha   90.03442439
_cell_angle_beta   89.86294409
_cell_angle_gamma   90.04210386
_symmetry_Int_Tables_number   1
_chemical_formula_structural   In2Te3
_chemical_formula_sum   'In72 Te108'
_cell_volume   6829.45899984
_cell_formula_units_Z   36
loop_
 _symmetry_equiv_pos_site_id
 _symmetry_equiv_pos_as_xyz
  1  'x, y, z'
loop_
 _atom_site_type_symbol
 _atom_site_label
 _atom_site_symmetry_multiplicity
 _atom_site_fract_x
 _atom_site_fract_y
 _atom_site_fract_z
 _atom_site_occupancy
  In  In0  1  0.17615493  -0.01535964  0.15723115  1
  In  In1  1  0.62956268  0.79371587  0.13957563  1
  In  In2  1  0.37733519  0.86741848  0.52284541  1
  In  In3  1  0.84493934  0.66008298  0.83844257  1
  In  In4  1  0.81491018  0.51456234  0.32168308  1
  In  In5  1  0.64360982  0.37780772  0.02059443  1
  In  In6  1  0.00938366  0.78567142  0.14648578  1
  In  In7  1  0.47709393  0.49240899  -0.00315953  1
  In  In8  1  -0.01204885  0.16690933  0.81165428  1
  In  In9  1  0.18628365  0.67579326  0.49759342  1
  In  In10  1  0.83466894  0.49979513  0.00280576  1
  In  In11  1  0.36357216  0.20068959  -0.02561843  1
  In  In12  1  0.15555029  0.66200279  0.14083495  1
  In  In13  1  0.67504584  -0.00719229  0.00350322  1
  In  In14  1  0.50106388  0.68339265  0.50134929  1
  In  In15  1  0.33584311  0.34466664  0.33183451  1
  In  In16  1  0.81082305  0.32290201  0.81983492  1
  In  In17  1  0.47453258  0.48999443  0.68289623  1
  In  In18  1  0.16212551  0.34185166  0.50765450  1
  In  In19  1  0.18463863  0.85049433  0.31052149  1
  In  In20  1  -0.02305187  0.00562173  0.68193419  1
  In  In21  1  0.82525027  0.16855122  0.63696632  1
  In  In22  1  0.85858686  0.15511452  0.00668608  1
  In  In23  1  0.50717129  0.18262947  0.33754350  1
  In  In24  1  0.49724139  0.16467721  0.66220222  1
  In  In25  1  -0.02460239  0.83804326  0.49948672  1
  In  In26  1  0.31330246  0.81295971  0.85998119  1
  In  In27  1  0.45031921  0.02041206  0.86325306  1
  In  In28  1  0.02013090  0.33036630  -0.00723810  1
  In  In29  1  0.82108561  0.80559765  0.64546591  1
  In  In30  1  0.65482844  0.19719471  0.16735202  1
  In  In31  1  0.65724320  0.17271579  0.82897171  1
  In  In32  1  0.81036723  -0.02909551  0.82853249  1
  In  In33  1  -0.02205039  0.52047851  0.16532493  1
  In  In34  1  0.85404459  0.19931420  0.36629169  1
  In  In35  1  0.16231803  0.02040744  0.50201473  1
  In  In36  1  0.00924202  -0.00502359  0.35364371  1
  In  In37  1  0.01157290  0.17821246  0.17020608  1
  In  In38  1  0.33736418  0.81241209  0.12955645  1
  In  In39  1  0.00441478  -0.03943152  0.00207043  1
  In  In40  1  0.02627199  0.49581685  0.83620634  1
  In  In41  1  0.65710592  0.85349885  0.50253357  1
  In  In42  1  0.69014210  0.00995883  0.34432229  1
  In  In43  1  0.19912087  0.32734156  0.15198562  1
  In  In44  1  0.18771173  0.18153778  0.64957146  1
  In  In45  1  0.00779073  0.35475147  0.34301252  1
  In  In46  1  0.64495695  0.64027751  -0.00337560  1
  In  In47  1  0.37663830  0.65281196  0.31386577  1
  In  In48  1  0.66597907  0.33300713  0.66647909  1
  In  In49  1  0.17955484  0.50882782  -0.00144743  1
  In  In50  1  0.17120168  0.84564727  0.68679500  1
  In  In51  1  0.64504783  0.84699882  0.83381638  1
  In  In52  1  0.65586049  0.33699301  0.32917741  1
  In  In53  1  0.34777773  0.17640726  0.50244137  1
  In  In54  1  0.66282856  0.65466755  0.64447098  1
  In  In55  1  0.20512665  0.01225441  0.83407365  1
  In  In56  1  0.66717045  0.50047422  0.51266565  1
  In  In57  1  0.02377314  0.79478817  0.83202417  1
  In  In58  1  0.01561832  0.65436269  0.34388111  1
  In  In59  1  0.32722132  0.49080877  0.49303670  1
  In  In60  1  0.30321855  0.65208452  0.68960002  1
  In  In61  1  0.15938470  0.49585567  0.67211604  1
  In  In62  1  0.82905880  0.82199363  0.32395079  1
  In  In63  1  0.48279738  0.00491552  0.15607703  1
  In  In64  1  0.65599035  0.67757788  0.31635008  1
  In  In65  1  0.84091177  -0.01858503  0.18848130  1
  In  In66  1  0.48951730  0.33112909  0.16564422  1
  In  In67  1  0.84732393  0.64799816  0.49674158  1
  In  In68  1  0.47904362  0.64307210  0.84588141  1
  In  In69  1  0.19857417  0.30455168  0.85150397  1
  In  In70  1  0.33330863  0.01637822  0.32189382  1
  In  In71  1  0.61371768  -0.01166428  0.65892372  1
  Te  Te72  1  0.07231713  0.06877041  0.08157481  1
  Te  Te73  1  0.09292569  0.10374725  0.40391319  1
  Te  Te74  1  0.09815522  0.07967849  0.73942717  1
  Te  Te75  1  0.08385468  0.42663128  0.09008431  1
  Te  Te76  1  0.11277272  0.43646163  0.40664424  1
  Te  Te77  1  0.10018383  0.38051248  0.76736673  1
  Te  Te78  1  0.12080882  0.77323477  0.04664562  1
  Te  Te79  1  0.08726749  0.76918491  0.41485070  1
  Te  Te80  1  0.10424576  0.72396645  0.73176646  1
  Te  Te81  1  0.40322223  0.10710556  0.09036084  1
  Te  Te82  1  0.43046144  0.07871167  0.41828669  1
  Te  Te83  1  0.39646644  0.11739358  0.76513259  1
  Te  Te84  1  0.39035676  0.41294370  0.09080972  1
  Te  Te85  1  0.42869563  0.42664855  0.41044495  1
  Te  Te86  1  0.38791883  0.43903764  0.79279631  1
  Te  Te87  1  0.42327871  0.72264108  0.05286099  1
  Te  Te88  1  0.41193199  0.76796746  0.41405496  1
  Te  Te89  1  0.40470652  0.74090943  0.75693591  1
  Te  Te90  1  0.75959480  0.08019252  0.09737533  1
  Te  Te91  1  0.75601071  0.10855133  0.42808263  1
  Te  Te92  1  0.75540697  0.08813827  0.75136202  1
  Te  Te93  1  0.75457862  0.42419889  0.10004371  1
  Te  Te94  1  0.75104349  0.41775087  0.41828545  1
  Te  Te95  1  0.74837948  0.42873734  0.74280917  1
  Te  Te96  1  0.73927574  0.70948731  0.08888873  1
  Te  Te97  1  0.74874354  0.74403670  0.43454707  1
  Te  Te98  1  0.73329814  0.74609007  0.75477545  1
  Te  Te99  1  0.09877509  0.27007842  0.24998074  1
  Te  Te100  1  0.07658160  0.24743002  0.58274098  1
  Te  Te101  1  0.08370001  0.21796414  0.91599825  1
  Te  Te102  1  0.09568054  0.57019748  0.24740968  1
  Te  Te103  1  0.09507794  0.57093547  0.55262674  1
  Te  Te104  1  0.10928878  0.60077223  0.90436556  1
  Te  Te105  1  0.05737420  0.90099656  0.24274991  1
  Te  Te106  1  0.07491437  0.91672770  0.58361397  1
  Te  Te107  1  0.09256284  0.92010459  0.88689660  1
  Te  Te108  1  0.40170460  0.23535430  0.24561381  1
  Te  Te109  1  0.41843035  0.26728347  0.59160159  1
  Te  Te110  1  0.40220823  0.32298766  0.89694919  1
  Te  Te111  1  0.46934485  0.57629336  0.23000741  1
  Te  Te112  1  0.40894413  0.59614324  0.58536249  1
  Te  Te113  1  0.37922638  0.61198152  0.95611125  1
  Te  Te114  1  0.39776892  0.90971242  0.23698573  1
  Te  Te115  1  0.47656659  0.94324793  0.59955435  1
  Te  Te116  1  0.39089452  0.90989063  0.94402209  1
  Te  Te117  1  0.76041133  0.25376481  0.25383799  1
  Te  Te118  1  0.75761511  0.27677168  0.56627248  1
  Te  Te119  1  0.75391414  0.23579822  0.93079345  1
  Te  Te120  1  0.74217250  0.59952264  0.22489067  1
  Te  Te121  1  0.77591966  0.56311239  0.59979416  1
  Te  Te122  1  0.74333669  0.56844628  0.90368556  1
  Te  Te123  1  0.72794350  0.88934655  0.23366938  1
  Te  Te124  1  0.74771317  0.92724681  0.59855224  1
  Te  Te125  1  0.75321946  0.88136196  0.93642291  1
  Te  Te126  1  0.24536387  0.21080509  0.07227625  1
  Te  Te127  1  0.25063163  0.25294735  0.41693984  1
  Te  Te128  1  0.28413026  0.23522328  0.74993918  1
  Te  Te129  1  0.27234640  0.58916966  0.08428444  1
  Te  Te130  1  0.26397748  0.59153815  0.39843031  1
  Te  Te131  1  0.26516014  0.53762101  0.77490393  1
  Te  Te132  1  0.26679292  0.92288012  0.05790971  1
  Te  Te133  1  0.25481678  0.92064500  0.42505021  1
  Te  Te134  1  0.28684774  0.91950238  0.74696576  1
  Te  Te135  1  0.56901001  0.25108811  0.05779360  1
  Te  Te136  1  0.59321628  0.25203708  0.43149943  1
  Te  Te137  1  0.56587298  0.26652824  0.76021877  1
  Te  Te138  1  0.55324864  0.57598993  0.09807686  1
  Te  Te139  1  0.58676790  0.58942676  0.42002012  1
  Te  Te140  1  0.57905827  0.58062380  0.74619889  1
  Te  Te141  1  0.56481524  0.91148004  0.06823996  1
  Te  Te142  1  0.58437211  0.92551267  0.39956372  1
  Te  Te143  1  0.53328240  0.92541462  0.77236865  1
  Te  Te144  1  0.91901728  0.26637151  0.08873369  1
  Te  Te145  1  0.93365286  0.28780802  0.45150439  1
  Te  Te146  1  0.91433068  0.26333510  0.72597685  1
  Te  Te147  1  0.93464007  0.59931911  0.04929340  1
  Te  Te148  1  0.93030510  0.55206001  0.41684592  1
  Te  Te149  1  0.93493157  0.57943436  0.75165809  1
  Te  Te150  1  0.90469174  0.88686680  0.08917480  1
  Te  Te151  1  0.88631540  0.92757975  0.41703139  1
  Te  Te152  1  0.91110397  0.88454330  0.75011789  1
  Te  Te153  1  0.21600069  0.07955681  0.26127403  1
  Te  Te154  1  0.27410033  0.07192662  0.58735745  1
  Te  Te155  1  0.24806432  0.10388768  0.94135851  1
  Te  Te156  1  0.28198750  0.42859669  0.22100227  1
  Te  Te157  1  0.26345541  0.40789208  0.59996608  1
  Te  Te158  1  0.26718127  0.39548524  0.94953155  1
  Te  Te159  1  0.25450783  0.73645503  0.24365063  1
  Te  Te160  1  0.26873586  0.76936958  0.58390873  1
  Te  Te161  1  0.20770476  0.72949540  0.92152036  1
  Te  Te162  1  0.59062876  0.08248324  0.24255160  1
  Te  Te163  1  0.59869343  0.10498197  0.57336091  1
  Te  Te164  1  0.58217178  0.07783724  0.91972194  1
  Te  Te165  1  0.56415669  0.42490102  0.25263564  1
  Te  Te166  1  0.56345347  0.41760779  0.58404094  1
  Te  Te167  1  0.57641729  0.43290121  0.90514936  1
  Te  Te168  1  0.54253777  0.74327258  0.24819205  1
  Te  Te169  1  0.57514345  0.76936870  0.60134136  1
  Te  Te170  1  0.56740295  0.74660579  0.91695881  1
  Te  Te171  1  0.92093582  0.08957448  0.25817418  1
  Te  Te172  1  0.92950786  0.08670885  0.57235740  1
  Te  Te173  1  0.91646609  0.05710364  0.90596496  1
  Te  Te174  1  0.90590143  0.41737234  0.24706614  1
  Te  Te175  1  1.01065903  0.47471774  0.64123689  1
  Te  Te176  1  0.91914251  0.40261616  0.90526594  1
  Te  Te177  1  0.91637923  0.72228412  0.25103917  1
  Te  Te178  1  0.93860563  0.72400524  0.59140474  1
  Te  Te179  1  0.93122216  0.73573485  0.93080936  1
