# generated using pymatgen
data_In2Te3
_symmetry_space_group_name_H-M   'P 1'
_cell_length_a   18.92460449
_cell_length_b   18.93059781
_cell_length_c   18.92637253
_cell_angle_alpha   90.02021934
_cell_angle_beta   89.99057709
_cell_angle_gamma   90.14167077
_symmetry_Int_Tables_number   1
_chemical_formula_structural   In2Te3
_chemical_formula_sum   'In72 Te108'
_cell_volume   6780.42886692
_cell_formula_units_Z   36
loop_
 _symmetry_equiv_pos_site_id
 _symmetry_equiv_pos_as_xyz
  1  'x, y, z'
loop_
 _atom_site_type_symbol
 _atom_site_label
 _atom_site_symmetry_multiplicity
 _atom_site_fract_x
 _atom_site_fract_y
 _atom_site_fract_z
 _atom_site_occupancy
  In  In0  1  0.18064629  0.51369581  0.65913498  1
  In  In1  1  0.13824822  0.84931123  0.00500264  1
  In  In2  1  0.52317516  0.66881898  0.81959311  1
  In  In3  1  0.67581896  0.81548315  0.14920687  1
  In  In4  1  0.82728914  0.30887043  0.18622895  1
  In  In5  1  0.84891326  0.66358067  0.82674116  1
  In  In6  1  0.85047157  0.17936059  0.35395119  1
  In  In7  1  0.00649328  0.82977308  0.17511796  1
  In  In8  1  0.00476991  0.00881286  0.63922316  1
  In  In9  1  0.68488863  0.86543748  0.49570224  1
  In  In10  1  0.80223315  0.48290731  0.67651275  1
  In  In11  1  0.18017600  0.14497897  0.61951132  1
  In  In12  1  -0.00167015  0.17612099  0.18589868  1
  In  In13  1  0.64867889  0.01944793  0.34539094  1
  In  In14  1  -0.04010970  0.86906660  0.81741167  1
  In  In15  1  0.82006350  0.48328735  0.34975093  1
  In  In16  1  0.36688961  0.48994650  0.48828019  1
  In  In17  1  0.49264274  0.16232890  0.34465525  1
  In  In18  1  -0.01812394  0.50368757  0.85091426  1
  In  In19  1  0.68310857  0.66992703  0.34334414  1
  In  In20  1  0.35378728  0.47965820  0.81581847  1
  In  In21  1  0.13860640  0.13858331  0.37732386  1
  In  In22  1  0.66172197  0.18885269  0.49963894  1
  In  In23  1  0.84956764  0.83796791  0.34092488  1
  In  In24  1  0.32742724  0.85386533  0.50423043  1
  In  In25  1  0.67824988  0.65734151  0.67034994  1
  In  In26  1  0.52816240  0.18742091  -0.02149316  1
  In  In27  1  -0.02245279  0.15245806  0.81415487  1
  In  In28  1  0.00340613  0.65143525  0.01927207  1
  In  In29  1  0.66034687  -0.01300242  -0.01678923  1
  In  In30  1  0.14911267  0.86609619  0.68618346  1
  In  In31  1  0.79112545  0.19228215  -0.02062258  1
  In  In32  1  -0.01903561  0.83395047  0.51752769  1
  In  In33  1  0.35603752  0.48129372  0.17757812  1
  In  In34  1  0.32555349  0.16071553  0.13580191  1
  In  In35  1  0.52226838  0.30790636  0.82934855  1
  In  In36  1  0.50383071  0.84574385  0.66313840  1
  In  In37  1  0.64860825  0.45549022  0.51426034  1
  In  In38  1  0.32587655  0.33698868  0.34273766  1
  In  In39  1  0.32174627  0.65541229  0.31515189  1
  In  In40  1  0.49952390  0.65330846  0.16552153  1
  In  In41  1  0.82072162  0.47921208  -0.01520992  1
  In  In42  1  -0.00884967  0.34110613  0.66923894  1
  In  In43  1  0.51166195  0.82252248  -0.00810087  1
  In  In44  1  0.33560651  0.33941982  0.02404523  1
  In  In45  1  0.51927699  0.65006336  0.49148487  1
  In  In46  1  0.17087886  0.31697713  0.83291432  1
  In  In47  1  0.82106200  0.82481903  0.01016971  1
  In  In48  1  -0.00911006  0.48725030  0.17987965  1
  In  In49  1  0.16699349  -0.01820761  0.17782411  1
  In  In50  1  -0.01684763  0.65302206  0.31604705  1
  In  In51  1  0.47295138  0.83676919  0.33877642  1
  In  In52  1  0.15244610  0.67770285  0.48791176  1
  In  In53  1  0.17938896  0.17562142  -0.00605529  1
  In  In54  1  0.51424861  0.17025106  0.66469912  1
  In  In55  1  0.35457788  0.01313449  -0.01537801  1
  In  In56  1  0.00022161  0.01848833  -0.02075102  1
  In  In57  1  0.34430547  0.64758954  -0.02367975  1
  In  In58  1  0.16165762  0.50012519  0.03217401  1
  In  In59  1  0.51177194  0.32642765  0.16133229  1
  In  In60  1  0.33767009  0.66376449  0.64273140  1
  In  In61  1  0.81471154  0.16991012  0.66376676  1
  In  In62  1  0.31423659  0.84682861  0.83067776  1
  In  In63  1  -0.00108832  0.48706477  0.49976911  1
  In  In64  1  0.34525472  0.84122615  0.19534363  1
  In  In65  1  0.66093208  -0.00038149  0.66998041  1
  In  In66  1  0.33996831  0.01650526  0.34962001  1
  In  In67  1  0.17220736  0.35380257  0.50037398  1
  In  In68  1  0.14110682  0.70475347  0.80968622  1
  In  In69  1  0.65594423  0.50715830  0.16854287  1
  In  In70  1  0.34338636  0.16876927  0.79306180  1
  In  In71  1  0.82135758  0.00019943  0.16772499  1
  Te  Te72  1  0.09021013  0.08471468  0.08341464  1
  Te  Te73  1  0.06020889  0.05110399  0.46648692  1
  Te  Te74  1  0.09005541  0.09188434  0.73495926  1
  Te  Te75  1  0.06290541  0.40498832  0.07959921  1
  Te  Te76  1  0.09382721  0.43101719  0.40441421  1
  Te  Te77  1  0.09414056  0.42649375  0.75259587  1
  Te  Te78  1  0.10078600  0.73680337  0.10008456  1
  Te  Te79  1  0.05449078  0.75622473  0.40644990  1
  Te  Te80  1  0.03054833  0.76678117  0.71987998  1
  Te  Te81  1  0.44509350  0.09267931  0.07544701  1
  Te  Te82  1  0.40175969  0.10517530  0.45310390  1
  Te  Te83  1  0.45837845  0.07925923  0.77065130  1
  Te  Te84  1  0.44706305  0.43043654  0.06718229  1
  Te  Te85  1  0.44665132  0.39414975  0.40855739  1
  Te  Te86  1  0.42697406  0.37769352  0.73655657  1
  Te  Te87  1  0.40859623  0.75140746  0.08390307  1
  Te  Te88  1  0.40582336  0.73434913  0.43331573  1
  Te  Te89  1  0.40518703  0.74892060  0.75131615  1
  Te  Te90  1  0.73663640  0.08307214  0.07509725  1
  Te  Te91  1  0.75262468  0.08596850  0.43104924  1
  Te  Te92  1  0.72321085  0.10301550  0.76170959  1
  Te  Te93  1  0.75088100  0.40709515  0.09969315  1
  Te  Te94  1  0.73410777  0.38404286  0.41706602  1
  Te  Te95  1  0.74156334  0.42822369  0.80312935  1
  Te  Te96  1  0.73998802  0.71465764  0.06506212  1
  Te  Te97  1  0.76899709  0.75157626  0.43780718  1
  Te  Te98  1  0.77625853  0.75309044  0.72963668  1
  Te  Te99  1  0.07293329  0.24078237  0.29415152  1
  Te  Te100  1  0.08136882  0.25950898  0.57961948  1
  Te  Te101  1  0.06901773  0.23657057  0.91031394  1
  Te  Te102  1  0.08630636  0.58122959  0.24229168  1
  Te  Te103  1  0.07421883  0.59106580  0.58541743  1
  Te  Te104  1  0.09684682  0.58721409  0.91439530  1
  Te  Te105  1  0.06429091  0.92833880  0.26643540  1
  Te  Te106  1  0.11011719  0.93038127  0.55385371  1
  Te  Te107  1  0.08372770  0.92946258  0.88876521  1
  Te  Te108  1  0.40281902  0.24345348  0.23886577  1
  Te  Te109  1  0.45762848  0.28418253  0.58717896  1
  Te  Te110  1  0.39473296  0.24844031  0.91900900  1
  Te  Te111  1  0.43750142  0.56772545  0.27371585  1
  Te  Te112  1  0.44534843  0.56777878  0.59707634  1
  Te  Te113  1  0.44463148  0.56195074  0.90579807  1
  Te  Te114  1  0.43357413  0.95131076  0.24531008  1
  Te  Te115  1  0.40170861  0.93530166  0.60212146  1
  Te  Te116  1  0.43192691  0.91424319  0.89951151  1
  Te  Te117  1  0.74009051  0.21456149  0.26106898  1
  Te  Te118  1  0.73318272  0.27512299  0.59775321  1
  Te  Te119  1  0.72030853  0.30007453  0.89898995  1
  Te  Te120  1  0.76245531  0.58258833  0.24984963  1
  Te  Te121  1  0.74257684  0.56884062  0.56636370  1
  Te  Te122  1  0.74931513  0.56919859  0.88672177  1
  Te  Te123  1  0.73400181  0.91329103  0.25982367  1
  Te  Te124  1  0.77206140  0.93734616  0.59117760  1
  Te  Te125  1  0.75584738  0.90476766  0.90752830  1
  Te  Te126  1  0.22391775  0.27235369  0.10221399  1
  Te  Te127  1  0.24475403  0.24112974  0.42735776  1
  Te  Te128  1  0.24277638  0.25224431  0.71694878  1
  Te  Te129  1  0.27236772  0.58331603  0.09335417  1
  Te  Te130  1  0.25552232  0.58213207  0.43084909  1
  Te  Te131  1  0.26009347  0.59518493  0.76130389  1
  Te  Te132  1  0.25956629  0.92224113  0.07032031  1
  Te  Te133  1  0.25128807  0.90535316  0.39006189  1
  Te  Te134  1  0.25747367  0.94773953  0.74127487  1
  Te  Te135  1  0.61167224  0.26184738  0.07313738  1
  Te  Te136  1  0.56523396  0.26976110  0.41763946  1
  Te  Te137  1  0.62551665  0.23033529  0.75018303  1
  Te  Te138  1  0.59212144  0.59584718  0.06831585  1
  Te  Te139  1  0.60091079  0.55876397  0.40575549  1
  Te  Te140  1  0.57795321  0.56700608  0.72848034  1
  Te  Te141  1  0.57865364  0.91534550  0.09296763  1
  Te  Te142  1  0.56036533  0.92512692  0.42734079  1
  Te  Te143  1  0.60914108  0.88825722  0.75350427  1
  Te  Te144  1  0.90365995  0.23006908  0.08019527  1
  Te  Te145  1  0.94298603  0.22529488  0.45897480  1
  Te  Te146  1  0.89511685  0.26587329  0.75858983  1
  Te  Te147  1  0.90084981  0.56716117  0.08568770  1
  Te  Te148  1  0.90631627  0.58390801  0.42659368  1
  Te  Te149  1  0.91859298  0.56828843  0.73042053  1
  Te  Te150  1  0.92738623  0.92582401  0.07738329  1
  Te  Te151  1  0.91440756  0.93352226  0.43138041  1
  Te  Te152  1  0.89081824  0.95571156  0.72013534  1
  Te  Te153  1  0.24568535  0.09231748  0.24791296  1
  Te  Te154  1  0.29765797  0.07484564  0.56704102  1
  Te  Te155  1  0.25618158  0.08914077  0.89788216  1
  Te  Te156  1  0.24618690  0.42140348  0.25313859  1
  Te  Te157  1  0.27645350  0.41985216  0.59015647  1
  Te  Te158  1  0.25010099  0.41988897  0.91969713  1
  Te  Te159  1  0.23988858  0.76571104  0.26328537  1
  Te  Te160  1  0.22809415  0.75815669  0.59674446  1
  Te  Te161  1  0.24164638  0.75321143  0.93014255  1
  Te  Te162  1  0.59690402  0.11719312  0.24774700  1
  Te  Te163  1  0.58078071  0.07693657  0.56567402  1
  Te  Te164  1  0.57248167  0.07170857  0.89648189  1
  Te  Te165  1  0.59240671  0.40642582  0.25393751  1
  Te  Te166  1  0.56964304  0.37778420  0.61594249  1
  Te  Te167  1  0.60615825  0.40282070  0.90617771  1
  Te  Te168  1  0.57744141  0.75117093  0.26409800  1
  Te  Te169  1  0.59206049  0.75808117  0.56953539  1
  Te  Te170  1  0.60713418  0.74744447  0.91025144  1
  Te  Te171  1  0.91652032  0.07218794  0.26027323  1
  Te  Te172  1  0.92629202  0.12486716  0.57088932  1
  Te  Te173  1  0.88276043  0.08456707  0.91211277  1
  Te  Te174  1  0.91724928  0.39301820  0.27499491  1
  Te  Te175  1  0.89353935  0.40824143  0.57553282  1
  Te  Te176  1  0.92351666  0.39257360  0.92389556  1
  Te  Te177  1  0.89405483  0.74490494  0.22958827  1
  Te  Te178  1  0.90221834  0.76986407  0.62361420  1
  Te  Te179  1  0.93858372  0.75264668  0.92470816  1
