# generated using pymatgen
data_In2Te3
_symmetry_space_group_name_H-M   'P 1'
_cell_length_a   18.75951275
_cell_length_b   18.76043845
_cell_length_c   18.77140296
_cell_angle_alpha   89.97619195
_cell_angle_beta   89.99223301
_cell_angle_gamma   90.03991750
_symmetry_Int_Tables_number   1
_chemical_formula_structural   In2Te3
_chemical_formula_sum   'In72 Te108'
_cell_volume   6606.34308382
_cell_formula_units_Z   36
loop_
 _symmetry_equiv_pos_site_id
 _symmetry_equiv_pos_as_xyz
  1  'x, y, z'
loop_
 _atom_site_type_symbol
 _atom_site_label
 _atom_site_symmetry_multiplicity
 _atom_site_fract_x
 _atom_site_fract_y
 _atom_site_fract_z
 _atom_site_occupancy
  In  In0  1  0.34776929  -0.03594579  0.01570254  1
  In  In1  1  0.35957360  0.53197691  0.50031105  1
  In  In2  1  -0.02242996  0.70009515  0.31241907  1
  In  In3  1  0.32554384  0.34469647  0.34380855  1
  In  In4  1  0.65990134  0.33240455  0.34401587  1
  In  In5  1  0.33202432  0.68834098  0.00860033  1
  In  In6  1  0.80956240  0.32325259  0.19324564  1
  In  In7  1  0.67286435  0.68969033  0.01200736  1
  In  In8  1  -0.01071928  0.84693381  0.82407381  1
  In  In9  1  0.83764240  0.31106508  0.49068863  1
  In  In10  1  0.50614134  0.65724208  0.82021919  1
  In  In11  1  -0.01021512  0.48414553  0.50108041  1
  In  In12  1  0.15605098  0.01040627  0.83734813  1
  In  In13  1  0.62883431  0.69291527  0.33430735  1
  In  In14  1  0.81851195  0.33145065  0.83634168  1
  In  In15  1  0.50088929  0.33425263  0.51947527  1
  In  In16  1  0.65613320  0.84275012  0.81338353  1
  In  In17  1  0.16049366  0.33387718  0.81868610  1
  In  In18  1  0.18951020  0.50692268  0.67335466  1
  In  In19  1  0.83638689  0.82781104  0.01994259  1
  In  In20  1  0.64694531  0.82038888  0.50609252  1
  In  In21  1  0.35427823  0.34167874  -0.00930546  1
  In  In22  1  0.16863629  0.53633551  -0.00854515  1
  In  In23  1  0.36838667  0.54717159  0.20159067  1
  In  In24  1  0.17146283  0.18139885  -0.00912928  1
  In  In25  1  0.79931306  0.00390113  0.49306467  1
  In  In26  1  0.33573335  0.51804233  0.80608291  1
  In  In27  1  0.16547099  0.14775586  0.31263001  1
  In  In28  1  0.85148165  0.51312522  0.00430828  1
  In  In29  1  0.64064908  -0.03309857  0.02005385  1
  In  In30  1  0.15746270  0.15420655  0.66901430  1
  In  In31  1  0.19301402  0.83190818  0.33721305  1
  In  In32  1  -0.00849945  0.33487967  0.66034814  1
  In  In33  1  0.50839907  0.31390428  0.79527428  1
  In  In34  1  0.34347188  0.82941115  0.84529933  1
  In  In35  1  0.82161921  -0.00215432  0.80553884  1
  In  In36  1  0.32571232  0.14714957  0.18163554  1
  In  In37  1  0.16970700  0.82926199  0.65426419  1
  In  In38  1  0.52838217  0.51445677  0.01676276  1
  In  In39  1  0.35887885  0.83864864  0.19538525  1
  In  In40  1  0.65717969  0.52683739  0.17641016  1
  In  In41  1  -0.01776485  -0.01726880  -0.01537765  1
  In  In42  1  0.18260494  -0.01018618  0.16959279  1
  In  In43  1  0.65622408  0.16103984  0.18921188  1
  In  In44  1  0.00704681  -0.01421622  0.33513753  1
  In  In45  1  0.32670385  0.14534278  0.79853920  1
  In  In46  1  0.52565329  0.33773392  0.17632595  1
  In  In47  1  0.50165673  0.12742412  -0.01502586  1
  In  In48  1  0.81142386  0.68014281  0.81167720  1
  In  In49  1  0.50745256  0.15465816  0.64322993  1
  In  In50  1  0.19484912  0.67218427  0.50952991  1
  In  In51  1  0.82933528  0.17479825  -0.01289427  1
  In  In52  1  0.15818634  0.52249392  0.34234478  1
  In  In53  1  0.50856475  0.00053883  0.49815142  1
  In  In54  1  0.16696031  0.32354579  0.50514889  1
  In  In55  1  -0.00065323  0.84293908  0.50806854  1
  In  In56  1  0.81979682  0.50104326  0.34100761  1
  In  In57  1  0.03210512  0.68510731  0.01788119  1
  In  In58  1  0.18432790  -0.02460229  0.49098827  1
  In  In59  1  0.50843995  0.13891002  0.33738419  1
  In  In60  1  0.14451053  0.32222791  0.19847122  1
  In  In61  1  0.50650468  0.51924640  0.66622475  1
  In  In62  1  -0.01879601  0.13465705  0.16956907  1
  In  In63  1  0.80724567  -0.01899649  0.17572338  1
  In  In64  1  0.68915662  0.32423539  -0.01355089  1
  In  In65  1  0.65358497  0.49352200  0.81668852  1
  In  In66  1  0.00989275  0.33152053  -0.01290885  1
  In  In67  1  -0.01467734  0.66518960  0.67187326  1
  In  In68  1  0.35688221  -0.01302351  0.64817869  1
  In  In69  1  -0.00845762  0.51428637  0.16422698  1
  In  In70  1  0.79880297  0.64607579  0.51872619  1
  In  In71  1  0.82700341  0.15300505  0.64938260  1
  Te  Te72  1  0.09068320  0.07799079  0.07449770  1
  Te  Te73  1  0.08817506  0.07729094  0.42527452  1
  Te  Te74  1  0.05991664  0.07555477  0.74740397  1
  Te  Te75  1  0.08824933  0.42224340  0.08250365  1
  Te  Te76  1  0.08193728  0.40659045  0.40729959  1
  Te  Te77  1  0.07414588  0.43469951  0.74441852  1
  Te  Te78  1  0.10386738  0.78344343  0.09698022  1
  Te  Te79  1  0.08554255  0.74772726  0.42339845  1
  Te  Te80  1  0.08478155  0.74854247  0.75218518  1
  Te  Te81  1  0.42767007  0.06319932  0.10311560  1
  Te  Te82  1  0.40644515  0.08388582  0.42873168  1
  Te  Te83  1  0.44683913  0.05571958  0.75645026  1
  Te  Te84  1  0.42256304  0.42997293  0.10160328  1
  Te  Te85  1  0.43115649  0.42734384  0.41525232  1
  Te  Te86  1  0.41254399  0.41279285  0.72672374  1
  Te  Te87  1  0.43372397  0.77394222  0.07932320  1
  Te  Te88  1  0.47682707  0.71944921  0.40559893  1
  Te  Te89  1  0.42979728  0.75916290  0.74383075  1
  Te  Te90  1  0.74483576  0.08750294  0.07992241  1
  Te  Te91  1  0.74123577  0.08475477  0.38304887  1
  Te  Te92  1  0.72199341  0.05492030  0.70756473  1
  Te  Te93  1  0.74565700  0.42686517  0.09138337  1
  Te  Te94  1  0.73533536  0.42535072  0.43857951  1
  Te  Te95  1  0.73745126  0.40367516  0.73607879  1
  Te  Te96  1  0.74059114  0.76895054  0.12060582  1
  Te  Te97  1  0.75066928  0.74891397  0.41917949  1
  Te  Te98  1  0.75482363  0.78208207  0.71820074  1
  Te  Te99  1  0.03790076  0.23724469  0.27552015  1
  Te  Te100  1  0.06493199  0.23318045  0.57371304  1
  Te  Te101  1  0.07043606  0.23176252  0.88818326  1
  Te  Te102  1  0.08230775  0.61019166  0.24169278  1
  Te  Te103  1  0.08720043  0.58191648  0.57411503  1
  Te  Te104  1  0.06254123  0.59190918  0.90744526  1
  Te  Te105  1  0.08685625  0.89327409  0.24315450  1
  Te  Te106  1  0.07861696  0.93715215  0.59742950  1
  Te  Te107  1  0.09461716  0.90018093  0.92366780  1
  Te  Te108  1  0.42008393  0.25450005  0.25163130  1
  Te  Te109  1  0.40437173  0.24120786  0.58191043  1
  Te  Te110  1  0.41925956  0.23071063  0.90118175  1
  Te  Te111  1  0.46900949  0.62302302  0.28715796  1
  Te  Te112  1  0.42881407  0.62560826  0.59470185  1
  Te  Te113  1  0.41528038  0.57465517  0.92511534  1
  Te  Te114  1  0.45733502  0.91738716  0.27802210  1
  Te  Te115  1  0.45071981  0.88721700  0.58392897  1
  Te  Te116  1  0.44294195  0.91694488  0.91307383  1
  Te  Te117  1  0.75570923  0.21666473  0.29598941  1
  Te  Te118  1  0.73551084  0.24120193  0.57052307  1
  Te  Te119  1  0.72512662  0.21711355  0.88337602  1
  Te  Te120  1  0.75147054  0.60822250  0.26080297  1
  Te  Te121  1  0.69960699  0.57052828  0.59706133  1
  Te  Te122  1  0.73445348  0.57511384  0.92787994  1
  Te  Te123  1  0.75100718  0.87004979  0.25718844  1
  Te  Te124  1  0.73150344  0.91139298  0.59300362  1
  Te  Te125  1  0.75591836  0.91451488  0.92305607  1
  Te  Te126  1  0.25205070  0.25625983  0.09703107  1
  Te  Te127  1  0.25007451  0.23341972  0.41320236  1
  Te  Te128  1  0.25509905  0.26095871  0.72513188  1
  Te  Te129  1  0.25481852  0.59418564  0.10101465  1
  Te  Te130  1  0.27455700  0.60758731  0.39612524  1
  Te  Te131  1  0.25838564  0.62192541  0.73619522  1
  Te  Te132  1  0.23859633  0.87824140  0.08100464  1
  Te  Te133  1  0.29306857  0.88800982  0.43435910  1
  Te  Te134  1  0.25088904  0.92739723  0.74880967  1
  Te  Te135  1  0.58156305  0.23869255  0.07263433  1
  Te  Te136  1  0.58184892  0.23559209  0.43134241  1
  Te  Te137  1  0.60753386  0.24276759  0.71352251  1
  Te  Te138  1  0.56470204  0.62851833  0.10865892  1
  Te  Te139  1  0.56511210  0.60124038  0.43416684  1
  Te  Te140  1  0.62504463  0.61844250  0.72823978  1
  Te  Te141  1  0.56199015  0.87701458  0.10741103  1
  Te  Te142  1  0.58542434  0.91312351  0.40116299  1
  Te  Te143  1  0.56279460  0.94713588  0.76470428  1
  Te  Te144  1  0.91362769  0.26075957  0.08499644  1
  Te  Te145  1  0.93326054  0.26098847  0.39302904  1
  Te  Te146  1  0.90760726  0.24300603  0.74772054  1
  Te  Te147  1  0.90725009  0.62032518  0.09522057  1
  Te  Te148  1  0.92229729  0.59491676  0.41741338  1
  Te  Te149  1  0.88892769  0.57734038  0.74038816  1
  Te  Te150  1  0.93120366  0.91121139  0.10761737  1
  Te  Te151  1  0.90168810  0.91043096  0.41516225  1
  Te  Te152  1  0.90734008  0.91199754  0.72069041  1
  Te  Te153  1  0.27382716  0.04209812  0.28009588  1
  Te  Te154  1  0.25733987  0.07911302  0.57936622  1
  Te  Te155  1  0.26744042  0.07735877  0.93154900  1
  Te  Te156  1  0.24764873  0.43346532  0.24656280  1
  Te  Te157  1  0.26148504  0.42771486  0.56511275  1
  Te  Te158  1  0.24474480  0.42158908  0.91131220  1
  Te  Te159  1  0.26998023  0.73565989  0.25442364  1
  Te  Te160  1  0.28042188  0.78226978  0.56376592  1
  Te  Te161  1  0.24274667  0.73600227  0.90152731  1
  Te  Te162  1  0.59645980  0.04458082  0.26003852  1
  Te  Te163  1  0.61511703  0.06292996  0.58574021  1
  Te  Te164  1  0.60542993  0.05667702  0.90462940  1
  Te  Te165  1  0.57624253  0.44165260  0.27465332  1
  Te  Te166  1  0.59592853  0.43222327  0.58298922  1
  Te  Te167  1  0.56679891  0.40257003  0.91641051  1
  Te  Te168  1  0.56512027  0.81237094  0.25506528  1
  Te  Te169  1  0.54118200  0.75821190  0.59393373  1
  Te  Te170  1  0.57777387  0.75672261  0.91482396  1
  Te  Te171  1  0.89150320  0.06823836  0.27262385  1
  Te  Te172  1  0.91255950  0.07687826  0.55596877  1
  Te  Te173  1  0.91412809  0.08528915  0.89684819  1
  Te  Te174  1  0.91600187  0.41834273  0.25611468  1
  Te  Te175  1  0.88814985  0.42511102  0.59413700  1
  Te  Te176  1  0.92290143  0.42436297  0.90289362  1
  Te  Te177  1  0.88449980  0.79040837  0.24293802  1
  Te  Te178  1  0.90094454  0.74961081  0.57792229  1
  Te  Te179  1  0.90915932  0.74522205  0.91205716  1
