# generated using pymatgen
data_In2Te3
_symmetry_space_group_name_H-M   'P 1'
_cell_length_a   19.01663248
_cell_length_b   18.98909478
_cell_length_c   18.97027637
_cell_angle_alpha   89.98152518
_cell_angle_beta   90.00832269
_cell_angle_gamma   90.14750150
_symmetry_Int_Tables_number   1
_chemical_formula_structural   In2Te3
_chemical_formula_sum   'In72 Te108'
_cell_volume   6850.30750517
_cell_formula_units_Z   36
loop_
 _symmetry_equiv_pos_site_id
 _symmetry_equiv_pos_as_xyz
  1  'x, y, z'
loop_
 _atom_site_type_symbol
 _atom_site_label
 _atom_site_symmetry_multiplicity
 _atom_site_fract_x
 _atom_site_fract_y
 _atom_site_fract_z
 _atom_site_occupancy
  In  In0  1  0.64255302  0.35743313  0.67893510  1
  In  In1  1  -0.03018768  0.83155162  0.49211222  1
  In  In2  1  0.82595582  0.15488921  0.65323562  1
  In  In3  1  0.30471482  0.18726404  0.17727968  1
  In  In4  1  0.01028077  0.50072199  0.17276562  1
  In  In5  1  0.43679344  0.35166980  0.46842651  1
  In  In6  1  0.01194222  0.84096386  0.86356194  1
  In  In7  1  0.67432375  0.16208761  0.87170821  1
  In  In8  1  0.66830327  0.52454190  0.83944602  1
  In  In9  1  0.16602873  0.84694284  0.30606079  1
  In  In10  1  0.32364819  0.17545026  0.52182585  1
  In  In11  1  0.50378688  0.84890614  0.31646924  1
  In  In12  1  0.16640548  0.66508333  0.48100475  1
  In  In13  1  0.86735914  0.30975575  0.48824512  1
  In  In14  1  0.32645769  0.82275665  0.50406247  1
  In  In15  1  0.65281592  0.32707120  0.32689647  1
  In  In16  1  -0.01010892  0.35086416  0.00154130  1
  In  In17  1  0.64893785  0.18903528  0.48701909  1
  In  In18  1  0.68917020  0.36629665  0.02400379  1
  In  In19  1  0.18794980  0.51115741  0.65612487  1
  In  In20  1  0.51033059  0.79921247  0.66812435  1
  In  In21  1  0.63309385  0.13573754  0.15537854  1
  In  In22  1  -0.02649010  0.52797632  0.82171303  1
  In  In23  1  0.15490425  0.34702491  0.85764823  1
  In  In24  1  0.82489316  0.66137354  0.51378871  1
  In  In25  1  0.01229473  0.17511074  0.45276910  1
  In  In26  1  0.68813166  0.67653469  0.65861166  1
  In  In27  1  -0.01873029  0.13616130  0.82688920  1
  In  In28  1  0.49685211  0.63277141  0.49353104  1
  In  In29  1  0.70236814  0.83938169  0.47224426  1
  In  In30  1  0.49872698  0.88448370  0.07534366  1
  In  In31  1  -0.00128514  -0.02989406  0.67379392  1
  In  In32  1  0.84253959  0.85324235  0.03230861  1
  In  In33  1  0.32289644  0.14422517  0.84277959  1
  In  In34  1  0.83340053  0.00226563  0.51154136  1
  In  In35  1  0.84332646  -0.00367854  0.85977313  1
  In  In36  1  0.14955199  0.15333952  0.65960189  1
  In  In37  1  0.47986778  -0.00727018  0.51623674  1
  In  In38  1  0.49743587  0.47805666  0.66306300  1
  In  In39  1  0.15289362  0.02108158  0.48615255  1
  In  In40  1  0.49398527  0.16741043  -0.01115234  1
  In  In41  1  0.50539418  0.32594316  0.83445272  1
  In  In42  1  0.17342996  0.50494072  0.01271304  1
  In  In43  1  0.15911862  0.67683401  0.16428473  1
  In  In44  1  0.49037202  0.67737209  0.16702233  1
  In  In45  1  0.34624272  0.66621112  0.68336261  1
  In  In46  1  0.86631662  0.82565945  0.30021495  1
  In  In47  1  0.66710254  0.50606640  0.47379417  1
  In  In48  1  0.32741806  0.65860601  0.32179814  1
  In  In49  1  0.32989404  0.00705623  0.02726417  1
  In  In50  1  0.66496083  -0.00157567  0.64192838  1
  In  In51  1  0.21646036  0.36528623  0.41572391  1
  In  In52  1  0.49347191  0.64796275  0.84991981  1
  In  In53  1  0.34812494  0.00170035  0.30897135  1
  In  In54  1  0.83017373  0.64487604  0.14761952  1
  In  In55  1  0.82495510  0.18105532  0.03687182  1
  In  In56  1  0.31366916  -0.01954562  0.73396127  1
  In  In57  1  0.02571980  0.68073113  0.00203204  1
  In  In58  1  0.15134622  0.19303431  0.04017549  1
  In  In59  1  0.66104876  0.66429460  0.00637144  1
  In  In60  1  0.47705675  0.50533876  0.01668621  1
  In  In61  1  0.32102068  0.34516875  0.68297619  1
  In  In62  1  0.19198357  0.83330913  0.72581592  1
  In  In63  1  -0.00120855  0.64073455  0.32028665  1
  In  In64  1  0.48798515  0.34041387  0.17497131  1
  In  In65  1  0.83885194  0.13789212  0.27507949  1
  In  In66  1  0.69215900  0.82163335  0.81358718  1
  In  In67  1  0.00621177  0.31587378  0.67836429  1
  In  In68  1  0.02975764  0.46868887  0.50709400  1
  In  In69  1  0.14057645  -0.00047583  0.13600936  1
  In  In70  1  0.68920177  0.00555587  0.31558789  1
  In  In71  1  0.84832409  0.49757628  0.32079458  1
  Te  Te72  1  0.05824382  0.12531808  0.13399022  1
  Te  Te73  1  0.07084427  0.06715064  0.37509240  1
  Te  Te74  1  0.09605033  0.05094650  0.76466033  1
  Te  Te75  1  0.09727537  0.40335571  0.09678793  1
  Te  Te76  1  0.07004248  0.39570004  0.38607384  1
  Te  Te77  1  0.08950834  0.42427914  0.74370771  1
  Te  Te78  1  0.12325472  0.77674464  0.05870070  1
  Te  Te79  1  0.07627785  0.75555960  0.39822326  1
  Te  Te80  1  0.07648599  0.74570074  0.76646209  1
  Te  Te81  1  0.41288185  0.10941426  0.10151360  1
  Te  Te82  1  0.40245898  0.08366818  0.42443518  1
  Te  Te83  1  0.41870916  0.07989784  0.75376243  1
  Te  Te84  1  0.39181810  0.40182595  0.08021145  1
  Te  Te85  1  0.40522959  0.44734508  0.35883478  1
  Te  Te86  1  0.40856236  0.42894553  0.77454379  1
  Te  Te87  1  0.43360170  0.75188538  0.05228753  1
  Te  Te88  1  0.42363983  0.75249373  0.41441280  1
  Te  Te89  1  0.41440754  0.76194824  0.77921728  1
  Te  Te90  1  0.74028552  0.06410651  0.07828328  1
  Te  Te91  1  0.75521908  0.09911980  0.42493783  1
  Te  Te92  1  0.75109889  0.06838199  0.75276738  1
  Te  Te93  1  0.78259277  0.42996714  0.11418574  1
  Te  Te94  1  0.76661923  0.39836793  0.41387918  1
  Te  Te95  1  0.74192453  0.42695908  0.75764420  1
  Te  Te96  1  0.74169928  0.75838939  0.09614039  1
  Te  Te97  1  0.77574928  0.73722109  0.39193386  1
  Te  Te98  1  0.78222150  0.70829011  0.77050327  1
  Te  Te99  1  0.16043925  0.28937506  0.29277021  1
  Te  Te100  1  0.08306772  0.24982852  0.56438053  1
  Te  Te101  1  0.06595123  0.23641216  0.91115593  1
  Te  Te102  1  0.11488289  0.56459500  0.26275452  1
  Te  Te103  1  0.08143720  0.59032580  0.58197852  1
  Te  Te104  1  0.08577421  0.57841759  0.90958857  1
  Te  Te105  1  0.05925952  0.90430567  0.22181069  1
  Te  Te106  1  0.08226266  0.90972673  0.56243503  1
  Te  Te107  1  0.09099222  0.95920127  0.89519198  1
  Te  Te108  1  0.40527547  0.25335482  0.26504103  1
  Te  Te109  1  0.41790899  0.26546979  0.59783511  1
  Te  Te110  1  0.39785909  0.25679106  0.91421141  1
  Te  Te111  1  0.41301271  0.57129903  0.23968857  1
  Te  Te112  1  0.39882871  0.56270051  0.58229345  1
  Te  Te113  1  0.39389350  0.61092203  0.95228823  1
  Te  Te114  1  0.42191207  0.91596655  0.21090128  1
  Te  Te115  1  0.40463996  0.89927205  0.60963545  1
  Te  Te116  1  0.43919947  0.94208927  0.95208433  1
  Te  Te117  1  0.72881499  0.23051007  0.23606570  1
  Te  Te118  1  0.74706048  0.26181354  0.58062458  1
  Te  Te119  1  0.76260590  0.26800499  0.92807748  1
  Te  Te120  1  0.75135381  0.58315258  0.25507860  1
  Te  Te121  1  0.74903097  0.55439916  0.59112908  1
  Te  Te122  1  0.75971725  0.58064874  0.93758891  1
  Te  Te123  1  0.75950576  0.90421978  0.23883837  1
  Te  Te124  1  0.76738973  0.89587052  0.59683133  1
  Te  Te125  1  0.74115418  0.90859040  0.92787165  1
  Te  Te126  1  0.26199791  0.28525784  0.07426305  1
  Te  Te127  1  0.22829922  0.21293494  0.41406873  1
  Te  Te128  1  0.23076078  0.24229325  0.75296201  1
  Te  Te129  1  0.25721823  0.60128405  0.08644177  1
  Te  Te130  1  0.26141954  0.57261902  0.42201983  1
  Te  Te131  1  0.25364808  0.58600660  0.76303466  1
  Te  Te132  1  0.23512378  0.90198125  0.07526558  1
  Te  Te133  1  0.25685628  0.92028465  0.41257398  1
  Te  Te134  1  0.24425452  0.90688911  0.85010455  1
  Te  Te135  1  0.58673337  0.26311776  0.06883654  1
  Te  Te136  1  0.54272598  0.25716760  0.40525723  1
  Te  Te137  1  0.59828750  0.23595277  0.75711814  1
  Te  Te138  1  0.58442730  0.57209569  0.09740826  1
  Te  Te139  1  0.58101100  0.58329986  0.38570998  1
  Te  Te140  1  0.57237183  0.59419381  0.72563615  1
  Te  Te141  1  0.60377411  0.99031400  0.10430950  1
  Te  Te142  1  0.58634046  0.92735815  0.42808827  1
  Te  Te143  1  0.58927355  0.90845784  0.73837099  1
  Te  Te144  1  0.92214296  0.26904948  0.10651309  1
  Te  Te145  1  0.91535982  0.24262957  0.35985260  1
  Te  Te146  1  0.89846206  0.24143564  0.75493495  1
  Te  Te147  1  0.93592534  0.57427484  0.06534540  1
  Te  Te148  1  0.92813490  0.57023944  0.43498995  1
  Te  Te149  1  0.89707258  0.61065189  0.73047016  1
  Te  Te150  1  0.95297754  0.92740386  0.09764770  1
  Te  Te151  1  0.91103386  0.93610247  0.40090153  1
  Te  Te152  1  0.90427784  0.89732511  0.76323251  1
  Te  Te153  1  0.23394397  0.06845831  0.24042066  1
  Te  Te154  1  0.25390509  0.05830617  0.60199742  1
  Te  Te155  1  0.23195698  0.09711193  0.95223436  1
  Te  Te156  1  0.29165586  0.38103761  0.28178484  1
  Te  Te157  1  0.23897635  0.39931413  0.56909415  1
  Te  Te158  1  0.25800446  0.42834019  0.91838314  1
  Te  Te159  1  0.26873282  0.76610409  0.23395622  1
  Te  Te160  1  0.23629662  0.74733140  0.59859502  1
  Te  Te161  1  0.21119657  0.75490978  0.85506673  1
  Te  Te162  1  0.56928886  0.07638406  0.27483090  1
  Te  Te163  1  0.57020364  0.09884830  0.58107188  1
  Te  Te164  1  0.57450466  0.06646027  0.91737591  1
  Te  Te165  1  0.58689860  0.42525928  0.24292394  1
  Te  Te166  1  0.57104311  0.41107417  0.54709047  1
  Te  Te167  1  0.57871578  0.42622098  0.92106099  1
  Te  Te168  1  0.58823846  0.75612559  0.24499477  1
  Te  Te169  1  0.59616829  0.74592155  0.55314841  1
  Te  Te170  1  0.59116987  0.75065448  0.90347963  1
  Te  Te171  1  0.91683887  0.04718896  0.19022227  1
  Te  Te172  1  0.94154384  0.08644933  0.58342663  1
  Te  Te173  1  0.91744940  0.08583945  0.95428585  1
  Te  Te174  1  0.89851181  0.40370653  0.21399587  1
  Te  Te175  1  0.91992597  0.40797014  0.59260890  1
  Te  Te176  1  0.91377767  0.41593935  0.89502121  1
  Te  Te177  1  0.94201328  0.72883788  0.21260646  1
  Te  Te178  1  0.91705017  0.74236404  0.59546219  1
  Te  Te179  1  0.91022199  0.75576868  0.93822788  1
