# generated using pymatgen
data_In2Te3
_symmetry_space_group_name_H-M   'P 1'
_cell_length_a   18.91259481
_cell_length_b   18.91105112
_cell_length_c   18.89133074
_cell_angle_alpha   89.87152910
_cell_angle_beta   89.98125056
_cell_angle_gamma   90.06251289
_symmetry_Int_Tables_number   1
_chemical_formula_structural   In2Te3
_chemical_formula_sum   'In72 Te108'
_cell_volume   6756.59619725
_cell_formula_units_Z   36
loop_
 _symmetry_equiv_pos_site_id
 _symmetry_equiv_pos_as_xyz
  1  'x, y, z'
loop_
 _atom_site_type_symbol
 _atom_site_label
 _atom_site_symmetry_multiplicity
 _atom_site_fract_x
 _atom_site_fract_y
 _atom_site_fract_z
 _atom_site_occupancy
  In  In0  1  0.82246403  0.66165496  0.21739259  1
  In  In1  1  0.34068220  0.66674032  0.31698986  1
  In  In2  1  0.32827336  0.34349722  0.66154485  1
  In  In3  1  0.16638820  0.67854234  0.81466583  1
  In  In4  1  0.82743999  0.31262159  0.85874974  1
  In  In5  1  0.00702801  0.15531830  0.85242419  1
  In  In6  1  0.51686789  0.17854585  -0.00105526  1
  In  In7  1  0.81854393  0.17971700  0.34424173  1
  In  In8  1  0.00005896  0.17276180  0.50312114  1
  In  In9  1  -0.02618025  0.48185593  0.84242553  1
  In  In10  1  0.51635370  0.67506539  0.82888002  1
  In  In11  1  0.36280250  0.82826710  0.53256748  1
  In  In12  1  0.33932501  0.48207640  0.48544205  1
  In  In13  1  0.67387624  -0.02377714  0.30759521  1
  In  In14  1  0.00408131  0.01368587  0.68423328  1
  In  In15  1  0.65663013  0.00026729  0.65434629  1
  In  In16  1  0.31826059  0.85389883  0.15999699  1
  In  In17  1  0.11979090  0.63651793  0.50180690  1
  In  In18  1  -0.05454254  0.03242038  0.05036773  1
  In  In19  1  0.83577469  0.65064423  0.46309261  1
  In  In20  1  0.52337337  0.03165816  0.48481159  1
  In  In21  1  0.67243769  0.39823345  0.32837601  1
  In  In22  1  0.84713516  -0.01906732  0.50431137  1
  In  In23  1  0.66731477  0.84075293  0.86086026  1
  In  In24  1  -0.01318461  0.80731829  0.50157054  1
  In  In25  1  0.35480008  0.19605581  0.16939557  1
  In  In26  1  0.17469055  0.32926038  0.84333778  1
  In  In27  1  0.49709665  0.84532545  0.63410069  1
  In  In28  1  -0.02221775  -0.00371334  0.32803551  1
  In  In29  1  0.48975379  0.84150603  0.31671793  1
  In  In30  1  0.68056996  0.18033968  0.50785305  1
  In  In31  1  0.83758035  0.66154480  0.85332330  1
  In  In32  1  0.48309218  0.03440231  0.81089491  1
  In  In33  1  0.53653573  0.63682117  0.14603880  1
  In  In34  1  0.53046147  0.03993661  0.14889116  1
  In  In35  1  0.65965791  0.32380610  0.65869028  1
  In  In36  1  -0.01207891  0.66477564  0.02637772  1
  In  In37  1  0.68041172  0.65417418  0.68564060  1
  In  In38  1  0.33667818  0.02769373  0.35866808  1
  In  In39  1  0.13607572  0.19124476  0.32200238  1
  In  In40  1  0.50080318  0.82740257  -0.01127965  1
  In  In41  1  0.69393958  0.02875051  0.03473046  1
  In  In42  1  0.17398886  0.16309535  -0.00978801  1
  In  In43  1  0.32758712  0.83241088  0.83714095  1
  In  In44  1  0.64631394  0.17740281  0.82679473  1
  In  In45  1  0.35433061  0.48654389  0.13895642  1
  In  In46  1  0.36572405  0.31786106  0.30970199  1
  In  In47  1  0.68591715  0.81589652  0.16484065  1
  In  In48  1  0.64722391  0.45362980  0.85343076  1
  In  In49  1  0.80731014  -0.01888472  0.83041020  1
  In  In50  1  0.15766761  0.84068674  0.68543377  1
  In  In51  1  0.00687345  0.82954823  0.83753111  1
  In  In52  1  0.16611875  0.00646016  0.16662796  1
  In  In53  1  0.34332060  0.17090665  0.49442927  1
  In  In54  1  0.18805549  0.00164951  0.84064592  1
  In  In55  1  0.83645736  0.48029276  0.63959072  1
  In  In56  1  0.18721000  -0.00340729  0.50552728  1
  In  In57  1  0.52727374  0.36560861  0.49018401  1
  In  In58  1  -0.02141249  0.49605927  0.18314581  1
  In  In59  1  0.53721522  0.62430298  0.46483331  1
  In  In60  1  0.15163905  0.50571277  0.33283616  1
  In  In61  1  0.77423208  0.46335310  0.02968950  1
  In  In62  1  0.15696104  0.32747106  0.18978851  1
  In  In63  1  0.14735119  0.82220239  0.35693343  1
  In  In64  1  0.15397351  0.50762190  0.00359597  1
  In  In65  1  0.15713286  0.34909337  0.49605657  1
  In  In66  1  0.68714139  0.79892115  0.48596284  1
  In  In67  1  0.35375814  0.48869082  0.83110505  1
  In  In68  1  0.33412000  0.66042745  0.63544629  1
  In  In69  1  0.00801408  0.33290967  0.68153091  1
  In  In70  1  0.32722546  0.66822285  0.00092057  1
  In  In71  1  0.10763418  0.86489101  0.02262786  1
  Te  Te72  1  0.07749105  0.10360129  0.09343943  1
  Te  Te73  1  0.08852362  0.07222891  0.41463271  1
  Te  Te74  1  0.10777602  0.09889636  0.75253975  1
  Te  Te75  1  0.07460941  0.41533769  0.09218983  1
  Te  Te76  1  0.06597935  0.40271924  0.39334096  1
  Te  Te77  1  0.09279029  0.42955375  0.76267657  1
  Te  Te78  1  0.08704860  0.74429654  0.10427949  1
  Te  Te79  1  0.04615403  0.71500893  0.39434519  1
  Te  Te80  1  0.05544961  0.73474032  0.72741978  1
  Te  Te81  1  0.40982326  0.09097419  0.07429402  1
  Te  Te82  1  0.44815727  0.12535185  0.39111780  1
  Te  Te83  1  0.39257251  0.14331101  0.78002070  1
  Te  Te84  1  0.42736595  0.37638391  0.06943858  1
  Te  Te85  1  0.43871058  0.42981608  0.38409120  1
  Te  Te86  1  0.43681939  0.40646110  0.74152886  1
  Te  Te87  1  0.41564852  0.75109048  0.09590075  1
  Te  Te88  1  0.43131230  0.73675564  0.42000241  1
  Te  Te89  1  0.41171146  0.74731937  0.74269135  1
  Te  Te90  1  0.77881614  0.10008716  0.13546285  1
  Te  Te91  1  0.74361746  0.06063439  0.42595612  1
  Te  Te92  1  0.74219765  0.08811754  0.74337851  1
  Te  Te93  1  0.74788463  0.33882345  0.10897020  1
  Te  Te94  1  0.79586248  0.43228698  0.41245568  1
  Te  Te95  1  0.76129525  0.40823980  0.75814858  1
  Te  Te96  1  0.75336760  0.70760422  0.09332505  1
  Te  Te97  1  0.75614234  0.73785127  0.37065386  1
  Te  Te98  1  0.75545800  0.75796119  0.76655214  1
  Te  Te99  1  0.03440631  0.27064186  0.25153617  1
  Te  Te100  1  0.09872859  0.24659942  0.59293753  1
  Te  Te101  1  0.07215688  0.26418988  0.93481047  1
  Te  Te102  1  0.07829331  0.59013087  0.23826022  1
  Te  Te103  1  0.04336388  0.54384273  0.58022712  1
  Te  Te104  1  0.07114282  0.59499152  0.90726873  1
  Te  Te105  1  0.08207858  0.91385791  0.25308546  1
  Te  Te106  1  0.07051148  0.91909845  0.57616547  1
  Te  Te107  1  0.05851420  0.95297259  0.91149242  1
  Te  Te108  1  0.47056029  0.27876027  0.21215810  1
  Te  Te109  1  0.42571956  0.27649698  0.56447552  1
  Te  Te110  1  0.43821413  0.28927068  0.93971387  1
  Te  Te111  1  0.43166494  0.57419925  0.23878152  1
  Te  Te112  1  0.43387443  0.56840856  0.56860514  1
  Te  Te113  1  0.42748338  0.58860309  0.92139141  1
  Te  Te114  1  0.40811548  0.94673781  0.24298780  1
  Te  Te115  1  0.42089877  0.96459739  0.57673074  1
  Te  Te116  1  0.41949038  0.92717016  0.91003382  1
  Te  Te117  1  0.74795713  0.28101871  0.25734809  1
  Te  Te118  1  0.77221718  0.26047570  0.58849949  1
  Te  Te119  1  0.71678711  0.24941310  0.93989882  1
  Te  Te120  1  0.71318400  0.55633489  0.24210267  1
  Te  Te121  1  0.74504225  0.57976256  0.57082337  1
  Te  Te122  1  0.74150280  0.55948331  0.91336723  1
  Te  Te123  1  0.78061072  0.91710043  0.22260467  1
  Te  Te124  1  0.74722352  0.89883271  0.58637837  1
  Te  Te125  1  0.75942103  0.91173286  0.95826806  1
  Te  Te126  1  0.24518895  0.26026322  0.08620971  1
  Te  Te127  1  0.25150604  0.26126460  0.40561414  1
  Te  Te128  1  0.26822984  0.24699371  0.76056562  1
  Te  Te129  1  0.24430229  0.58633658  0.09824888  1
  Te  Te130  1  0.25280907  0.59798277  0.42223383  1
  Te  Te131  1  0.26159458  0.58461194  0.74702679  1
  Te  Te132  1  0.24119478  0.93371824  0.05605711  1
  Te  Te133  1  0.26896245  0.90060436  0.41300143  1
  Te  Te134  1  0.27080448  0.92927908  0.73365644  1
  Te  Te135  1  0.63432191  0.23349119  0.07377989  1
  Te  Te136  1  0.61369172  0.27301304  0.40874462  1
  Te  Te137  1  0.55974471  0.27677739  0.75924794  1
  Te  Te138  1  0.58520496  0.52398730  0.06126836  1
  Te  Te139  1  0.62939816  0.54574498  0.37678780  1
  Te  Te140  1  0.58458661  0.56085988  0.75730273  1
  Te  Te141  1  0.58192012  0.90943140  0.09058855  1
  Te  Te142  1  0.58174850  0.90264721  0.42523158  1
  Te  Te143  1  0.57957462  0.90561206  0.75357635  1
  Te  Te144  1  0.88335640  0.16989104  0.05032462  1
  Te  Te145  1  0.90905014  0.25990366  0.42866234  1
  Te  Te146  1  0.91816484  0.23892352  0.76005563  1
  Te  Te147  1  0.89024651  0.56082513  0.07540956  1
  Te  Te148  1  0.90605078  0.54032358  0.39114174  1
  Te  Te149  1  0.90072906  0.57339625  0.74664572  1
  Te  Te150  1  0.91675929  0.90586371  0.12440232  1
  Te  Te151  1  0.90197390  0.88601161  0.39955069  1
  Te  Te152  1  0.91226054  0.90946515  0.74576155  1
  Te  Te153  1  0.24819658  0.10128993  0.25531586  1
  Te  Te154  1  0.25509918  0.09758273  0.58577422  1
  Te  Te155  1  0.27924286  0.10087945  0.90509108  1
  Te  Te156  1  0.26272238  0.42372921  0.25321081  1
  Te  Te157  1  0.23538150  0.44074976  0.58833269  1
  Te  Te158  1  0.25730847  0.42312110  0.93033322  1
  Te  Te159  1  0.24105646  0.75850111  0.24969977  1
  Te  Te160  1  0.22753174  0.75448851  0.57905588  1
  Te  Te161  1  0.22756825  0.76123087  0.92771824  1
  Te  Te162  1  0.60247410  0.09575384  0.26243031  1
  Te  Te163  1  0.57459604  0.11631007  0.60016474  1
  Te  Te164  1  0.59061160  0.06031186  0.91710893  1
  Te  Te165  1  0.60509446  0.45364491  0.19807039  1
  Te  Te166  1  0.61280269  0.44080760  0.58185448  1
  Te  Te167  1  0.55492616  0.40046815  0.96012873  1
  Te  Te168  1  0.58112603  0.74168713  0.25016931  1
  Te  Te169  1  0.58384931  0.72864643  0.58388196  1
  Te  Te170  1  0.60456816  0.72687290  0.94148821  1
  Te  Te171  1  0.90794060  0.10177022  0.25167851  1
  Te  Te172  1  0.90826222  0.08831462  0.59256340  1
  Te  Te173  1  0.88070709  0.08874627  0.91102281  1
  Te  Te174  1  0.86894741  0.44436206  0.27273586  1
  Te  Te175  1  0.95233282  0.41713861  0.56803818  1
  Te  Te176  1  0.90215989  0.40607004  0.95092394  1
  Te  Te177  1  0.92948238  0.76195354  0.18382839  1
  Te  Te178  1  0.88964431  0.72935353  0.57702005  1
  Te  Te179  1  0.91270675  0.76402563  0.93768510  1
