# generated using pymatgen
data_In2Te3
_symmetry_space_group_name_H-M   'P 1'
_cell_length_a   18.79791668
_cell_length_b   18.80264102
_cell_length_c   18.80099222
_cell_angle_alpha   90.08380180
_cell_angle_beta   90.03273716
_cell_angle_gamma   90.01831286
_symmetry_Int_Tables_number   1
_chemical_formula_structural   In2Te3
_chemical_formula_sum   'In72 Te108'
_cell_volume   6645.21117848
_cell_formula_units_Z   36
loop_
 _symmetry_equiv_pos_site_id
 _symmetry_equiv_pos_as_xyz
  1  'x, y, z'
loop_
 _atom_site_type_symbol
 _atom_site_label
 _atom_site_symmetry_multiplicity
 _atom_site_fract_x
 _atom_site_fract_y
 _atom_site_fract_z
 _atom_site_occupancy
  In  In0  1  0.65406910  0.18048684  0.17622825  1
  In  In1  1  0.67295407  0.81166739  0.16141994  1
  In  In2  1  0.17340097  0.14832441  0.36083555  1
  In  In3  1  0.18391356  -0.00767616  0.16995419  1
  In  In4  1  0.02021073  0.16176426  0.81445610  1
  In  In5  1  0.67421125  0.15617292  0.81223987  1
  In  In6  1  0.35196063  -0.00121396  0.63853652  1
  In  In7  1  0.82768047  0.47490566  0.35275514  1
  In  In8  1  0.17536726  0.68098396  0.50074841  1
  In  In9  1  0.00977591  0.69837592  0.66529355  1
  In  In10  1  0.81397259  0.50553220  0.65384756  1
  In  In11  1  0.16813727  0.86191997  0.37161802  1
  In  In12  1  0.49665135  0.65123496  0.81971505  1
  In  In13  1  0.35447248  0.01840476  0.37320832  1
  In  In14  1  0.34583496  0.32094447  0.34418276  1
  In  In15  1  0.83238263  0.65873175  0.51239778  1
  In  In16  1  0.51116591  0.47798030  -0.00349676  1
  In  In17  1  0.82726597  0.17463697  0.00539222  1
  In  In18  1  0.67926489  0.00695508  -0.01261631  1
  In  In19  1  0.18544324  0.48030123  0.66063705  1
  In  In20  1  0.66462943  0.65071041  0.34943428  1
  In  In21  1  0.48850199  0.50197852  0.34360068  1
  In  In22  1  0.65628700  0.29638169  0.36141649  1
  In  In23  1  0.51773282  0.31497024  0.82597622  1
  In  In24  1  0.64522864  0.86029255  0.79440412  1
  In  In25  1  0.31380770  0.15383741  0.81433614  1
  In  In26  1  0.50450939  0.15833092  0.64857117  1
  In  In27  1  0.84988862  0.86203904  0.34256614  1
  In  In28  1  0.17762891  0.17883079  -0.02153642  1
  In  In29  1  0.33671221  0.33547289  0.00598860  1
  In  In30  1  0.13799391  0.67356079  0.79632287  1
  In  In31  1  0.00371212  0.48842418  0.49757887  1
  In  In32  1  -0.00793486  0.04245823  0.35746926  1
  In  In33  1  0.65911374  0.49368913  0.15168385  1
  In  In34  1  0.34012921  0.68094495  0.65237316  1
  In  In35  1  0.82005462  0.69617047  0.17581369  1
  In  In36  1  0.83954284  0.03016861  0.51139466  1
  In  In37  1  0.65486910  0.82545655  0.52438482  1
  In  In38  1  0.50683090  0.50560434  0.64933791  1
  In  In39  1  0.48027023  0.82826607  -0.02516582  1
  In  In40  1  0.83732402  0.35394667  0.17211457  1
  In  In41  1  0.16607585  0.48208139  0.35275246  1
  In  In42  1  0.32525816  0.31749853  0.65581206  1
  In  In43  1  0.16041985  0.15874777  0.64716385  1
  In  In44  1  -0.00791971  0.30371913  0.65550625  1
  In  In45  1  0.01770929  0.48696223  0.18905358  1
  In  In46  1  0.50367198  0.81757499  0.36192413  1
  In  In47  1  0.16528724  0.64998527  0.16822277  1
  In  In48  1  0.33713862  0.48968006  0.85210306  1
  In  In49  1  0.15986329  0.84525043  -0.00900202  1
  In  In50  1  0.67606962  0.65037346  -0.00479703  1
  In  In51  1  -0.03632936  0.67554892  -0.01540795  1
  In  In52  1  0.16811398  0.31906516  0.18488696  1
  In  In53  1  -0.00907982  0.15772071  0.18084799  1
  In  In54  1  0.34675980  0.67183758  0.34606797  1
  In  In55  1  -0.00918942  0.50327028  0.82237669  1
  In  In56  1  0.84104275  0.84391367  0.67673141  1
  In  In57  1  0.51498546  0.15117565  0.00619043  1
  In  In58  1  -0.00090423  -0.01084996  0.00636210  1
  In  In59  1  0.50277983  0.31559224  0.18657403  1
  In  In60  1  0.17434529  0.49611394  0.00543640  1
  In  In61  1  0.83430711  0.34133983  0.81900858  1
  In  In62  1  0.65056171  0.49369909  0.48474372  1
  In  In63  1  0.31296174  0.69278103  0.01918551  1
  In  In64  1  0.83199249  0.01273370  0.79974408  1
  In  In65  1  0.67413101  0.01182176  0.34691997  1
  In  In66  1  0.82286459  0.69965568  0.83810380  1
  In  In67  1  -0.01313257  0.84486550  0.16183066  1
  In  In68  1  0.32076756  0.83896883  0.17214878  1
  In  In69  1  0.49563804  0.00026029  0.16146186  1
  In  In70  1  0.32596713  0.86194722  0.81711171  1
  In  In71  1  0.84204655  0.51059776  -0.00180751  1
  Te  Te72  1  0.09101975  0.08499619  0.08834011  1
  Te  Te73  1  0.09614878  0.06680925  0.45940142  1
  Te  Te74  1  0.07184241  0.06001916  0.71823540  1
  Te  Te75  1  0.08492316  0.40000078  0.08360045  1
  Te  Te76  1  0.08456402  0.38362805  0.42974881  1
  Te  Te77  1  0.07589367  0.40903945  0.74054457  1
  Te  Te78  1  0.08283072  0.74580840  0.08103533  1
  Te  Te79  1  0.07650430  0.75824136  0.42371377  1
  Te  Te80  1  0.07048591  0.80208081  0.75554509  1
  Te  Te81  1  0.40725660  0.08697352  0.08231643  1
  Te  Te82  1  0.44567389  0.10326638  0.45872840  1
  Te  Te83  1  0.42635168  0.07513616  0.74999376  1
  Te  Te84  1  0.42197121  0.41636198  0.10354328  1
  Te  Te85  1  0.43778313  0.39816475  0.43391073  1
  Te  Te86  1  0.41407770  0.40792625  0.75024422  1
  Te  Te87  1  0.42674274  0.75641644  0.09873437  1
  Te  Te88  1  0.39624245  0.76605776  0.44866161  1
  Te  Te89  1  0.42697009  0.76588682  0.74798076  1
  Te  Te90  1  0.74721300  0.08483789  0.09917119  1
  Te  Te91  1  0.76377823  0.11641570  0.41086505  1
  Te  Te92  1  0.73047529  0.06855737  0.70655634  1
  Te  Te93  1  0.74658914  0.40847136  0.06165040  1
  Te  Te94  1  0.75199778  0.38338271  0.44538349  1
  Te  Te95  1  0.73785205  0.40141569  0.72449544  1
  Te  Te96  1  0.76702032  0.76128990  0.04991320  1
  Te  Te97  1  0.75032528  0.76076202  0.41283739  1
  Te  Te98  1  0.73090484  0.75058061  0.72850271  1
  Te  Te99  1  0.07816844  0.23786388  0.27683503  1
  Te  Te100  1  0.09555136  0.26099689  0.55662506  1
  Te  Te101  1  0.06901218  0.25580272  0.91706473  1
  Te  Te102  1  0.08278712  0.58984621  0.28081933  1
  Te  Te103  1  0.08332000  0.58231014  0.59335839  1
  Te  Te104  1  0.08175744  0.58556065  0.92237659  1
  Te  Te105  1  0.07740195  0.92637809  0.25659543  1
  Te  Te106  1  0.11928871  0.88005644  0.61559448  1
  Te  Te107  1  0.08776496  0.93584655  0.90010853  1
  Te  Te108  1  0.42068537  0.22122881  0.26232097  1
  Te  Te109  1  0.41130807  0.23881760  0.56249071  1
  Te  Te110  1  0.41175939  0.24098859  0.91028587  1
  Te  Te111  1  0.41975386  0.58998456  0.24806962  1
  Te  Te112  1  0.39699337  0.57035764  0.57369738  1
  Te  Te113  1  0.41194704  0.59401105  0.93524908  1
  Te  Te114  1  0.41339890  0.91332927  0.26870773  1
  Te  Te115  1  0.45376042  0.89836296  0.58690033  1
  Te  Te116  1  0.41510253  0.94023516  0.90728831  1
  Te  Te117  1  0.76205884  0.25235150  0.25717772  1
  Te  Te118  1  0.78754506  0.19839162  0.55286173  1
  Te  Te119  1  0.74130895  0.25358633  0.90861362  1
  Te  Te120  1  0.75771454  0.57107088  0.24772011  1
  Te  Te121  1  0.71467385  0.59706514  0.58169523  1
  Te  Te122  1  0.75410799  0.57192088  0.89048093  1
  Te  Te123  1  0.74456366  0.91769925  0.24707305  1
  Te  Te124  1  0.74827818  0.92874028  0.58634427  1
  Te  Te125  1  0.75250676  0.91608724  0.89001994  1
  Te  Te126  1  0.26050799  0.23743558  0.09489819  1
  Te  Te127  1  0.24980418  0.25269474  0.43554534  1
  Te  Te128  1  0.22275024  0.25585875  0.75053698  1
  Te  Te129  1  0.27222784  0.56757180  0.09794714  1
  Te  Te130  1  0.26008355  0.57509064  0.42976630  1
  Te  Te131  1  0.26143868  0.58300877  0.75525101  1
  Te  Te132  1  0.26921135  0.92777958  0.06018994  1
  Te  Te133  1  0.26483483  0.93431973  0.45906819  1
  Te  Te134  1  0.23875095  0.93554767  0.71940288  1
  Te  Te135  1  0.58952658  0.26759928  0.06828411  1
  Te  Te136  1  0.56627872  0.20859580  0.44121455  1
  Te  Te137  1  0.60404514  0.25382276  0.71587736  1
  Te  Te138  1  0.56955844  0.59604141  0.08779984  1
  Te  Te139  1  0.55333646  0.60458456  0.43983247  1
  Te  Te140  1  0.59553915  0.56861395  0.75034479  1
  Te  Te141  1  0.58827544  0.91287528  0.07468244  1
  Te  Te142  1  0.58075075  0.92853965  0.43283153  1
  Te  Te143  1  0.56173011  0.93038147  0.69615447  1
  Te  Te144  1  0.92394127  0.25899342  0.08784257  1
  Te  Te145  1  0.90316095  0.21404624  0.45755097  1
  Te  Te146  1  0.89643449  0.22332714  0.74466160  1
  Te  Te147  1  0.92377899  0.58017899  0.10781236  1
  Te  Te148  1  0.91794357  0.58368354  0.41238748  1
  Te  Te149  1  0.90706597  0.60071806  0.73996331  1
  Te  Te150  1  0.89168866  0.92333989  0.08271130  1
  Te  Te151  1  0.93759192  0.92862906  0.44626497  1
  Te  Te152  1  0.93596632  0.95558772  0.70843059  1
  Te  Te153  1  0.26768597  0.08135735  0.26028926  1
  Te  Te154  1  0.25764138  0.08493129  0.55875818  1
  Te  Te155  1  0.23217392  0.06596567  0.90095979  1
  Te  Te156  1  0.26011730  0.41897049  0.25177659  1
  Te  Te157  1  0.25417428  0.40361120  0.55626401  1
  Te  Te158  1  0.23299566  0.39410867  0.90798380  1
  Te  Te159  1  0.23235496  0.75390089  0.26168932  1
  Te  Te160  1  0.22891742  0.78083677  0.60436008  1
  Te  Te161  1  0.24571229  0.74717022  0.89497159  1
  Te  Te162  1  0.56967014  0.08777951  0.26307752  1
  Te  Te163  1  0.58228258  0.08696114  0.54009631  1
  Te  Te164  1  0.57750002  0.06926200  0.89336130  1
  Te  Te165  1  0.60209068  0.41190715  0.26674569  1
  Te  Te166  1  0.57586189  0.39969355  0.57037380  1
  Te  Te167  1  0.59774438  0.41956715  0.89473901  1
  Te  Te168  1  0.57924414  0.73619871  0.25519639  1
  Te  Te169  1  0.54203368  0.76919321  0.60099385  1
  Te  Te170  1  0.59220407  0.74990851  0.90628533  1
  Te  Te171  1  0.89226920  0.07828529  0.25552274  1
  Te  Te172  1  0.93358638  0.13116213  0.57846810  1
  Te  Te173  1  0.91310635  0.08653764  0.91520869  1
  Te  Te174  1  0.93712701  0.39519070  0.28117202  1
  Te  Te175  1  0.90534013  0.40681690  0.58019354  1
  Te  Te176  1  0.92731431  0.40838671  0.92304301  1
  Te  Te177  1  0.92782946  0.75150035  0.26820701  1
  Te  Te178  1  0.91962023  0.77029868  0.56561207  1
  Te  Te179  1  0.93205092  0.78431606  0.89136238  1
