# generated using pymatgen
data_In2Te3
_symmetry_space_group_name_H-M   'P 1'
_cell_length_a   19.04847663
_cell_length_b   19.04068300
_cell_length_c   19.05572791
_cell_angle_alpha   89.91699854
_cell_angle_beta   90.31993482
_cell_angle_gamma   89.52473334
_symmetry_Int_Tables_number   1
_chemical_formula_structural   In2Te3
_chemical_formula_sum   'In72 Te108'
_cell_volume   6911.08314264
_cell_formula_units_Z   36
loop_
 _symmetry_equiv_pos_site_id
 _symmetry_equiv_pos_as_xyz
  1  'x, y, z'
loop_
 _atom_site_type_symbol
 _atom_site_label
 _atom_site_symmetry_multiplicity
 _atom_site_fract_x
 _atom_site_fract_y
 _atom_site_fract_z
 _atom_site_occupancy
  In  In0  1  0.67042687  0.51628305  0.84819273  1
  In  In1  1  0.01667160  0.52629735  0.80602383  1
  In  In2  1  0.30672863  0.00060282  0.66161412  1
  In  In3  1  0.16649322  0.65311377  0.50825567  1
  In  In4  1  0.27561505  0.28668100  0.62432123  1
  In  In5  1  0.81568954  0.82018750  0.35124605  1
  In  In6  1  0.02045308  0.30054226  0.63905740  1
  In  In7  1  0.02419125  0.33387872  0.35959464  1
  In  In8  1  0.16373462  -0.00169825  0.83824882  1
  In  In9  1  -0.03239335  0.81872604  0.83729685  1
  In  In10  1  0.15438037  0.53476828  0.00006184  1
  In  In11  1  0.81967201  0.59522471  0.36111459  1
  In  In12  1  0.50512701  -0.00839456  0.85225585  1
  In  In13  1  0.15100156  0.67208938  0.16556617  1
  In  In14  1  -0.00090977  0.14539176  0.15860349  1
  In  In15  1  -0.02069083  0.68022818  0.65324883  1
  In  In16  1  0.02036262  -0.00584000  0.68216417  1
  In  In17  1  0.15549349  0.17327485  0.32453769  1
  In  In18  1  0.83045176  0.33307223  0.47712675  1
  In  In19  1  0.67254202  0.66770877  0.67964745  1
  In  In20  1  0.49837108  0.86387064  0.35610028  1
  In  In21  1  0.34940036  -0.02559685  0.02174362  1
  In  In22  1  0.69606087  0.51474185  0.18376613  1
  In  In23  1  0.84484801  0.51905054  0.02153700  1
  In  In24  1  0.68213401  0.82050830  0.15847024  1
  In  In25  1  0.20306234  0.03864127  0.47740123  1
  In  In26  1  0.49917925  0.50204250  0.35419625  1
  In  In27  1  0.02345730  -0.02067125  0.30971637  1
  In  In28  1  0.48438514  0.85274219  0.66301515  1
  In  In29  1  0.83002460  0.00650107  0.51922730  1
  In  In30  1  0.47875868  0.33418659  0.16764988  1
  In  In31  1  0.34474762  0.67420187  0.66458723  1
  In  In32  1  0.48300307  0.32924421  0.82403289  1
  In  In33  1  0.51164129  0.65910813  0.17809694  1
  In  In34  1  -0.01511629  0.82259877  0.50589711  1
  In  In35  1  0.84214039  0.15165707  0.67354195  1
  In  In36  1  0.65555245  0.16500153  0.18357452  1
  In  In37  1  0.50484096  -0.01108545  0.19080853  1
  In  In38  1  0.30558601  0.22379356  0.20067416  1
  In  In39  1  0.50738587  0.54074424  -0.01861745  1
  In  In40  1  0.67692905  0.00540727  -0.00715663  1
  In  In41  1  0.18635346  0.83081043  0.65001274  1
  In  In42  1  0.66661625  0.33619529  0.34102596  1
  In  In43  1  0.84009336  0.34037839  0.83685482  1
  In  In44  1  0.53994102  0.80027036  -0.01386356  1
  In  In45  1  0.31337641  0.35215173  0.02549414  1
  In  In46  1  0.33188842  0.82113023  0.16789327  1
  In  In47  1  0.50401111  0.16660727  0.01516238  1
  In  In48  1  0.65572088  -0.01832686  0.64603450  1
  In  In49  1  0.65378374  0.52631126  0.50086980  1
  In  In50  1  0.48356868  0.30442902  0.52163599  1
  In  In51  1  0.00861909  0.67756540  0.32906617  1
  In  In52  1  -0.03304954  -0.02702877  -0.00904836  1
  In  In53  1  0.52239522  0.49208191  0.66628712  1
  In  In54  1  0.50276650  0.68699850  0.48858404  1
  In  In55  1  0.15369877  0.35127280  0.84989397  1
  In  In56  1  0.66326848  0.14776041  0.52427972  1
  In  In57  1  0.32291387  0.48231767  0.50739224  1
  In  In58  1  0.65922264  0.31500897  0.69566755  1
  In  In59  1  0.86566463  0.48986182  0.65779989  1
  In  In60  1  0.84344660  -0.03990208  0.15486846  1
  In  In61  1  0.84814081  0.35278894  0.18565481  1
  In  In62  1  0.00712116  0.34655043  0.00470093  1
  In  In63  1  0.00787698  0.50941106  0.18081071  1
  In  In64  1  0.47496958  0.11320553  0.36545421  1
  In  In65  1  0.34842686  0.52371742  0.81224421  1
  In  In66  1  0.17610716  0.66401050  0.81255530  1
  In  In67  1  0.16400503  -0.01911886  0.15195259  1
  In  In68  1  0.82835717  0.16997223  -0.02389510  1
  In  In69  1  0.33510704  0.15153665  0.83666476  1
  In  In70  1  0.31090699  0.49093308  0.18865783  1
  In  In71  1  0.81246864  -0.01071933  0.82449021  1
  Te  Te72  1  0.07174761  0.06270425  0.05925775  1
  Te  Te73  1  0.07182140  0.08156859  0.40842763  1
  Te  Te74  1  0.09534472  0.09815856  0.75372687  1
  Te  Te75  1  0.09987056  0.42753467  0.09114496  1
  Te  Te76  1  0.16138283  0.38780125  0.37841162  1
  Te  Te77  1  0.07587156  0.41066136  0.73432393  1
  Te  Te78  1  0.03870500  0.73271749  0.09223061  1
  Te  Te79  1  0.09392443  0.75949675  0.42424989  1
  Te  Te80  1  0.08151182  0.75921923  0.73399301  1
  Te  Te81  1  0.41932109  0.08139717  0.10341655  1
  Te  Te82  1  0.34686837  0.06981422  0.42621102  1
  Te  Te83  1  0.41828248  0.06255888  0.75046547  1
  Te  Te84  1  0.42524693  0.44561660  0.07707935  1
  Te  Te85  1  0.41609084  0.39813413  0.42040666  1
  Te  Te86  1  0.40743938  0.41447257  0.72404943  1
  Te  Te87  1  0.43438909  0.74739577  0.08285871  1
  Te  Te88  1  0.41249330  0.75339744  0.39598471  1
  Te  Te89  1  0.40974211  0.76681513  0.75474830  1
  Te  Te90  1  0.75549353  0.08845654  0.09083333  1
  Te  Te91  1  0.75794473  0.09533347  0.42851132  1
  Te  Te92  1  0.72807832  0.08205778  0.73884080  1
  Te  Te93  1  0.75446425  0.41588300  0.08412248  1
  Te  Te94  1  0.74849610  0.44585208  0.40563030  1
  Te  Te95  1  0.74744828  0.43053083  0.74162127  1
  Te  Te96  1  0.76785910  0.78112981  0.04811264  1
  Te  Te97  1  0.74821907  0.71046590  0.41912787  1
  Te  Te98  1  0.72766026  0.75390733  0.78294638  1
  Te  Te99  1  0.06575750  0.25553020  0.23170004  1
  Te  Te100  1  0.13893810  0.25463857  0.56373628  1
  Te  Te101  1  0.08067556  0.25046888  0.92357080  1
  Te  Te102  1  0.10675206  0.57389993  0.27326691  1
  Te  Te103  1  0.05196618  0.58282183  0.56937429  1
  Te  Te104  1  0.06572093  0.62000460  0.91225080  1
  Te  Te105  1  0.11698538  0.88174787  0.25123964  1
  Te  Te106  1  0.08810909  0.91492113  0.57198057  1
  Te  Te107  1  0.07210386  0.89824252  0.90984365  1
  Te  Te108  1  0.44387542  0.23007272  0.26851442  1
  Te  Te109  1  0.39303835  0.20969100  0.57952363  1
  Te  Te110  1  0.40592628  0.25588063  0.93949724  1
  Te  Te111  1  0.41062369  0.58030200  0.25877648  1
  Te  Te112  1  0.43661865  0.57767325  0.57429794  1
  Te  Te113  1  0.40186335  0.62317611  0.91073815  1
  Te  Te114  1  0.38695861  0.92784909  0.26010294  1
  Te  Te115  1  0.38968479  0.91996011  0.57255651  1
  Te  Te116  1  0.42520815  0.88842665  0.92485121  1
  Te  Te117  1  0.75879484  0.25291951  0.25527223  1
  Te  Te118  1  0.76181893  0.25793997  0.59126378  1
  Te  Te119  1  0.73929487  0.25870138  0.90129905  1
  Te  Te120  1  0.78483680  0.62486595  0.22031486  1
  Te  Te121  1  0.76093060  0.57975942  0.58897594  1
  Te  Te122  1  0.75763390  0.59765455  0.93235320  1
  Te  Te123  1  0.74155090  0.91808853  0.25684333  1
  Te  Te124  1  0.75558440  0.89623204  0.57980351  1
  Te  Te125  1  0.76391664  0.89871532  0.93484749  1
  Te  Te126  1  0.23440568  0.24187187  0.07307916  1
  Te  Te127  1  0.24645346  0.26700435  0.39454912  1
  Te  Te128  1  0.25331470  0.26077510  0.77505096  1
  Te  Te129  1  0.25949881  0.59378717  0.09095495  1
  Te  Te130  1  0.25640525  0.57790969  0.41999859  1
  Te  Te131  1  0.24344011  0.57331571  0.71344975  1
  Te  Te132  1  0.23818727  0.88247419  0.06269732  1
  Te  Te133  1  0.26947036  0.94225744  0.39081417  1
  Te  Te134  1  0.25380421  0.90128874  0.76489516  1
  Te  Te135  1  0.59081531  0.26441209  0.08935454  1
  Te  Te136  1  0.58663384  0.24176853  0.42528864  1
  Te  Te137  1  0.54937804  0.23249648  0.73633655  1
  Te  Te138  1  0.60710160  0.59276429  0.08200714  1
  Te  Te139  1  0.59505647  0.61240400  0.39084753  1
  Te  Te140  1  0.56694628  0.59338233  0.76539001  1
  Te  Te141  1  0.58168945  0.92457196  0.07711916  1
  Te  Te142  1  0.58581373  0.93099763  0.44830353  1
  Te  Te143  1  0.59237601  0.90900981  0.76209464  1
  Te  Te144  1  0.90714947  0.25435442  0.07695531  1
  Te  Te145  1  0.92283272  0.24296625  0.41023447  1
  Te  Te146  1  0.92538307  0.25210317  0.74942672  1
  Te  Te147  1  0.94509604  0.60909330  0.08722304  1
  Te  Te148  1  0.94635215  0.59613044  0.43656063  1
  Te  Te149  1  0.89737263  0.60239425  0.75460922  1
  Te  Te150  1  0.95563596  0.87706060  0.10437446  1
  Te  Te151  1  0.91755332  0.91943881  0.40773525  1
  Te  Te152  1  0.90611416  0.91147446  0.73508148  1
  Te  Te153  1  0.23579475  0.08953424  0.22740610  1
  Te  Te154  1  0.20247980  0.09679135  0.61438116  1
  Te  Te155  1  0.26107472  0.06552815  0.93390625  1
  Te  Te156  1  0.26797242  0.36449613  0.25248980  1
  Te  Te157  1  0.21404526  0.41268313  0.57602663  1
  Te  Te158  1  0.25706877  0.45012934  0.91454229  1
  Te  Te159  1  0.23503167  0.75427231  0.25541033  1
  Te  Te160  1  0.27406113  0.75406380  0.55679345  1
  Te  Te161  1  0.26815548  0.70225959  0.91647209  1
  Te  Te162  1  0.59457203  0.06812453  0.28227316  1
  Te  Te163  1  0.55690185  0.04462289  0.54927953  1
  Te  Te164  1  0.59192727  0.10115466  0.91184546  1
  Te  Te165  1  0.58208319  0.42575816  0.24398815  1
  Te  Te166  1  0.59857362  0.40326811  0.56888073  1
  Te  Te167  1  0.56854588  0.41950791  0.90837809  1
  Te  Te168  1  0.57555931  0.77381971  0.25137210  1
  Te  Te169  1  0.58365338  0.75679338  0.59288888  1
  Te  Te170  1  0.61417445  0.73060616  0.88173833  1
  Te  Te171  1  0.90990699  0.06336849  0.24446030  1
  Te  Te172  1  0.94171933  0.08563556  0.58424885  1
  Te  Te173  1  0.91359647  0.07873354  0.89310477  1
  Te  Te174  1  0.92844560  0.43188543  0.28248518  1
  Te  Te175  1  0.93901320  0.40295034  0.55900858  1
  Te  Te176  1  0.92915656  0.43957923  0.91034665  1
  Te  Te177  1  0.90117029  0.74868898  0.25323625  1
  Te  Te178  1  0.87785048  0.76578429  0.58738209  1
  Te  Te179  1  0.86974790  0.76551499  0.93072004  1
