# generated using pymatgen
data_In2Te3
_symmetry_space_group_name_H-M   'P 1'
_cell_length_a   18.93661891
_cell_length_b   18.95230749
_cell_length_c   18.95493541
_cell_angle_alpha   90.07735578
_cell_angle_beta   89.98321067
_cell_angle_gamma   89.98232887
_symmetry_Int_Tables_number   1
_chemical_formula_structural   In2Te3
_chemical_formula_sum   'In72 Te108'
_cell_volume   6802.77969993
_cell_formula_units_Z   36
loop_
 _symmetry_equiv_pos_site_id
 _symmetry_equiv_pos_as_xyz
  1  'x, y, z'
loop_
 _atom_site_type_symbol
 _atom_site_label
 _atom_site_symmetry_multiplicity
 _atom_site_fract_x
 _atom_site_fract_y
 _atom_site_fract_z
 _atom_site_occupancy
  In  In0  1  0.49364928  0.64830068  0.15553244  1
  In  In1  1  0.35304624  0.34696061  0.33798152  1
  In  In2  1  0.50901404  0.67119418  0.82612537  1
  In  In3  1  -0.00852934  -0.00574970  0.02036259  1
  In  In4  1  0.48358551  0.13668154  0.30891547  1
  In  In5  1  0.14196104  0.51076769  0.65823329  1
  In  In6  1  0.01886775  0.69147174  0.35858079  1
  In  In7  1  0.82549872  0.48416713  -0.01967273  1
  In  In8  1  0.00972145  -0.01956951  0.36315831  1
  In  In9  1  0.67355452  0.02477767  0.65845824  1
  In  In10  1  0.82232229  0.33669701  0.82855247  1
  In  In11  1  0.64802030  0.49929189  0.17443488  1
  In  In12  1  0.51559787  0.30940763  0.18418450  1
  In  In13  1  0.82249382  0.00646247  0.48577057  1
  In  In14  1  -0.02136470  0.46057819  0.16654143  1
  In  In15  1  0.49534836  0.32196863  0.82443053  1
  In  In16  1  0.32946521  0.16176430  0.51968826  1
  In  In17  1  -0.00398188  0.31077902  0.00770709  1
  In  In18  1  -0.00383372  0.17597853  0.83554697  1
  In  In19  1  0.15143410  0.31300608  0.52121834  1
  In  In20  1  0.33696029  -0.01798975  0.65295969  1
  In  In21  1  0.67381857  0.53164874  0.80762127  1
  In  In22  1  0.15830996  0.48715128  -0.02178583  1
  In  In23  1  0.17621687  0.66875607  0.84455313  1
  In  In24  1  0.32515022  0.33598710  0.01848731  1
  In  In25  1  0.86536529  0.66971195  0.17925617  1
  In  In26  1  0.80383805  0.32020794  0.46445643  1
  In  In27  1  0.65746432  0.64299478  0.34417725  1
  In  In28  1  -0.00143490  0.17531502  0.17954578  1
  In  In29  1  0.50463942  0.50505152  -0.01657769  1
  In  In30  1  0.34395537  0.20730048  0.84770213  1
  In  In31  1  0.01928801  0.84791800  0.82679790  1
  In  In32  1  0.16579145  0.35125013  0.81556372  1
  In  In33  1  0.82692160  0.86236282  0.01628634  1
  In  In34  1  0.49179219  0.83282812  -0.02120484  1
  In  In35  1  0.34598248  0.70562625  0.33752419  1
  In  In36  1  0.66622036  0.14706054  0.84660444  1
  In  In37  1  0.29284938  -0.02334355  0.35150001  1
  In  In38  1  0.47841296  -0.00621530  0.83333441  1
  In  In39  1  0.68429830  0.81244932  0.80587292  1
  In  In40  1  -0.01803425  -0.01068822  0.63358535  1
  In  In41  1  0.34581027  0.84341604  0.15614443  1
  In  In42  1  0.65656273  0.33408317  0.01172931  1
  In  In43  1  0.33540423  0.54549533  0.50453899  1
  In  In44  1  0.57573065  0.36598555  0.48733254  1
  In  In45  1  0.16936917  0.83717420  0.65522184  1
  In  In46  1  0.80927568  0.01665917  0.19000421  1
  In  In47  1  0.01434144  0.66900714  -0.01747545  1
  In  In48  1  0.13903596  0.15362435  0.65870110  1
  In  In49  1  0.51850713  0.50600405  0.33585088  1
  In  In50  1  -0.01959269  0.66856778  0.63476846  1
  In  In51  1  0.64452623  0.00065007  0.02259398  1
  In  In52  1  0.14003064  0.65883180  0.16834578  1
  In  In53  1  0.83045011  0.27981216  0.25049927  1
  In  In54  1  0.65507784  0.17993769  0.49160885  1
  In  In55  1  0.17588385  0.82813641  0.02403858  1
  In  In56  1  0.33206730  0.68135209  0.67947820  1
  In  In57  1  0.86643013  0.65553791  0.81612168  1
  In  In58  1  0.31947014  0.49963364  0.14666221  1
  In  In59  1  0.14661932  0.16188797  0.33527869  1
  In  In60  1  0.13947595  0.00153463  0.18245983  1
  In  In61  1  0.19385458  0.03413538  0.84331095  1
  In  In62  1  0.67882655  0.83999539  0.17358664  1
  In  In63  1  -0.01577013  0.49844126  0.49907380  1
  In  In64  1  0.51166705  0.83697970  0.35122896  1
  In  In65  1  0.84821732  -0.00277344  0.82852829  1
  In  In66  1  0.81498492  0.64978745  0.50444285  1
  In  In67  1  0.65965016  0.84034979  0.49822610  1
  In  In68  1  0.51264259  0.17141533  0.66781439  1
  In  In69  1  0.33215030  0.35728364  0.67217778  1
  In  In70  1  0.17041156  0.49099934  0.34650836  1
  In  In71  1  0.50555176  0.83138277  0.65425397  1
  Te  Te72  1  0.08409015  0.09838921  0.07861551  1
  Te  Te73  1  0.10071745  0.06961702  0.43838571  1
  Te  Te74  1  0.06745746  0.05869704  0.75478841  1
  Te  Te75  1  0.09316145  0.40088457  0.08392653  1
  Te  Te76  1  0.07686306  0.40041455  0.42170671  1
  Te  Te77  1  0.06968320  0.39746562  0.71573198  1
  Te  Te78  1  0.05832802  0.76336579  0.09394089  1
  Te  Te79  1  0.12126641  0.79132541  0.40256384  1
  Te  Te80  1  0.07945551  0.73653380  0.74226428  1
  Te  Te81  1  0.47112876  0.09496791  0.16332199  1
  Te  Te82  1  0.39437371  0.07050561  0.41851553  1
  Te  Te83  1  0.40383745  0.09791798  0.74747459  1
  Te  Te84  1  0.44294965  0.42368514  0.09930911  1
  Te  Te85  1  0.42621032  0.43284261  0.43988710  1
  Te  Te86  1  0.43889556  0.42906804  0.74254963  1
  Te  Te87  1  0.40873931  0.73586728  0.06794582  1
  Te  Te88  1  0.44616880  0.73761587  0.44076433  1
  Te  Te89  1  0.41708947  0.77599687  0.76288120  1
  Te  Te90  1  0.76223286  0.07645094  0.06470463  1
  Te  Te91  1  0.74792601  0.10588697  0.39933056  1
  Te  Te92  1  0.77181990  0.09945045  0.74632460  1
  Te  Te93  1  0.75241027  0.41827389  0.09416459  1
  Te  Te94  1  0.70259431  0.42833718  0.42248664  1
  Te  Te95  1  0.78273630  0.45317608  0.74275565  1
  Te  Te96  1  0.76305147  0.74658428  0.08928206  1
  Te  Te97  1  0.74373227  0.74713636  0.40973834  1
  Te  Te98  1  0.77576108  0.72952603  0.72710145  1
  Te  Te99  1  0.09245656  0.26488110  0.24789232  1
  Te  Te100  1  0.04607828  0.22137319  0.56665858  1
  Te  Te101  1  0.10265444  0.25225357  0.91117573  1
  Te  Te102  1  0.06680111  0.55874979  0.25391957  1
  Te  Te103  1  0.08911588  0.60304075  0.55228391  1
  Te  Te104  1  0.06915096  0.56671450  0.88461388  1
  Te  Te105  1  0.10090134  0.89455424  0.27835483  1
  Te  Te106  1  0.06966881  0.89392562  0.56371932  1
  Te  Te107  1  0.09767061  0.93175159  0.92698945  1
  Te  Te108  1  0.38893010  0.24290468  0.23340791  1
  Te  Te109  1  0.42052366  0.26243445  0.58930061  1
  Te  Te110  1  0.44266625  0.25965735  0.94988308  1
  Te  Te111  1  0.40166574  0.57566139  0.25684225  1
  Te  Te112  1  0.42014071  0.57883605  0.61884360  1
  Te  Te113  1  0.41569485  0.58955991  0.90589991  1
  Te  Te114  1  0.41088134  0.91777612  0.27021010  1
  Te  Te115  1  0.43187116  0.91838882  0.56246667  1
  Te  Te116  1  0.39469744  0.93448661  0.93714345  1
  Te  Te117  1  0.71477427  0.18755797  0.27068566  1
  Te  Te118  1  0.73076300  0.26642569  0.58588495  1
  Te  Te119  1  0.74900727  0.24663076  0.92645826  1
  Te  Te120  1  0.75400228  0.58260727  0.24320362  1
  Te  Te121  1  0.72977967  0.52729646  0.53776685  1
  Te  Te122  1  0.76199677  0.60236847  0.91230400  1
  Te  Te123  1  0.73966101  0.92070749  0.28028892  1
  Te  Te124  1  0.75295558  0.91713977  0.59147393  1
  Te  Te125  1  0.73877241  0.92512586  0.90883935  1
  Te  Te126  1  0.23968070  0.22506690  0.05265241  1
  Te  Te127  1  0.26008936  0.25660991  0.42184930  1
  Te  Te128  1  0.24389921  0.24014206  0.72894916  1
  Te  Te129  1  0.23046469  0.59049373  0.06483318  1
  Te  Te130  1  0.24285581  0.61062857  0.40412781  1
  Te  Te131  1  0.24567960  0.57414200  0.74835676  1
  Te  Te132  1  0.25033692  0.94168433  0.09165185  1
  Te  Te133  1  0.25628538  0.86180487  0.43852054  1
  Te  Te134  1  0.24836529  0.92026339  0.76010377  1
  Te  Te135  1  0.60383011  0.22715036  0.09892656  1
  Te  Te136  1  0.54342785  0.24100508  0.41009722  1
  Te  Te137  1  0.60868604  0.25228577  0.75176734  1
  Te  Te138  1  0.60111334  0.59193151  0.06469262  1
  Te  Te139  1  0.55194683  0.60512466  0.44142732  1
  Te  Te140  1  0.59217153  0.61477762  0.71590474  1
  Te  Te141  1  0.56165065  0.90111612  0.09922399  1
  Te  Te142  1  0.61128763  0.93697520  0.39569654  1
  Te  Te143  1  0.59196724  0.93088348  0.75377955  1
  Te  Te144  1  0.89528560  0.25731738  0.10568677  1
  Te  Te145  1  0.90695106  0.26033037  0.37583289  1
  Te  Te146  1  0.91467829  0.25619697  0.74603598  1
  Te  Te147  1  0.92727249  0.57414776  0.06796344  1
  Te  Te148  1  0.91261254  0.59015880  0.40216473  1
  Te  Te149  1  0.90979263  0.56100063  0.70963068  1
  Te  Te150  1  0.91531381  0.91748576  0.12413151  1
  Te  Te151  1  0.90927145  0.89614086  0.43418037  1
  Te  Te152  1  0.90889834  0.89523141  0.73509622  1
  Te  Te153  1  0.24643515  0.08349066  0.25199118  1
  Te  Te154  1  0.23065808  0.06097940  0.57747912  1
  Te  Te155  1  0.27117789  0.11515971  0.94377525  1
  Te  Te156  1  0.24799387  0.40862023  0.24435366  1
  Te  Te157  1  0.24704692  0.42976591  0.56699853  1
  Te  Te158  1  0.27186522  0.41895075  0.90356447  1
  Te  Te159  1  0.25137308  0.74764941  0.22700079  1
  Te  Te160  1  0.26916441  0.76334233  0.57195877  1
  Te  Te161  1  0.25570424  0.76528890  0.91909383  1
  Te  Te162  1  0.60428166  0.08250152  0.22799958  1
  Te  Te163  1  0.56675409  0.07516081  0.56503368  1
  Te  Te164  1  0.55633925  0.08422592  0.93009184  1
  Te  Te165  1  0.60636368  0.39282717  0.27325626  1
  Te  Te166  1  0.63951689  0.42056026  0.60686713  1
  Te  Te167  1  0.60413263  0.42362124  0.89879720  1
  Te  Te168  1  0.57528660  0.73851550  0.24568559  1
  Te  Te169  1  0.60840855  0.74178113  0.59818142  1
  Te  Te170  1  0.60417083  0.75009003  0.91761106  1
  Te  Te171  1  0.93156903  0.06878846  0.26327225  1
  Te  Te172  1  0.90540707  0.09624427  0.56968349  1
  Te  Te173  1  0.91335672  0.08877394  0.93073415  1
  Te  Te174  1  0.89592222  0.41167551  0.27770420  1
  Te  Te175  1  0.89363127  0.39861166  0.55408541  1
  Te  Te176  1  0.93423919  0.40838890  0.90950887  1
  Te  Te177  1  0.92325161  0.76354962  0.27416392  1
  Te  Te178  1  0.91180282  0.75888469  0.54045827  1
  Te  Te179  1  0.92069805  0.77735122  0.92199528  1
