# generated using pymatgen
data_In2Te3
_symmetry_space_group_name_H-M   'P 1'
_cell_length_a   19.00583573
_cell_length_b   18.98496848
_cell_length_c   19.00100710
_cell_angle_alpha   90.03683228
_cell_angle_beta   90.13327470
_cell_angle_gamma   90.03142431
_symmetry_Int_Tables_number   1
_chemical_formula_structural   In2Te3
_chemical_formula_sum   'In72 Te108'
_cell_volume   6856.02104233
_cell_formula_units_Z   36
loop_
 _symmetry_equiv_pos_site_id
 _symmetry_equiv_pos_as_xyz
  1  'x, y, z'
loop_
 _atom_site_type_symbol
 _atom_site_label
 _atom_site_symmetry_multiplicity
 _atom_site_fract_x
 _atom_site_fract_y
 _atom_site_fract_z
 _atom_site_occupancy
  In  In0  1  0.13480386  0.30531588  0.50037199  1
  In  In1  1  0.51124356  0.83647247  0.68440571  1
  In  In2  1  0.17200888  -0.02211211  0.16787200  1
  In  In3  1  0.83402356  0.82843095  0.34262727  1
  In  In4  1  0.33635784  -0.00479509  0.67194313  1
  In  In5  1  0.15935249  0.36273048  0.15537452  1
  In  In6  1  0.33739012  0.83442828  0.84069832  1
  In  In7  1  0.81523828  0.65687977  0.19131326  1
  In  In8  1  0.16098857  0.35810158  0.84313788  1
  In  In9  1  0.68167092  0.66333172  0.01472350  1
  In  In10  1  0.67625797  0.16367948  0.81765439  1
  In  In11  1  0.15763833  0.84933845  -0.00274564  1
  In  In12  1  -0.00601240  0.47555935  0.18275158  1
  In  In13  1  0.32222195  0.65906132  0.67418833  1
  In  In14  1  0.50241884  0.18160829  0.66183856  1
  In  In15  1  0.84130082  0.80699553  -0.00192601  1
  In  In16  1  0.47986903  -0.01076249  0.15943278  1
  In  In17  1  0.48603038  0.15803450  0.30633642  1
  In  In18  1  0.17383475  0.65767156  0.84706386  1
  In  In19  1  0.83228433  0.17813330  0.01774183  1
  In  In20  1  0.69016161  0.31739678  0.64726763  1
  In  In21  1  0.02016916  0.83402435  0.16877097  1
  In  In22  1  0.81696280  0.01248682  0.50382159  1
  In  In23  1  0.17477109  0.18127971  -0.05038304  1
  In  In24  1  0.84611241  0.62467094  0.48610195  1
  In  In25  1  0.45201278  0.33085935  0.88339656  1
  In  In26  1  0.84626866  0.46857031  0.33721857  1
  In  In27  1  0.00344288  0.17929232  0.16193756  1
  In  In28  1  0.17766721  0.68631964  0.50940965  1
  In  In29  1  0.69269676  0.20035997  0.50329500  1
  In  In30  1  0.52063922  0.64739983  0.86511800  1
  In  In31  1  0.30463608  0.31739333  0.29935393  1
  In  In32  1  0.66495070  0.81389027  0.49181658  1
  In  In33  1  0.16275026  0.18568646  0.70303277  1
  In  In34  1  0.00534328  0.83384983  0.50376429  1
  In  In35  1  0.47154447  0.49760145  0.01391154  1
  In  In36  1  0.35255825  0.15308313  0.51092149  1
  In  In37  1  0.82661185  0.47519895  -0.00336088  1
  In  In38  1  -0.00092736  0.65978982  0.00535204  1
  In  In39  1  0.84296060  0.45908418  0.64096950  1
  In  In40  1  0.50193550  0.48419670  0.71642175  1
  In  In41  1  0.67667647  0.02217570  0.34501096  1
  In  In42  1  0.35001505  0.68312755  0.32310865  1
  In  In43  1  0.85271071  0.02979709  0.81436622  1
  In  In44  1  0.50398249  0.33890964  0.49144512  1
  In  In45  1  -0.00312491  0.01720013  -0.00148607  1
  In  In46  1  0.67300137  0.31535863  0.27990279  1
  In  In47  1  0.83747754  0.67611843  0.85150479  1
  In  In48  1  0.32863771  0.48370625  0.50704031  1
  In  In49  1  0.84855761  0.30791734  0.80744358  1
  In  In50  1  0.15816238  0.14983300  0.32827696  1
  In  In51  1  0.00981723  0.67016510  0.67231968  1
  In  In52  1  0.15816489  0.50829624  0.66301320  1
  In  In53  1  0.51995114  0.00184088  0.49537150  1
  In  In54  1  0.02085249  0.01808263  0.67304206  1
  In  In55  1  0.84280158  0.02082869  0.18141188  1
  In  In56  1  0.14890708  0.49882104  0.34559089  1
  In  In57  1  0.00108942  0.51067438  0.83298695  1
  In  In58  1  0.48612375  0.67937899  0.51352320  1
  In  In59  1  0.61771069  0.68125813  0.30072859  1
  In  In60  1  0.83864617  0.85653604  0.66027429  1
  In  In61  1  0.66782333  0.85847408  0.81450654  1
  In  In62  1  0.48706207  0.82329632  0.01262535  1
  In  In63  1  0.49364562  0.04694550  0.83938079  1
  In  In64  1  0.48251051  0.52165031  0.32443576  1
  In  In65  1  0.65475678  -0.00792706  -0.02913017  1
  In  In66  1  0.65359453  0.48626278  0.15937234  1
  In  In67  1  0.31984106  0.15514627  0.14924766  1
  In  In68  1  0.14342967  0.01232781  0.49498371  1
  In  In69  1  0.32460243  0.83061661  0.15919175  1
  In  In70  1  0.17277178  0.84655768  0.34710017  1
  In  In71  1  0.68918991  0.49336203  0.48901772  1
  Te  Te72  1  0.10080742  0.08381289  0.08732830  1
  Te  Te73  1  0.05927333  0.11383376  0.43025707  1
  Te  Te74  1  0.10045657  0.07808653  0.78218842  1
  Te  Te75  1  0.06340212  0.42631103  0.06426032  1
  Te  Te76  1  0.06059801  0.39972636  0.41284487  1
  Te  Te77  1  0.06146007  0.41739264  0.73258729  1
  Te  Te78  1  0.10075873  0.73776229  0.08570792  1
  Te  Te79  1  0.07920906  0.74367006  0.40894344  1
  Te  Te80  1  0.10708468  0.74510249  0.74971253  1
  Te  Te81  1  0.42500158  0.09131077  0.06501125  1
  Te  Te82  1  0.41662977  0.06599221  0.40501754  1
  Te  Te83  1  0.39690788  0.11416499  0.74563576  1
  Te  Te84  1  0.37085298  0.40310826  0.07151163  1
  Te  Te85  1  0.40172673  0.40364579  0.39831935  1
  Te  Te86  1  0.39313566  0.40065408  0.76614496  1
  Te  Te87  1  0.41324253  0.72801662  0.09737562  1
  Te  Te88  1  0.41051095  0.76729850  0.42658278  1
  Te  Te89  1  0.42889601  0.73415131  0.76028894  1
  Te  Te90  1  0.75063234  0.06308499  0.07046539  1
  Te  Te91  1  0.77688942  0.12110296  0.40326083  1
  Te  Te92  1  0.75056775  0.08045224  0.72431094  1
  Te  Te93  1  0.72199657  0.39504449  0.06541734  1
  Te  Te94  1  0.74522557  0.37430885  0.41521160  1
  Te  Te95  1  0.75135874  0.41238569  0.75036254  1
  Te  Te96  1  0.74551081  0.76350165  0.10864958  1
  Te  Te97  1  0.74560008  0.72092158  0.40424524  1
  Te  Te98  1  0.76057555  0.75822424  0.74937156  1
  Te  Te99  1  0.09115804  0.26290760  0.25493604  1
  Te  Te100  1  0.05804438  0.24365606  0.61197520  1
  Te  Te101  1  0.06499308  0.26513184  0.90480236  1
  Te  Te102  1  0.07991962  0.57767930  0.24268440  1
  Te  Te103  1  0.07581035  0.58786737  0.56430451  1
  Te  Te104  1  0.09579234  0.56449461  0.93820844  1
  Te  Te105  1  0.07142349  0.93169161  0.27106091  1
  Te  Te106  1  0.09610318  0.90716620  0.59541838  1
  Te  Te107  1  0.08920874  0.94488260  0.90964037  1
  Te  Te108  1  0.41549973  0.25704632  0.21719625  1
  Te  Te109  1  0.40756108  0.27274573  0.58726093  1
  Te  Te110  1  0.38662045  0.21214085  0.94495247  1
  Te  Te111  1  0.39906789  0.58582722  0.22365389  1
  Te  Te112  1  0.42175859  0.56099373  0.59826134  1
  Te  Te113  1  0.39810416  0.58599349  0.91867779  1
  Te  Te114  1  0.41998061  0.89294991  0.25651121  1
  Te  Te115  1  0.43089590  0.91574244  0.58347587  1
  Te  Te116  1  0.43576320  0.92379578  0.91258693  1
  Te  Te117  1  0.76921231  0.21033766  0.23923791  1
  Te  Te118  1  0.81427895  0.24055284  0.59649087  1
  Te  Te119  1  0.75279573  0.25436466  0.91113980  1
  Te  Te120  1  0.73043933  0.55954338  0.26864953  1
  Te  Te121  1  0.75289559  0.57903657  0.59539581  1
  Te  Te122  1  0.74490407  0.57283490  0.91200415  1
  Te  Te123  1  0.75360328  0.92349060  0.25698605  1
  Te  Te124  1  0.72554087  0.91991951  0.58178178  1
  Te  Te125  1  0.77814753  0.91606543  0.90879729  1
  Te  Te126  1  0.22370331  0.24790278  0.07980883  1
  Te  Te127  1  0.25726776  0.23916257  0.42053831  1
  Te  Te128  1  0.25793362  0.28290140  0.75942562  1
  Te  Te129  1  0.28970646  0.52276211  0.03595594  1
  Te  Te130  1  0.26043902  0.58778064  0.42200709  1
  Te  Te131  1  0.25637277  0.55918379  0.76612424  1
  Te  Te132  1  0.26877276  0.93103674  0.06170549  1
  Te  Te133  1  0.25020084  0.93801423  0.42903206  1
  Te  Te134  1  0.25049134  0.92035195  0.76192230  1
  Te  Te135  1  0.66529541  0.25497287  0.14185851  1
  Te  Te136  1  0.57267116  0.23391961  0.40805960  1
  Te  Te137  1  0.58708597  0.26707455  0.75167575  1
  Te  Te138  1  0.57498626  0.59393047  0.08987769  1
  Te  Te139  1  0.57377733  0.58319540  0.43131795  1
  Te  Te140  1  0.59917769  0.58233782  0.76132871  1
  Te  Te141  1  0.58913619  0.91165891  0.08149477  1
  Te  Te142  1  0.58992707  0.90763893  0.40009015  1
  Te  Te143  1  0.57789201  0.95838678  0.74590645  1
  Te  Te144  1  0.91368747  0.27597606  0.09368224  1
  Te  Te145  1  0.88125165  0.31027535  0.46986105  1
  Te  Te146  1  0.92516390  0.23311840  0.70762330  1
  Te  Te147  1  0.89253633  0.58417071  0.08227280  1
  Te  Te148  1  0.93352921  0.57848146  0.37991765  1
  Te  Te149  1  0.90492826  0.58483542  0.74103533  1
  Te  Te150  1  0.92051157  0.91147439  0.08250194  1
  Te  Te151  1  0.91483833  0.92598904  0.42465709  1
  Te  Te152  1  0.93587236  0.91693456  0.75609291  1
  Te  Te153  1  0.26023837  0.06502100  0.25536391  1
  Te  Te154  1  0.24010312  0.09388480  0.59253846  1
  Te  Te155  1  0.28970628  0.09731091  0.92326989  1
  Te  Te156  1  0.25157041  0.44647933  0.24486079  1
  Te  Te157  1  0.22734201  0.40195044  0.57919393  1
  Te  Te158  1  0.26556986  0.40497588  0.94618926  1
  Te  Te159  1  0.23456061  0.74895350  0.24944130  1
  Te  Te160  1  0.27274433  0.76454588  0.58746464  1
  Te  Te161  1  0.25587789  0.74952679  0.93532232  1
  Te  Te162  1  0.58723959  0.07348819  0.23412664  1
  Te  Te163  1  0.59770128  0.10421070  0.57541143  1
  Te  Te164  1  0.58585492  0.12113635  0.93523566  1
  Te  Te165  1  0.55477156  0.41359037  0.24806794  1
  Te  Te166  1  0.58992126  0.42033217  0.58534512  1
  Te  Te167  1  0.56099427  0.41324937  0.93242316  1
  Te  Te168  1  0.50980752  0.75905568  0.24054399  1
  Te  Te169  1  0.59383943  0.73857229  0.60251583  1
  Te  Te170  1  0.60806300  0.76642071  0.91989426  1
  Te  Te171  1  0.94100194  0.09047131  0.26202945  1
  Te  Te172  1  0.91580590  0.08080578  0.58985013  1
  Te  Te173  1  0.92574606  0.11853001  0.91168305  1
  Te  Te174  1  0.88697690  0.38154087  0.22485657  1
  Te  Te175  1  0.94307364  0.42720073  0.53764078  1
  Te  Te176  1  0.92042711  0.40404976  0.90394609  1
  Te  Te177  1  0.92209324  0.74851706  0.24848796  1
  Te  Te178  1  0.90036827  0.74616813  0.57260508  1
  Te  Te179  1  0.95203298  0.76067724  0.90360021  1
