# generated using pymatgen
data_In2Te3
_symmetry_space_group_name_H-M   'P 1'
_cell_length_a   18.85677871
_cell_length_b   18.85542454
_cell_length_c   18.87181703
_cell_angle_alpha   90.03304943
_cell_angle_beta   90.10171736
_cell_angle_gamma   90.01341653
_symmetry_Int_Tables_number   1
_chemical_formula_structural   In2Te3
_chemical_formula_sum   'In72 Te108'
_cell_volume   6709.91113391
_cell_formula_units_Z   36
loop_
 _symmetry_equiv_pos_site_id
 _symmetry_equiv_pos_as_xyz
  1  'x, y, z'
loop_
 _atom_site_type_symbol
 _atom_site_label
 _atom_site_symmetry_multiplicity
 _atom_site_fract_x
 _atom_site_fract_y
 _atom_site_fract_z
 _atom_site_occupancy
  In  In0  1  0.48872828  0.17965596  0.67675659  1
  In  In1  1  0.66515117  0.48647167  0.15903302  1
  In  In2  1  0.85196002  0.85556548  0.65949889  1
  In  In3  1  0.64792228  0.85506051  0.18695308  1
  In  In4  1  0.16911069  0.01616236  0.82621079  1
  In  In5  1  0.83535773  0.17289903  0.68971055  1
  In  In6  1  0.31943175  0.17335316  0.85483231  1
  In  In7  1  -0.00835674  0.01572774  -0.00799658  1
  In  In8  1  -0.00867362  0.49818858  0.19783436  1
  In  In9  1  0.86254393  0.49445181  0.33288915  1
  In  In10  1  0.65073078  0.67545799  0.67032471  1
  In  In11  1  0.02164947  0.17769419  0.18780131  1
  In  In12  1  0.48113297  0.65407149  0.17949289  1
  In  In13  1  0.83678775  0.45344648  0.64461908  1
  In  In14  1  0.66000953  0.01343371  0.00711957  1
  In  In15  1  0.49752821  0.01105805  0.15836160  1
  In  In16  1  0.30421154  0.64076277  0.35716439  1
  In  In17  1  0.82676531  0.63384755  0.47949386  1
  In  In18  1  0.32647959  0.67165919  -0.01195961  1
  In  In19  1  0.48128227  0.80204470  0.33108197  1
  In  In20  1  0.01115343  0.48274849  0.81399321  1
  In  In21  1  0.32412000  0.65217973  0.60675869  1
  In  In22  1  0.14959013  0.66476097  0.81489363  1
  In  In23  1  0.88858646  0.30980038  0.49508833  1
  In  In24  1  0.83673288  0.66313102  0.83542996  1
  In  In25  1  0.17659258  0.00217133  0.16340813  1
  In  In26  1  0.02056940  0.81321187  0.49931582  1
  In  In27  1  0.85893811  0.03090722  0.14475898  1
  In  In28  1  0.65214608  0.49639675  0.47949390  1
  In  In29  1  0.49935656  0.33603774  0.49159046  1
  In  In30  1  0.02737603  0.84476977  0.19499776  1
  In  In31  1  0.30264373  0.15326664  0.47471015  1
  In  In32  1  0.83570811  0.34942231  0.17341540  1
  In  In33  1  0.16799642  0.50957687  -0.01406788  1
  In  In34  1  0.49959414  0.52590746  0.34953092  1
  In  In35  1  0.32409122  0.32564590  0.68593464  1
  In  In36  1  0.48494812  0.16933874  0.31179816  1
  In  In37  1  0.85216102  0.83029612  0.33994394  1
  In  In38  1  0.64121445  0.67086985  0.01190298  1
  In  In39  1  0.83865216  0.16677488  -0.01859981  1
  In  In40  1  0.50463343  -0.01625077  0.51701869  1
  In  In41  1  0.83225211  0.47524687  0.00569725  1
  In  In42  1  0.68845063  0.34378951  0.31996064  1
  In  In43  1  0.17867069  0.65916374  0.17534076  1
  In  In44  1  0.33311793  0.83388558  0.16724692  1
  In  In45  1  0.82360890  0.67659034  0.21487971  1
  In  In46  1  0.31643313  0.00605854  0.63165347  1
  In  In47  1  0.84501733  -0.00934474  0.49639592  1
  In  In48  1  0.30871081  0.20245610  0.14330714  1
  In  In49  1  0.67483406  0.81549182  0.51147756  1
  In  In50  1  0.00494790  0.67058972  0.05301405  1
  In  In51  1  0.01440437  0.01654334  0.67101356  1
  In  In52  1  0.33408315  0.83958606  0.82428938  1
  In  In53  1  0.02254925  0.30574437  0.65288562  1
  In  In54  1  0.01495964  0.65374525  0.65214142  1
  In  In55  1  0.30255861  0.36927475  0.33381095  1
  In  In56  1  0.17304008  0.16426272  0.34180415  1
  In  In57  1  0.49609449  -0.01340953  0.82973114  1
  In  In58  1  0.67359644  0.00809212  0.34023053  1
  In  In59  1  0.66612109  0.32590878  0.67242842  1
  In  In60  1  0.16147055  0.49171255  0.64500698  1
  In  In61  1  0.29691012  -0.02380545  0.36816760  1
  In  In62  1  0.66759613  0.17061773  0.82507227  1
  In  In63  1  0.01688362  0.83741630  0.82279547  1
  In  In64  1  0.66382121  0.85929922  0.84395815  1
  In  In65  1  0.49492531  0.20836665  0.01764589  1
  In  In66  1  0.66988575  0.14884430  0.49813743  1
  In  In67  1  0.33343034  0.47978575  0.83295672  1
  In  In68  1  0.81585618  0.83687083  -0.00571355  1
  In  In69  1  0.47204824  0.65964694  0.82762266  1
  In  In70  1  0.63753198  0.47603461  0.86048977  1
  In  In71  1  0.02063839  0.33126346  -0.00787945  1
  Te  Te72  1  0.08933174  0.09524411  0.07826473  1
  Te  Te73  1  0.07118413  0.11136486  0.44013518  1
  Te  Te74  1  0.06958907  0.11339902  0.77042562  1
  Te  Te75  1  0.07915803  0.43556160  0.08916783  1
  Te  Te76  1  0.10056758  0.46535143  0.37653520  1
  Te  Te77  1  0.10986535  0.39239614  0.74996906  1
  Te  Te78  1  0.11343010  0.76935572  0.09145535  1
  Te  Te79  1  0.13301386  0.76038714  0.41772823  1
  Te  Te80  1  0.09686652  0.76680545  0.71428909  1
  Te  Te81  1  0.40307471  0.09824177  0.07946491  1
  Te  Te82  1  0.42789123  0.07428375  0.41736835  1
  Te  Te83  1  0.39972108  0.07708050  0.74477310  1
  Te  Te84  1  0.45572780  0.35454904  0.06254221  1
  Te  Te85  1  0.40476323  0.43722612  0.43157081  1
  Te  Te86  1  0.42313062  0.42449021  0.73088251  1
  Te  Te87  1  0.42336526  0.74986515  0.07717607  1
  Te  Te88  1  0.38536215  0.74608732  0.42685555  1
  Te  Te89  1  0.38606574  0.73326634  0.72786593  1
  Te  Te90  1  0.74213755  0.11050678  0.08935097  1
  Te  Te91  1  0.77910276  0.09634424  0.40568237  1
  Te  Te92  1  0.74102856  0.07417376  0.74286436  1
  Te  Te93  1  0.72847680  0.38246803  0.06658199  1
  Te  Te94  1  0.77159593  0.40948266  0.43340592  1
  Te  Te95  1  0.74598121  0.42054561  0.76182529  1
  Te  Te96  1  0.74379836  0.74939824  0.09658120  1
  Te  Te97  1  0.74716365  0.73877273  0.40171424  1
  Te  Te98  1  0.75781197  0.76332632  0.75222562  1
  Te  Te99  1  0.13410093  0.26971386  0.23637344  1
  Te  Te100  1  0.09117074  0.21607969  0.55639975  1
  Te  Te101  1  0.12514204  0.25126476  0.92725480  1
  Te  Te102  1  0.09385739  0.58106611  0.27324815  1
  Te  Te103  1  0.11002907  0.59810609  0.55198106  1
  Te  Te104  1  0.05522179  0.59026218  0.91633327  1
  Te  Te105  1  0.10233808  0.94108516  0.27627462  1
  Te  Te106  1  0.08620611  0.92645933  0.57528063  1
  Te  Te107  1  0.08967185  0.92074678  0.92464992  1
  Te  Te108  1  0.39478246  0.27254112  0.25105822  1
  Te  Te109  1  0.40807581  0.23461197  0.56056041  1
  Te  Te110  1  0.41946032  0.27492744  0.90297123  1
  Te  Te111  1  0.38625722  0.56264867  0.25257075  1
  Te  Te112  1  0.43717833  0.58252080  0.54535049  1
  Te  Te113  1  0.41662306  0.56251502  0.93070147  1
  Te  Te114  1  0.42148813  0.92544960  0.26037720  1
  Te  Te115  1  0.40161979  0.89922689  0.57629480  1
  Te  Te116  1  0.40988111  0.91502567  0.92518960  1
  Te  Te117  1  0.77522504  0.24438685  0.25696781  1
  Te  Te118  1  0.75477364  0.25392904  0.57146879  1
  Te  Te119  1  0.74354146  0.25754975  0.91587940  1
  Te  Te120  1  0.73875792  0.56381168  0.27004964  1
  Te  Te121  1  0.74162140  0.57389102  0.59207255  1
  Te  Te122  1  0.74504455  0.58342905  0.92780226  1
  Te  Te123  1  0.76989011  0.92517533  0.24527991  1
  Te  Te124  1  0.73955547  0.93042690  0.58807049  1
  Te  Te125  1  0.76410546  0.95354404  0.91282924  1
  Te  Te126  1  0.23554018  0.27119096  0.03002350  1
  Te  Te127  1  0.22692496  0.28075152  0.43101244  1
  Te  Te128  1  0.23615139  0.22193029  0.74148140  1
  Te  Te129  1  0.26545861  0.57145566  0.08576599  1
  Te  Te130  1  0.21769004  0.53872319  0.43259690  1
  Te  Te131  1  0.24960384  0.57767581  0.74241611  1
  Te  Te132  1  0.26343576  0.92279168  0.07328003  1
  Te  Te133  1  0.21926037  0.90249703  0.47121620  1
  Te  Te134  1  0.24043360  0.91829477  0.73342003  1
  Te  Te135  1  0.56562089  0.27529727  0.12781821  1
  Te  Te136  1  0.59085810  0.24572062  0.40702550  1
  Te  Te137  1  0.56461288  0.27084062  0.77055258  1
  Te  Te138  1  0.55881671  0.56471799  0.08154918  1
  Te  Te139  1  0.56279482  0.61495058  0.45331112  1
  Te  Te140  1  0.57686579  0.57384453  0.75750159  1
  Te  Te141  1  0.57002316  0.90710518  0.06863448  1
  Te  Te142  1  0.58725489  0.90336909  0.40692755  1
  Te  Te143  1  0.57057458  0.89845834  0.73741384  1
  Te  Te144  1  0.92413425  0.25245290  0.08504121  1
  Te  Te145  1  0.97953086  0.23428664  0.40851416  1
  Te  Te146  1  0.91882918  0.27583295  0.75276563  1
  Te  Te147  1  0.88738726  0.57849600  0.10339509  1
  Te  Te148  1  0.94929084  0.57595836  0.42212720  1
  Te  Te149  1  0.90863984  0.57323576  0.73529962  1
  Te  Te150  1  0.92347509  0.89907815  0.08833006  1
  Te  Te151  1  0.94993569  0.92063055  0.41266995  1
  Te  Te152  1  0.91762994  0.93737679  0.76695580  1
  Te  Te153  1  0.27262115  0.08749064  0.25275532  1
  Te  Te154  1  0.21269968  0.10454611  0.58494809  1
  Te  Te155  1  0.25903616  0.06447443  0.93371405  1
  Te  Te156  1  0.21149485  0.40114409  0.22284937  1
  Te  Te157  1  0.26035182  0.40588110  0.57797337  1
  Te  Te158  1  0.23989412  0.39594553  0.91799084  1
  Te  Te159  1  0.24907596  0.75892735  0.26742582  1
  Te  Te160  1  0.23076076  0.74972667  0.53797316  1
  Te  Te161  1  0.22954229  0.75501215  0.90714865  1
  Te  Te162  1  0.59694358  0.09394855  0.23973571  1
  Te  Te163  1  0.58308746  0.08270167  0.60367654  1
  Te  Te164  1  0.56483433  0.09261216  0.91793085  1
  Te  Te165  1  0.57085216  0.42024355  0.26089943  1
  Te  Te166  1  0.57873315  0.42051283  0.59014990  1
  Te  Te167  1  0.54564494  0.39417108  0.93985744  1
  Te  Te168  1  0.59100035  0.73013643  0.25351454  1
  Te  Te169  1  0.56339584  0.76675229  0.59510518  1
  Te  Te170  1  0.57205735  0.74961994  0.90337565  1
  Te  Te171  1  0.94114649  0.07535436  0.25658245  1
  Te  Te172  1  0.91404381  0.09316975  0.58537011  1
  Te  Te173  1  0.94174947  0.11127813  0.88958671  1
  Te  Te174  1  0.94551884  0.37764009  0.27978392  1
  Te  Te175  1  0.96191110  0.42303555  0.56597234  1
  Te  Te176  1  0.91543625  0.40145597  0.90294542  1
  Te  Te177  1  0.95137003  0.73492303  0.27269871  1
  Te  Te178  1  0.90076751  0.73941010  0.57430541  1
  Te  Te179  1  0.92276037  0.75418384  0.92258758  1
