# generated using pymatgen
data_In2Te3
_symmetry_space_group_name_H-M   'P 1'
_cell_length_a   18.86616723
_cell_length_b   18.87635934
_cell_length_c   18.86031886
_cell_angle_alpha   90.09942876
_cell_angle_beta   89.97698978
_cell_angle_gamma   90.07615187
_symmetry_Int_Tables_number   1
_chemical_formula_structural   In2Te3
_chemical_formula_sum   'In72 Te108'
_cell_volume   6716.60602386
_cell_formula_units_Z   36
loop_
 _symmetry_equiv_pos_site_id
 _symmetry_equiv_pos_as_xyz
  1  'x, y, z'
loop_
 _atom_site_type_symbol
 _atom_site_label
 _atom_site_symmetry_multiplicity
 _atom_site_fract_x
 _atom_site_fract_y
 _atom_site_fract_z
 _atom_site_occupancy
  In  In0  1  0.31424569  0.02989267  0.65734687  1
  In  In1  1  0.50494449  0.15825787  0.33948187  1
  In  In2  1  0.18146311  0.84066229  0.36238479  1
  In  In3  1  0.66513311  0.33083686  0.35400585  1
  In  In4  1  0.48129684  0.67225053  0.17765890  1
  In  In5  1  0.82162077  -0.01423158  0.16344299  1
  In  In6  1  0.33394558  0.48562647  0.81493272  1
  In  In7  1  0.00109203  -0.00693904  0.33417593  1
  In  In8  1  0.84825694  0.66413114  0.19150316  1
  In  In9  1  0.01560520  0.51807172  0.82228675  1
  In  In10  1  0.83837886  0.18411987  0.36100915  1
  In  In11  1  0.17352276  0.81638711  0.63620896  1
  In  In12  1  0.16166936  0.84093806  -0.00233742  1
  In  In13  1  0.79749914  -0.02859350  0.87209352  1
  In  In14  1  0.49003408  0.33395035  0.84059905  1
  In  In15  1  0.00060052  0.84491066  0.49626314  1
  In  In16  1  0.51028889  0.33871492  0.15801981  1
  In  In17  1  0.80161650  0.82466951  0.67145645  1
  In  In18  1  0.51798820  0.63455831  0.48975748  1
  In  In19  1  0.67263055  0.81899777  0.49620429  1
  In  In20  1  -0.02976049  0.82867665  0.16579371  1
  In  In21  1  0.01321895  0.49754154  0.18855881  1
  In  In22  1  0.66309213  0.15964236  0.82231196  1
  In  In23  1  0.64526209  0.83561127  0.17055320  1
  In  In24  1  0.50154161  0.00561530  0.50568281  1
  In  In25  1  0.34826287  0.84229504  0.14362928  1
  In  In26  1  0.85673040  0.68076493  0.82275429  1
  In  In27  1  0.65091076  0.00010986  0.66497564  1
  In  In28  1  -0.01772773  0.17779168  0.83045756  1
  In  In29  1  -0.00172052  0.01327863  0.66748128  1
  In  In30  1  0.83727774  0.16637070  0.00867836  1
  In  In31  1  0.35168171  0.83397229  0.83836401  1
  In  In32  1  0.84561357  0.50491824  0.34917779  1
  In  In33  1  0.65747005  0.17195190  0.18403962  1
  In  In34  1  0.19156554  0.31063407  0.80973425  1
  In  In35  1  0.16090991  0.16276183  -0.01450303  1
  In  In36  1  0.01194530  0.18153395  0.48616739  1
  In  In37  1  0.51280757  0.66026519  0.82791545  1
  In  In38  1  0.33290525  0.35277180  0.34168769  1
  In  In39  1  -0.00961777  0.34265712  0.33482762  1
  In  In40  1  0.65893895  0.49817104  0.81637297  1
  In  In41  1  0.17517135  0.34994381  0.16889288  1
  In  In42  1  0.68689690  0.48361518  0.17046794  1
  In  In43  1  0.32574360  0.83047193  0.52529932  1
  In  In44  1  0.84277136  0.33051261  0.81658841  1
  In  In45  1  -0.00112351  0.66721246  -0.02972533  1
  In  In46  1  0.49884582  0.49648136  -0.01219560  1
  In  In47  1  0.34570238  0.50307951  0.49728434  1
  In  In48  1  0.50663607  -0.01519947  0.82682977  1
  In  In49  1  0.47767666  0.17267214  -0.01351593  1
  In  In50  1  0.52148076  0.81160047  0.66034606  1
  In  In51  1  0.33433145  0.15696790  0.15436949  1
  In  In52  1  0.16871163  0.66071950  0.84279787  1
  In  In53  1  0.62977419  0.35011932  0.62283236  1
  In  In54  1  0.16767334  0.49282620  0.65658666  1
  In  In55  1  0.66461955  0.67078602  0.00466570  1
  In  In56  1  0.33570228  0.66902560  0.33899386  1
  In  In57  1  0.18142759  0.01091208  0.83361722  1
  In  In58  1  0.68292889  0.01399563  0.32126469  1
  In  In59  1  0.18404203  0.18134825  0.34762331  1
  In  In60  1  0.17076907  0.64181343  0.17333751  1
  In  In61  1  0.17774995  0.33348723  0.48785830  1
  In  In62  1  0.49231306  0.83590042  0.31551583  1
  In  In63  1  0.16429009  0.01817736  0.16683288  1
  In  In64  1  0.82306760  0.49064266  0.00854932  1
  In  In65  1  -0.01790581  0.83106087  0.84236969  1
  In  In66  1  0.33941663  0.49496157  0.17919737  1
  In  In67  1  0.01480924  0.64577537  0.65525048  1
  In  In68  1  0.47154103  0.16596317  0.64670408  1
  In  In69  1  0.82967261  0.64524664  0.51436042  1
  In  In70  1  -0.01575056  0.17780113  0.15104477  1
  In  In71  1  0.82195390  0.17730426  0.64627555  1
  Te  Te72  1  0.06468852  0.07820271  0.06910380  1
  Te  Te73  1  0.09823889  0.07562125  0.41805246  1
  Te  Te74  1  0.08946491  0.10100711  0.75177421  1
  Te  Te75  1  0.07931288  0.41952963  0.08326168  1
  Te  Te76  1  0.08179989  0.42275058  0.41814067  1
  Te  Te77  1  0.08358896  0.40636401  0.74698798  1
  Te  Te78  1  0.08020921  0.74256269  0.08067126  1
  Te  Te79  1  0.09191902  0.74791983  0.43194148  1
  Te  Te80  1  0.08146234  0.75198143  0.75579575  1
  Te  Te81  1  0.43013686  0.07193312  0.08353788  1
  Te  Te82  1  0.40801904  0.08677543  0.42691199  1
  Te  Te83  1  0.41126525  0.08624298  0.76109839  1
  Te  Te84  1  0.40686766  0.40788163  0.07163642  1
  Te  Te85  1  0.44225030  0.41340790  0.42446791  1
  Te  Te86  1  0.44485905  0.42696374  0.73207879  1
  Te  Te87  1  0.43380571  0.75205996  0.06510456  1
  Te  Te88  1  0.43125417  0.75801275  0.43278437  1
  Te  Te89  1  0.41179061  0.73896452  0.73642232  1
  Te  Te90  1  0.73554087  0.08281285  0.08578478  1
  Te  Te91  1  0.74076068  0.09694538  0.42705860  1
  Te  Te92  1  0.76476084  0.07394513  0.74824579  1
  Te  Te93  1  0.74096753  0.38765585  0.07382451  1
  Te  Te94  1  0.74460043  0.43198007  0.43620592  1
  Te  Te95  1  0.73218690  0.39270815  0.73408530  1
  Te  Te96  1  0.75254025  0.74543049  0.10385299  1
  Te  Te97  1  0.76428663  0.73590910  0.41802184  1
  Te  Te98  1  0.73363783  0.72602972  0.75632326  1
  Te  Te99  1  0.08381141  0.24394138  0.25068599  1
  Te  Te100  1  0.09052094  0.26077901  0.58336690  1
  Te  Te101  1  0.07887303  0.26443214  0.90903804  1
  Te  Te102  1  0.07078377  0.60282786  0.27309465  1
  Te  Te103  1  0.06702352  0.54456895  0.55866276  1
  Te  Te104  1  0.10533467  0.56166047  0.93824071  1
  Te  Te105  1  0.09072840  0.90669521  0.24197120  1
  Te  Te106  1  0.09500746  0.93347038  0.57955444  1
  Te  Te107  1  0.07508560  0.92982098  0.91102628  1
  Te  Te108  1  0.41240450  0.25806703  0.24553877  1
  Te  Te109  1  0.39728748  0.29156777  0.62133879  1
  Te  Te110  1  0.38423400  0.25588898  0.90662551  1
  Te  Te111  1  0.43101590  0.56805325  0.27755947  1
  Te  Te112  1  0.41574724  0.59663602  0.58910315  1
  Te  Te113  1  0.40716281  0.58559528  0.90940896  1
  Te  Te114  1  0.40638276  0.93056622  0.24635772  1
  Te  Te115  1  0.42879978  0.92508419  0.61289959  1
  Te  Te116  1  0.42231859  0.92254354  0.93096714  1
  Te  Te117  1  0.75909022  0.25977717  0.25451367  1
  Te  Te118  1  0.73891560  0.26770149  0.56515321  1
  Te  Te119  1  0.75384394  0.24654662  0.90699831  1
  Te  Te120  1  0.74318885  0.58583226  0.26718284  1
  Te  Te121  1  0.74867242  0.53972870  0.58455720  1
  Te  Te122  1  0.75169941  0.58213986  0.90747501  1
  Te  Te123  1  0.75482117  0.89377312  0.26341167  1
  Te  Te124  1  0.74933975  0.92816660  0.57348592  1
  Te  Te125  1  0.70301611  0.89271655  0.95240388  1
  Te  Te126  1  0.24651719  0.25328528  0.07703134  1
  Te  Te127  1  0.29107881  0.24079744  0.43687750  1
  Te  Te128  1  0.27743547  0.24080261  0.70926412  1
  Te  Te129  1  0.26990644  0.58254884  0.08416856  1
  Te  Te130  1  0.24716217  0.58771332  0.42375036  1
  Te  Te131  1  0.25077673  0.59077645  0.73768429  1
  Te  Te132  1  0.25185027  0.93823147  0.07078592  1
  Te  Te133  1  0.26498547  0.93319070  0.44018425  1
  Te  Te134  1  0.24718981  0.90584013  0.74255169  1
  Te  Te135  1  0.58762631  0.24455800  0.06978173  1
  Te  Te136  1  0.56308385  0.25708739  0.43174078  1
  Te  Te137  1  0.57619778  0.24815509  0.73688112  1
  Te  Te138  1  0.58030204  0.57472847  0.09314002  1
  Te  Te139  1  0.63177559  0.54789627  0.44338300  1
  Te  Te140  1  0.55445792  0.55613102  0.72818124  1
  Te  Te141  1  0.59253444  0.90876093  0.05631935  1
  Te  Te142  1  0.58693712  0.91987560  0.41345985  1
  Te  Te143  1  0.60640437  0.89089582  0.75998206  1
  Te  Te144  1  0.91937078  0.27576586  0.06475484  1
  Te  Te145  1  0.90624760  0.28780337  0.44943321  1
  Te  Te146  1  0.93061822  0.26179941  0.71285336  1
  Te  Te147  1  0.92072774  0.58679279  0.07853077  1
  Te  Te148  1  0.93992201  0.57655827  0.43951380  1
  Te  Te149  1  0.89852030  0.56358211  0.72946457  1
  Te  Te150  1  0.91683440  0.92492196  0.06950015  1
  Te  Te151  1  0.90379723  0.92069643  0.41619035  1
  Te  Te152  1  0.90495060  0.91916529  0.74558384  1
  Te  Te153  1  0.26196727  0.07940895  0.26540220  1
  Te  Te154  1  0.23020367  0.13648758  0.60304554  1
  Te  Te155  1  0.27072065  0.09158716  0.91722139  1
  Te  Te156  1  0.23122849  0.44280109  0.27454145  1
  Te  Te157  1  0.27256453  0.40296250  0.59400373  1
  Te  Te158  1  0.25360892  0.40280872  0.90608831  1
  Te  Te159  1  0.25642389  0.75831342  0.24442241  1
  Te  Te160  1  0.23913140  0.71224330  0.55471077  1
  Te  Te161  1  0.25892095  0.74797624  0.92736701  1
  Te  Te162  1  0.56594268  0.06257596  0.23728574  1
  Te  Te163  1  0.59301533  0.10662434  0.57490075  1
  Te  Te164  1  0.58431724  0.07874617  0.92018310  1
  Te  Te165  1  0.58166994  0.42190379  0.26145268  1
  Te  Te166  1  0.55674509  0.45292366  0.53983709  1
  Te  Te167  1  0.59975642  0.40454216  0.92154192  1
  Te  Te168  1  0.58816936  0.72922580  0.26973377  1
  Te  Te169  1  0.61164810  0.71519750  0.58839585  1
  Te  Te170  1  0.57567176  0.75692118  0.92288890  1
  Te  Te171  1  0.90999511  0.08947253  0.25314802  1
  Te  Te172  1  0.91683907  0.08874761  0.56450714  1
  Te  Te173  1  0.90817627  0.07244962  0.91164513  1
  Te  Te174  1  0.89725291  0.41259377  0.23771197  1
  Te  Te175  1  0.88155710  0.47874011  0.59806219  1
  Te  Te176  1  0.91743192  0.43095490  0.90303205  1
  Te  Te177  1  0.93424103  0.74493386  0.28015099  1
  Te  Te178  1  0.92203708  0.75489200  0.60242973  1
  Te  Te179  1  0.88748231  0.76898802  0.94336064  1
