# generated using pymatgen
data_In2Te3
_symmetry_space_group_name_H-M   'P 1'
_cell_length_a   18.92111149
_cell_length_b   18.91573248
_cell_length_c   18.94850633
_cell_angle_alpha   89.98692969
_cell_angle_beta   89.93608725
_cell_angle_gamma   89.84216287
_symmetry_Int_Tables_number   1
_chemical_formula_structural   In2Te3
_chemical_formula_sum   'In72 Te108'
_cell_volume   6781.76692982
_cell_formula_units_Z   36
loop_
 _symmetry_equiv_pos_site_id
 _symmetry_equiv_pos_as_xyz
  1  'x, y, z'
loop_
 _atom_site_type_symbol
 _atom_site_label
 _atom_site_symmetry_multiplicity
 _atom_site_fract_x
 _atom_site_fract_y
 _atom_site_fract_z
 _atom_site_occupancy
  In  In0  1  0.81265230  0.31981641  0.52994601  1
  In  In1  1  0.34207207  0.51104989  0.82935004  1
  In  In2  1  -0.02131221  0.33529640  0.69086984  1
  In  In3  1  0.49885014  0.52157614  0.66467098  1
  In  In4  1  0.15491980  0.65170406  0.50062581  1
  In  In5  1  0.30417038  -0.01649466  0.35214529  1
  In  In6  1  0.83332166  0.32099334  0.82062115  1
  In  In7  1  0.16939662  0.48806562  0.33805399  1
  In  In8  1  0.51726331  0.32817428  0.51017870  1
  In  In9  1  0.49920694  -0.03279688  0.83651469  1
  In  In10  1  -0.00613359  0.31959170  0.34388628  1
  In  In11  1  0.66535078  0.49427030  0.18552181  1
  In  In12  1  0.36036430  0.68793580  0.30838313  1
  In  In13  1  0.18458796  0.65177170  0.18064303  1
  In  In14  1  0.83210400  0.01442016  0.17604568  1
  In  In15  1  0.50307367  0.34434838  0.17735518  1
  In  In16  1  0.51245959  0.16442503  0.34387197  1
  In  In17  1  0.14456937  0.13591911  0.65216775  1
  In  In18  1  0.51004227  0.67574089  0.18645880  1
  In  In19  1  -0.00596402  0.66915854  0.64015813  1
  In  In20  1  0.63341177  -0.02576069  0.00316027  1
  In  In21  1  0.18540116  0.84043298  0.00633871  1
  In  In22  1  0.16857249  -0.01071174  0.18693328  1
  In  In23  1  0.33705748  0.53178181  0.17707586  1
  In  In24  1  0.82593546  0.85175033  0.00240594  1
  In  In25  1  0.82119434  0.66661915  0.15104192  1
  In  In26  1  0.17213888  0.29752248  0.82955601  1
  In  In27  1  0.18069322  0.16446897  -0.02598593  1
  In  In28  1  0.50619471  0.50621563  -0.00869923  1
  In  In29  1  0.18777317  0.30073311  0.14776283  1
  In  In30  1  0.16576366  0.32729968  0.49922645  1
  In  In31  1  0.33301459  0.31379829  0.34851006  1
  In  In32  1  -0.01083416  0.83930139  0.50914819  1
  In  In33  1  0.61998269  0.73313580  0.00571533  1
  In  In34  1  0.01765288  0.34970738  0.00317750  1
  In  In35  1  0.50442284  0.84646256  0.32767483  1
  In  In36  1  0.68635248  0.00961236  0.34937678  1
  In  In37  1  0.01668633  0.00165516  -0.00764029  1
  In  In38  1  -0.00137069  0.15349094  0.20069860  1
  In  In39  1  0.50872366  0.00115131  0.50914565  1
  In  In40  1  0.66498202  0.14263287  0.80200323  1
  In  In41  1  0.50985644  0.83327259  0.66060829  1
  In  In42  1  0.65199557  -0.00742365  0.65370093  1
  In  In43  1  0.33111124  0.83831043  0.15632766  1
  In  In44  1  0.16898176  0.84042832  0.65723702  1
  In  In45  1  0.51441470  0.17939395  0.65974188  1
  In  In46  1  -0.02651467  0.68655438  -0.01247903  1
  In  In47  1  0.34340756  0.31846026  -0.01493651  1
  In  In48  1  0.02521387  0.83026879  0.18684506  1
  In  In49  1  0.66376908  0.33481313  0.01742476  1
  In  In50  1  -0.00398334  0.50943502  0.81709119  1
  In  In51  1  0.82679039  -0.02101028  0.51595254  1
  In  In52  1  0.65360055  0.16726817  0.16284914  1
  In  In53  1  0.33940671  0.66808371  0.65987062  1
  In  In54  1  0.31986117  -0.01382544  0.65846431  1
  In  In55  1  -0.01542790  0.13126494  0.80016733  1
  In  In56  1  0.84558677  0.50556861  0.35855301  1
  In  In57  1  0.34971537  0.15733070  0.82463552  1
  In  In58  1  0.17701491  0.50496451  0.02045213  1
  In  In59  1  0.00811179  0.13263400  0.48594385  1
  In  In60  1  0.81022219  0.70549117  0.48929132  1
  In  In61  1  0.18204413  0.67726336  0.84238294  1
  In  In62  1  -0.01272317  0.86871026  0.79119366  1
  In  In63  1  0.81787986  0.52475089  0.64513465  1
  In  In64  1  0.65197522  0.52493588  0.47187450  1
  In  In65  1  0.85175406  0.17309470  0.00280459  1
  In  In66  1  0.35920466  0.33907752  0.65240537  1
  In  In67  1  0.81721119  0.32491606  0.19995252  1
  In  In68  1  0.81751261  0.53652876  -0.02067308  1
  In  In69  1  0.67172490  0.53921697  0.81970761  1
  In  In70  1  -0.01820203  0.67931664  0.34273269  1
  In  In71  1  0.34652288  0.51130569  0.50309288  1
  Te  Te72  1  0.08784115  0.09875588  0.08418504  1
  Te  Te73  1  0.09071735  0.04218668  0.40297284  1
  Te  Te74  1  0.11253763  0.06269642  0.77507848  1
  Te  Te75  1  0.09471327  0.41914575  0.11418384  1
  Te  Te76  1  0.06809137  0.42188322  0.42890088  1
  Te  Te77  1  0.09371840  0.41046638  0.75628072  1
  Te  Te78  1  0.08857044  0.74093411  0.08134365  1
  Te  Te79  1  0.08622281  0.75832460  0.41803297  1
  Te  Te80  1  0.07889741  0.74287461  0.74956228  1
  Te  Te81  1  0.51263492  0.02243145  0.07943994  1
  Te  Te82  1  0.41496977  0.07413474  0.41640444  1
  Te  Te83  1  0.43888726  0.06503496  0.72702976  1
  Te  Te84  1  0.40827336  0.42556448  0.07935691  1
  Te  Te85  1  0.42408283  0.41061787  0.42005060  1
  Te  Te86  1  0.43591775  0.41548430  0.75753093  1
  Te  Te87  1  0.41772643  0.73838484  0.08908069  1
  Te  Te88  1  0.41181929  0.77182268  0.41558242  1
  Te  Te89  1  0.41534589  0.75837465  0.74751585  1
  Te  Te90  1  0.74751933  0.08283689  0.06695476  1
  Te  Te91  1  0.74866217  0.09056181  0.45651311  1
  Te  Te92  1  0.76402837  0.05404435  0.73487788  1
  Te  Te93  1  0.76700794  0.42121794  0.08590837  1
  Te  Te94  1  0.74938488  0.41199769  0.42491496  1
  Te  Te95  1  0.75712765  0.43233070  0.74881579  1
  Te  Te96  1  0.73385568  0.77868776  0.09874827  1
  Te  Te97  1  0.71783842  0.71604980  0.37530626  1
  Te  Te98  1  0.70708685  0.68141502  0.77948855  1
  Te  Te99  1  0.10118383  0.24655588  0.26331631  1
  Te  Te100  1  0.06574834  0.25050616  0.59081225  1
  Te  Te101  1  0.05223717  0.23772250  0.90445199  1
  Te  Te102  1  0.07774183  0.58537932  0.26331763  1
  Te  Te103  1  0.08392333  0.56382922  0.59219481  1
  Te  Te104  1  0.08040888  0.58096298  0.92486653  1
  Te  Te105  1  0.06733029  0.93556716  0.28295800  1
  Te  Te106  1  0.06360969  0.93071272  0.60137607  1
  Te  Te107  1  0.08525760  0.89998349  0.90553894  1
  Te  Te108  1  0.41828341  0.23953640  0.24726759  1
  Te  Te109  1  0.41038330  0.23027173  0.56114663  1
  Te  Te110  1  0.43431958  0.25795752  0.88792781  1
  Te  Te111  1  0.45674920  0.55898453  0.27276373  1
  Te  Te112  1  0.44196335  0.61452443  0.55841065  1
  Te  Te113  1  0.42682407  0.59822863  0.90885394  1
  Te  Te114  1  0.40577969  0.93109953  0.24899610  1
  Te  Te115  1  0.40880393  0.90278514  0.56735515  1
  Te  Te116  1  0.43937498  0.89123439  0.95167821  1
  Te  Te117  1  0.75716605  0.20760531  0.26056769  1
  Te  Te118  1  0.72500398  0.25933464  0.62875340  1
  Te  Te119  1  0.74402423  0.24173396  0.91692127  1
  Te  Te120  1  0.75425269  0.58834268  0.26693893  1
  Te  Te121  1  0.71540906  0.61435119  0.57826385  1
  Te  Te122  1  0.73584131  0.65519285  0.92923835  1
  Te  Te123  1  0.73251627  0.92595498  0.23633641  1
  Te  Te124  1  0.71854317  0.88106456  0.57439886  1
  Te  Te125  1  0.73140322  0.91262706  0.90892314  1
  Te  Te126  1  0.28709802  0.20982480  0.07420423  1
  Te  Te127  1  0.23691948  0.22908569  0.41807339  1
  Te  Te128  1  0.26011310  0.23907035  0.72147508  1
  Te  Te129  1  0.27345581  0.61212219  0.06242963  1
  Te  Te130  1  0.26666138  0.59007972  0.39703464  1
  Te  Te131  1  0.24181740  0.58110266  0.74030247  1
  Te  Te132  1  0.26338097  0.95118170  0.07360470  1
  Te  Te133  1  0.20318745  0.94920388  0.45611764  1
  Te  Te134  1  0.26409805  0.89253981  0.75739175  1
  Te  Te135  1  0.55597650  0.24587251  0.07295847  1
  Te  Te136  1  0.60119491  0.26127010  0.40926028  1
  Te  Te137  1  0.61033038  0.26670914  0.73539417  1
  Te  Te138  1  0.59867414  0.58666007  0.08429238  1
  Te  Te139  1  0.55657056  0.59554797  0.38740447  1
  Te  Te140  1  0.56037480  0.62140531  0.75759663  1
  Te  Te141  1  0.54101675  0.87702371  0.08472262  1
  Te  Te142  1  0.60061658  0.91153175  0.42784449  1
  Te  Te143  1  0.61222027  0.89410977  0.76426980  1
  Te  Te144  1  0.92962490  0.25907858  0.09979664  1
  Te  Te145  1  0.90929789  0.23757691  0.43796650  1
  Te  Te146  1  0.88628382  0.21779829  0.72088571  1
  Te  Te147  1  0.92621779  0.58028977  0.08357163  1
  Te  Te148  1  0.91637828  0.59938497  0.45287043  1
  Te  Te149  1  0.90093095  0.60188086  0.74809905  1
  Te  Te150  1  0.93670825  0.91931788  0.09298193  1
  Te  Te151  1  0.89057821  0.89342733  0.41472277  1
  Te  Te152  1  0.88997744  0.95798475  0.72656060  1
  Te  Te153  1  0.25182297  0.08527410  0.25766381  1
  Te  Te154  1  0.24116077  0.06913472  0.56039773  1
  Te  Te155  1  0.25665082  0.06721588  0.89402365  1
  Te  Te156  1  0.26013250  0.41140567  0.24082851  1
  Te  Te157  1  0.25299857  0.42232814  0.58285955  1
  Te  Te158  1  0.23911142  0.40914590  0.91847178  1
  Te  Te159  1  0.23954397  0.76923621  0.25722295  1
  Te  Te160  1  0.25011035  0.74935900  0.56668220  1
  Te  Te161  1  0.27195698  0.77115244  0.90884224  1
  Te  Te162  1  0.57885150  0.06626232  0.24807468  1
  Te  Te163  1  0.60677769  0.10709201  0.56063290  1
  Te  Te164  1  0.57219900  0.08339413  0.90314604  1
  Te  Te165  1  0.60987577  0.38666332  0.26868840  1
  Te  Te166  1  0.59377883  0.43458756  0.58499816  1
  Te  Te167  1  0.60991567  0.42927460  0.91194495  1
  Te  Te168  1  0.60833298  0.75201322  0.26890158  1
  Te  Te169  1  0.61581181  0.76974932  0.57932446  1
  Te  Te170  1  0.53822745  0.79314046  0.89443987  1
  Te  Te171  1  0.90728141  0.07814557  0.28533671  1
  Te  Te172  1  0.94138109  0.04691130  0.59135821  1
  Te  Te173  1  0.90417934  0.06334737  0.91107873  1
  Te  Te174  1  0.92032354  0.42075236  0.25643049  1
  Te  Te175  1  0.91277326  0.42150952  0.58505450  1
  Te  Te176  1  0.91162743  0.41863411  0.91569350  1
  Te  Te177  1  0.90317841  0.76070148  0.24251213  1
  Te  Te178  1  0.88767568  0.76923468  0.60547658  1
  Te  Te179  1  0.90760613  0.77961301  0.89133888  1
