# generated using pymatgen
data_In2Te3
_symmetry_space_group_name_H-M   'P 1'
_cell_length_a   18.99385757
_cell_length_b   18.98094364
_cell_length_c   18.93606968
_cell_angle_alpha   90.21126692
_cell_angle_beta   89.70927564
_cell_angle_gamma   90.06587001
_symmetry_Int_Tables_number   1
_chemical_formula_structural   In2Te3
_chemical_formula_sum   'In72 Te108'
_cell_volume   6826.71855382
_cell_formula_units_Z   36
loop_
 _symmetry_equiv_pos_site_id
 _symmetry_equiv_pos_as_xyz
  1  'x, y, z'
loop_
 _atom_site_type_symbol
 _atom_site_label
 _atom_site_symmetry_multiplicity
 _atom_site_fract_x
 _atom_site_fract_y
 _atom_site_fract_z
 _atom_site_occupancy
  In  In0  1  0.64159614  0.32599004  0.34768581  1
  In  In1  1  0.16166654  0.17569815  -0.00002750  1
  In  In2  1  0.51160055  0.50266650  -0.00248022  1
  In  In3  1  0.34351733  0.68049652  0.35795011  1
  In  In4  1  0.85331362  0.19763856  0.35603312  1
  In  In5  1  0.49294531  0.18014300  -0.00273170  1
  In  In6  1  0.33284525  0.80395126  0.78983798  1
  In  In7  1  0.33586641  0.01908558  0.65227699  1
  In  In8  1  -0.00310239  0.15641109  0.84793728  1
  In  In9  1  0.35988446  0.19287076  0.21111710  1
  In  In10  1  0.67104363  0.66335235  0.64243804  1
  In  In11  1  -0.01049520  0.82100614  0.15972503  1
  In  In12  1  0.35704433  -0.02175466  0.01201716  1
  In  In13  1  0.17129662  0.01807346  0.15758380  1
  In  In14  1  0.47415164  0.32719829  0.50469314  1
  In  In15  1  0.82376857  0.82788672  -0.01020576  1
  In  In16  1  0.34432800  0.16178190  0.48364429  1
  In  In17  1  0.66870494  0.80796733  0.82971355  1
  In  In18  1  0.83571753  0.33612509  0.17612013  1
  In  In19  1  -0.02700176  -0.02828330  0.67519729  1
  In  In20  1  0.82827605  0.67511478  0.17230863  1
  In  In21  1  0.17855117  0.63478000  0.19847018  1
  In  In22  1  0.00470167  0.02456061  0.31653552  1
  In  In23  1  0.17052019  0.46217293  0.62264044  1
  In  In24  1  0.50251348  0.82629447  0.01078574  1
  In  In25  1  0.33701510  0.84471240  0.49146831  1
  In  In26  1  0.14970403  0.66776451  0.49294005  1
  In  In27  1  0.84012739  0.15905823  0.00142415  1
  In  In28  1  0.35662014  0.69425612  0.01066665  1
  In  In29  1  0.67057086  0.82983357  0.14955023  1
  In  In30  1  0.50636730  0.66745333  0.79970059  1
  In  In31  1  0.68002977  0.83741717  0.50739249  1
  In  In32  1  0.48326961  0.35052909  0.83255911  1
  In  In33  1  0.14984956  0.46750403  0.36216300  1
  In  In34  1  0.49781011  0.51116719  0.63413821  1
  In  In35  1  0.73092201  0.56443003  0.81641858  1
  In  In36  1  0.53394739  -0.02529123  0.83929630  1
  In  In37  1  0.00724146  0.68750092  0.66318086  1
  In  In38  1  0.66790844  0.67044376  0.31943694  1
  In  In39  1  0.86474014  0.50777166  0.38405104  1
  In  In40  1  0.16390761  0.19718073  0.66313043  1
  In  In41  1  0.68170763  0.33723681  0.68426148  1
  In  In42  1  0.51085351  -0.01730209  0.17534215  1
  In  In43  1  0.32318381  0.49657558  0.82270242  1
  In  In44  1  0.14363794  -0.01695257  0.84064744  1
  In  In45  1  0.65432619  0.49831477  0.16199552  1
  In  In46  1  0.15622698  0.64368339  0.79953744  1
  In  In47  1  0.50153071  0.14310434  0.65197319  1
  In  In48  1  0.67326279  0.13563714  0.80026579  1
  In  In49  1  0.01874173  0.49602680  0.18604865  1
  In  In50  1  0.63075664  0.15950194  0.16107713  1
  In  In51  1  0.81675038  0.14509045  0.67433337  1
  In  In52  1  0.82267324  0.82538605  0.33191497  1
  In  In53  1  0.51506250  -0.01602493  0.47872612  1
  In  In54  1  -0.01808944  0.50514499  0.81176940  1
  In  In55  1  0.16473428  0.18103118  0.33397356  1
  In  In56  1  0.00226033  0.34054215  0.65374197  1
  In  In57  1  0.86091803  0.33991523  0.85424261  1
  In  In58  1  0.83239993  0.00321962  0.49725270  1
  In  In59  1  0.68532989  0.31080513  0.01007341  1
  In  In60  1  -0.02833668  0.68337536  0.00273315  1
  In  In61  1  0.00924328  0.18480270  0.16539477  1
  In  In62  1  0.49372568  0.50734025  0.36136352  1
  In  In63  1  0.30239196  0.15351003  0.81483514  1
  In  In64  1  0.66138047  0.16803410  0.50392883  1
  In  In65  1  0.16700045  0.83385062  0.35423466  1
  In  In66  1  0.16031723  0.51510459  0.01821922  1
  In  In67  1  0.34495939  0.48663461  0.21148236  1
  In  In68  1  0.14557556  0.84470939  0.63934674  1
  In  In69  1  0.15289077  0.82064486  -0.01411456  1
  In  In70  1  0.68673928  0.50687087  0.49830222  1
  In  In71  1  0.31392492  0.34157709  0.02403369  1
  Te  Te72  1  0.06548476  0.08006684  0.06987072  1
  Te  Te73  1  0.08125792  0.09367521  0.41829879  1
  Te  Te74  1  0.08724492  0.08316899  0.74396021  1
  Te  Te75  1  0.10921715  0.40923943  0.10728879  1
  Te  Te76  1  0.04170038  0.40298972  0.44639727  1
  Te  Te77  1  0.08930844  0.42000838  0.74933830  1
  Te  Te78  1  0.09697384  0.72567775  0.09609498  1
  Te  Te79  1  0.05877387  0.76993852  0.43393284  1
  Te  Te80  1  0.09043852  0.77556724  0.76328517  1
  Te  Te81  1  0.41310956  0.09393583  0.09332305  1
  Te  Te82  1  0.41961633  0.06472682  0.40215209  1
  Te  Te83  1  0.42810964  0.07460078  0.77373144  1
  Te  Te84  1  0.41827264  0.42455853  0.09201432  1
  Te  Te85  1  0.39175672  0.43283779  0.44090930  1
  Te  Te86  1  0.40792876  0.41950010  0.72192530  1
  Te  Te87  1  0.41615702  0.77869683  0.12442957  1
  Te  Te88  1  0.44069692  0.77312648  0.41555899  1
  Te  Te89  1  0.40540545  0.70681768  0.69591800  1
  Te  Te90  1  0.73701345  0.09466808  0.08295671  1
  Te  Te91  1  0.75219183  0.09485737  0.40660702  1
  Te  Te92  1  0.75000734  0.02777036  0.73539325  1
  Te  Te93  1  0.75858952  0.42449072  0.07809124  1
  Te  Te94  1  0.75453677  0.40204435  0.41350206  1
  Te  Te95  1  0.77626343  0.42600939  0.75941679  1
  Te  Te96  1  0.73496142  0.71446415  0.05874461  1
  Te  Te97  1  0.75625589  0.72958102  0.42828201  1
  Te  Te98  1  0.75960094  0.72611275  0.74340234  1
  Te  Te99  1  0.07307256  0.27145234  0.26294215  1
  Te  Te100  1  0.07929808  0.25468211  0.55839313  1
  Te  Te101  1  0.07834190  0.25749332  0.91439862  1
  Te  Te102  1  0.07268862  0.58736748  0.29400214  1
  Te  Te103  1  0.07553205  0.57238208  0.58356995  1
  Te  Te104  1  0.07460601  0.59713640  0.91911930  1
  Te  Te105  1  0.08531600  0.91422027  0.23574997  1
  Te  Te106  1  0.06656054  0.94115664  0.56609981  1
  Te  Te107  1  0.05696969  0.92037991  0.94012446  1
  Te  Te108  1  0.44162537  0.29545994  0.27009643  1
  Te  Te109  1  0.39945750  0.24161706  0.60555981  1
  Te  Te110  1  0.39203963  0.25691507  0.91327384  1
  Te  Te111  1  0.43073273  0.60053951  0.25865338  1
  Te  Te112  1  0.41482746  0.61109603  0.57496750  1
  Te  Te113  1  0.41587335  0.58524827  0.90348870  1
  Te  Te114  1  0.39962517  0.90008124  0.21577568  1
  Te  Te115  1  0.42760395  0.92028207  0.58957473  1
  Te  Te116  1  0.41086438  0.88906171  0.89744660  1
  Te  Te117  1  0.73668794  0.25124678  0.25339283  1
  Te  Te118  1  0.75768624  0.25318628  0.58311166  1
  Te  Te119  1  0.74705748  0.24225097  0.88894562  1
  Te  Te120  1  0.75626401  0.56318559  0.25743063  1
  Te  Te121  1  0.78273118  0.57839688  0.58625843  1
  Te  Te122  1  0.77458519  0.61681925  0.94275443  1
  Te  Te123  1  0.76939068  0.91138172  0.22418235  1
  Te  Te124  1  0.77591097  0.90844358  0.59460901  1
  Te  Te125  1  0.73469425  0.91210993  0.91074388  1
  Te  Te126  1  0.24966137  0.23526768  0.10785339  1
  Te  Te127  1  0.25652671  0.26556921  0.42039094  1
  Te  Te128  1  0.24946933  0.27389863  0.75415929  1
  Te  Te129  1  0.27703957  0.58653963  0.08806281  1
  Te  Te130  1  0.24211877  0.58009018  0.41194799  1
  Te  Te131  1  0.24882657  0.56615965  0.71017121  1
  Te  Te132  1  0.24108000  0.90662719  0.07814979  1
  Te  Te133  1  0.24933039  0.93542020  0.41748940  1
  Te  Te134  1  0.25328423  0.92632649  0.74230790  1
  Te  Te135  1  0.56320121  0.27550831  0.09151086  1
  Te  Te136  1  0.55137996  0.22755909  0.41880862  1
  Te  Te137  1  0.57269789  0.24926690  0.74793332  1
  Te  Te138  1  0.56937666  0.59586253  0.09486406  1
  Te  Te139  1  0.58923621  0.59996485  0.43204501  1
  Te  Te140  1  0.59343838  0.55176997  0.75086636  1
  Te  Te141  1  0.59756588  0.93062717  0.06183220  1
  Te  Te142  1  0.60731630  0.90185055  0.39560036  1
  Te  Te143  1  0.57196358  0.87593311  0.73737756  1
  Te  Te144  1  0.92117278  0.26591793  0.07107687  1
  Te  Te145  1  0.93229620  0.29037180  0.44261615  1
  Te  Te146  1  0.91429377  0.24699054  0.74294568  1
  Te  Te147  1  0.92356624  0.57842205  0.10029344  1
  Te  Te148  1  0.89843182  0.61788180  0.47964674  1
  Te  Te149  1  0.90784247  0.61007505  0.74224081  1
  Te  Te150  1  0.88917121  0.90822487  0.09790527  1
  Te  Te151  1  0.91588021  0.92766415  0.39523372  1
  Te  Te152  1  0.93486594  0.86152114  0.76215718  1
  Te  Te153  1  0.25857284  0.08469210  0.25876202  1
  Te  Te154  1  0.23799813  0.09554020  0.57196189  1
  Te  Te155  1  0.25349674  0.06581876  0.92976352  1
  Te  Te156  1  0.22249719  0.41180746  0.24221258  1
  Te  Te157  1  0.24415654  0.39049490  0.51539923  1
  Te  Te158  1  0.23592829  0.42154726  0.92216582  1
  Te  Te159  1  0.25247066  0.75210039  0.25769829  1
  Te  Te160  1  0.24469408  0.75305236  0.57464956  1
  Te  Te161  1  0.25207630  0.72924801  0.89866212  1
  Te  Te162  1  0.57072950  0.07934792  0.26755902  1
  Te  Te163  1  0.60314700  0.05537706  0.58670334  1
  Te  Te164  1  0.58941455  0.09121750  0.92137592  1
  Te  Te165  1  0.55747426  0.41234605  0.25710887  1
  Te  Te166  1  0.59439486  0.40145347  0.57508049  1
  Te  Te167  1  0.59450585  0.40207402  0.92039573  1
  Te  Te168  1  0.58986050  0.78343770  0.26535806  1
  Te  Te169  1  0.58308853  0.77255932  0.60122997  1
  Te  Te170  1  0.57455603  0.72809780  0.92020914  1
  Te  Te171  1  0.90316078  0.10803525  0.24260586  1
  Te  Te172  1  0.92328752  0.08883850  0.58310569  1
  Te  Te173  1  0.89749533  0.06623514  0.90333813  1
  Te  Te174  1  0.92028411  0.41745742  0.27085130  1
  Te  Te175  1  0.92523565  0.41486515  0.54980961  1
  Te  Te176  1  0.93254523  0.43916404  0.93321069  1
  Te  Te177  1  0.92815863  0.73398514  0.26815113  1
  Te  Te178  1  0.94112189  0.75205158  0.54819161  1
  Te  Te179  1  0.92833459  0.77477179  0.89304111  1
