# generated using pymatgen
data_In2Te3
_symmetry_space_group_name_H-M   'P 1'
_cell_length_a   18.90327032
_cell_length_b   18.91732180
_cell_length_c   18.89292308
_cell_angle_alpha   90.05439988
_cell_angle_beta   90.09139273
_cell_angle_gamma   89.99803973
_symmetry_Int_Tables_number   1
_chemical_formula_structural   In2Te3
_chemical_formula_sum   'In72 Te108'
_cell_volume   6756.08343787
_cell_formula_units_Z   36
loop_
 _symmetry_equiv_pos_site_id
 _symmetry_equiv_pos_as_xyz
  1  'x, y, z'
loop_
 _atom_site_type_symbol
 _atom_site_label
 _atom_site_symmetry_multiplicity
 _atom_site_fract_x
 _atom_site_fract_y
 _atom_site_fract_z
 _atom_site_occupancy
  In  In0  1  0.51388578  0.15324941  0.67952466  1
  In  In1  1  0.32931062  -0.01935778  -0.00925938  1
  In  In2  1  0.79585957  0.51853741  0.69153873  1
  In  In3  1  0.33254748  0.17028104  0.48977802  1
  In  In4  1  0.14097348  0.01487296  0.81065509  1
  In  In5  1  0.83131289  0.83357906  0.67836994  1
  In  In6  1  0.54149910  0.82502913  -0.02157640  1
  In  In7  1  0.15826172  0.48059262  0.32202902  1
  In  In8  1  -0.01405695  -0.03239265  0.00529506  1
  In  In9  1  0.34969068  0.67216057  0.31155975  1
  In  In10  1  0.53205491  0.18622040  0.35036811  1
  In  In11  1  0.83385702  -0.01223830  0.16199556  1
  In  In12  1  0.15647242  0.81630742  0.01050390  1
  In  In13  1  0.82566939  0.17177341  -0.01527521  1
  In  In14  1  0.17772022  0.33177349  0.17195934  1
  In  In15  1  0.67249452  -0.00071876  0.67281485  1
  In  In16  1  0.13718584  0.85725664  0.33913645  1
  In  In17  1  0.67536064  0.01075109  0.35726011  1
  In  In18  1  0.53088987  0.67206422  0.50686354  1
  In  In19  1  0.16588060  0.50238427  0.65777357  1
  In  In20  1  0.34143103  0.31576080  0.68591489  1
  In  In21  1  0.68734407  0.50996840  0.50754248  1
  In  In22  1  0.54824621  0.51671078  0.67116593  1
  In  In23  1  -0.01385412  0.35948567  -0.03617859  1
  In  In24  1  0.15598430  0.33507849  0.80981865  1
  In  In25  1  -0.05349179  0.17960022  0.78402808  1
  In  In26  1  0.00088327  0.16748800  0.16155206  1
  In  In27  1  0.83601981  0.34384242  0.18784723  1
  In  In28  1  -0.01228039  0.47518717  0.80967550  1
  In  In29  1  0.15982591  0.64940771  0.15724883  1
  In  In30  1  0.52212674  0.50629774  0.00685310  1
  In  In31  1  -0.03284263  0.01327368  0.64624423  1
  In  In32  1  0.53060808  0.82470007  0.32130257  1
  In  In33  1  0.83563440  0.65942476  0.18663107  1
  In  In34  1  0.14428742  0.00605842  0.22260604  1
  In  In35  1  0.14027079  0.00109914  0.50461990  1
  In  In36  1  0.66066038  0.32498413  -0.01663263  1
  In  In37  1  0.32533970  0.81342212  0.14384993  1
  In  In38  1  0.49656813  -0.01159549  0.17361785  1
  In  In39  1  0.67215084  0.50342629  0.16353347  1
  In  In40  1  0.68576799  0.80720620  0.17788233  1
  In  In41  1  0.36136227  0.67173745  -0.01395829  1
  In  In42  1  -0.02365242  0.65396303  -0.01935651  1
  In  In43  1  -0.00977382  -0.02813562  0.35144435  1
  In  In44  1  0.50375847  0.33560459  0.14917072  1
  In  In45  1  0.85164679  0.18978570  0.35754121  1
  In  In46  1  0.48922009  0.50453063  0.34054470  1
  In  In47  1  0.35076936  0.82902289  0.82532387  1
  In  In48  1  -0.03036010  0.81494234  0.51303402  1
  In  In49  1  0.82291038  -0.00436179  0.82794534  1
  In  In50  1  0.16165137  0.18114595  -0.00491613  1
  In  In51  1  0.47760700  0.00465191  0.52383982  1
  In  In52  1  0.50163038  0.16408393  -0.01754318  1
  In  In53  1  0.69180802  0.81047459  0.48445365  1
  In  In54  1  0.16898893  0.14290824  0.34778229  1
  In  In55  1  0.32927980  0.01313059  0.66995081  1
  In  In56  1  0.13126927  0.69452404  0.79761035  1
  In  In57  1  0.29999162  0.00364317  0.31755051  1
  In  In58  1  0.68774653  0.34007169  0.35664358  1
  In  In59  1  0.34672522  0.65224578  0.68366689  1
  In  In60  1  -0.03575761  0.54479837  0.48988411  1
  In  In61  1  0.16450150  0.50249585  0.00396520  1
  In  In62  1  0.17725814  0.67185753  0.51464346  1
  In  In63  1  0.36046441  0.84542676  0.53092136  1
  In  In64  1  0.66267853  0.02097756  -0.01830771  1
  In  In65  1  0.32884791  0.48368111  0.49331896  1
  In  In66  1  0.35159961  0.48980863  0.85382008  1
  In  In67  1  0.01548945  0.32200477  0.39935691  1
  In  In68  1  0.35385351  0.33676581  0.33467629  1
  In  In69  1  0.81937555  0.67222440  0.83969409  1
  In  In70  1  -0.01651563  0.51323304  0.18306778  1
  In  In71  1  0.50562434  0.31526530  0.81944015  1
  Te  Te72  1  0.08107334  0.07297176  0.07516739  1
  Te  Te73  1  0.04844625  0.09744541  0.43224249  1
  Te  Te74  1  0.06387450  0.10847476  0.71655053  1
  Te  Te75  1  0.07320516  0.41884103  0.09225441  1
  Te  Te76  1  0.08309763  0.44894232  0.44904877  1
  Te  Te77  1  0.06600833  0.39610945  0.70366426  1
  Te  Te78  1  0.05487924  0.73423526  0.08739378  1
  Te  Te79  1  0.07691360  0.74901124  0.42749293  1
  Te  Te80  1  0.07253295  0.77325499  0.69139719  1
  Te  Te81  1  0.41565810  0.07154412  0.07726146  1
  Te  Te82  1  0.41321600  0.07590364  0.39996436  1
  Te  Te83  1  0.41093168  0.08987612  0.76316116  1
  Te  Te84  1  0.41951926  0.41681320  0.06168486  1
  Te  Te85  1  0.44392238  0.39893278  0.44089138  1
  Te  Te86  1  0.42548636  0.43673010  0.73078226  1
  Te  Te87  1  0.44757703  0.75357045  0.08090881  1
  Te  Te88  1  0.42014222  0.75246498  0.42267838  1
  Te  Te89  1  0.44265729  0.73008889  0.76416183  1
  Te  Te90  1  0.74928499  0.09035694  0.08756256  1
  Te  Te91  1  0.76439658  0.09790228  0.43867502  1
  Te  Te92  1  0.73280711  0.10224374  0.76949609  1
  Te  Te93  1  0.75128164  0.40584116  0.07749353  1
  Te  Te94  1  0.78617096  0.42251948  0.43458083  1
  Te  Te95  1  0.77588132  0.40063422  0.78641039  1
  Te  Te96  1  0.77470436  0.74190954  0.07888989  1
  Te  Te97  1  0.77564295  0.73454321  0.38740025  1
  Te  Te98  1  0.73121030  0.77893244  0.77615361  1
  Te  Te99  1  0.08633031  0.24512202  0.26063221  1
  Te  Te100  1  0.02554082  0.23841441  0.52314565  1
  Te  Te101  1  0.05912549  0.24480213  0.89589825  1
  Te  Te102  1  0.07508744  0.59688960  0.27219592  1
  Te  Te103  1  0.06901229  0.59972180  0.59305775  1
  Te  Te104  1  0.07892366  0.57174801  0.89974607  1
  Te  Te105  1  0.03958395  0.89649482  0.22797639  1
  Te  Te106  1  0.08106321  0.89991418  0.59832882  1
  Te  Te107  1  0.08805647  0.90672969  0.90969393  1
  Te  Te108  1  0.43203010  0.24110179  0.24810737  1
  Te  Te109  1  0.42544369  0.24235461  0.58263456  1
  Te  Te110  1  0.41043072  0.25537307  0.91217541  1
  Te  Te111  1  0.43318238  0.58452790  0.23073763  1
  Te  Te112  1  0.42186451  0.58223831  0.56867690  1
  Te  Te113  1  0.45289258  0.59580463  0.89421859  1
  Te  Te114  1  0.40142826  0.89916582  0.25564005  1
  Te  Te115  1  0.45545889  0.90427349  0.63913998  1
  Te  Te116  1  0.44189645  0.91903027  0.90889618  1
  Te  Te117  1  0.74956413  0.24061002  0.25537250  1
  Te  Te118  1  0.78779463  0.19148519  0.65422047  1
  Te  Te119  1  0.74398945  0.24725009  0.88760123  1
  Te  Te120  1  0.77813466  0.54325209  0.26086267  1
  Te  Te121  1  0.75288551  0.61998593  0.58585988  1
  Te  Te122  1  0.70674044  0.59712729  0.90710306  1
  Te  Te123  1  0.75128693  0.91465753  0.26661088  1
  Te  Te124  1  0.75624920  0.91681778  0.57500894  1
  Te  Te125  1  0.73391850  0.91261023  0.91143650  1
  Te  Te126  1  0.25811284  0.25900969  0.07378306  1
  Te  Te127  1  0.24395948  0.26428037  0.41016905  1
  Te  Te128  1  0.24273746  0.23166468  0.75315504  1
  Te  Te129  1  0.27001578  0.58478728  0.07627897  1
  Te  Te130  1  0.25705145  0.58725765  0.40755124  1
  Te  Te131  1  0.24566779  0.57136280  0.76760256  1
  Te  Te132  1  0.23012646  0.92261975  0.09747419  1
  Te  Te133  1  0.25227510  0.91215736  0.43607226  1
  Te  Te134  1  0.24740036  0.91737629  0.75444118  1
  Te  Te135  1  0.59388056  0.23276522  0.08372302  1
  Te  Te136  1  0.61580373  0.25196655  0.45023172  1
  Te  Te137  1  0.59581500  0.27440871  0.70992385  1
  Te  Te138  1  0.61506867  0.60248145  0.07034587  1
  Te  Te139  1  0.60045339  0.58554404  0.40465680  1
  Te  Te140  1  0.65409379  0.56955620  0.76009749  1
  Te  Te141  1  0.60221108  0.91415459  0.09390255  1
  Te  Te142  1  0.57358504  0.91666249  0.43318811  1
  Te  Te143  1  0.57647198  0.90784556  0.73392311  1
  Te  Te144  1  0.91640954  0.26015519  0.07607716  1
  Te  Te145  1  0.88565547  0.28056767  0.47412114  1
  Te  Te146  1  0.87979015  0.29939778  0.72659560  1
  Te  Te147  1  0.89604069  0.56483284  0.07187761  1
  Te  Te148  1  0.87959167  0.61547917  0.38557887  1
  Te  Te149  1  0.91827876  0.59486138  0.74979994  1
  Te  Te150  1  0.87913184  0.88440847  0.06539911  1
  Te  Te151  1  0.89025823  0.91676508  0.44183753  1
  Te  Te152  1  0.93179918  0.91709648  0.75692841  1
  Te  Te153  1  0.25533884  0.11303929  0.22435414  1
  Te  Te154  1  0.23722741  0.09360468  0.57956979  1
  Te  Te155  1  0.23894492  0.07576852  0.91266994  1
  Te  Te156  1  0.27467816  0.42959381  0.24129018  1
  Te  Te157  1  0.25023632  0.39684200  0.58744172  1
  Te  Te158  1  0.24088313  0.40519614  0.91636598  1
  Te  Te159  1  0.22793862  0.75878865  0.25154778  1
  Te  Te160  1  0.26383933  0.75551327  0.60844677  1
  Te  Te161  1  0.24749878  0.74279488  0.91226220  1
  Te  Te162  1  0.58833530  0.08085025  0.25360957  1
  Te  Te163  1  0.59500332  0.08672031  0.56887078  1
  Te  Te164  1  0.59025479  0.10099713  0.88130989  1
  Te  Te165  1  0.58605303  0.40743760  0.25798377  1
  Te  Te166  1  0.62371778  0.41150499  0.60021664  1
  Te  Te167  1  0.58408355  0.42092939  0.89608079  1
  Te  Te168  1  0.59994190  0.71515864  0.25574483  1
  Te  Te169  1  0.60810998  0.75942788  0.59477980  1
  Te  Te170  1  0.63217952  0.73514274  0.90406134  1
  Te  Te171  1  0.91480119  0.08414636  0.25469317  1
  Te  Te172  1  0.87038173  0.09728882  0.57214530  1
  Te  Te173  1  0.92622233  0.07904511  0.91557405  1
  Te  Te174  1  0.94398447  0.40041661  0.27671920  1
  Te  Te175  1  0.88044877  0.45715876  0.57637435  1
  Te  Te176  1  0.87505450  0.43937692  0.90451710  1
  Te  Te177  1  0.89861158  0.74528942  0.29134349  1
  Te  Te178  1  0.87701366  0.72344190  0.58586545  1
  Te  Te179  1  0.92821330  0.75867102  0.89076741  1
