# generated using pymatgen
data_In2Te3
_symmetry_space_group_name_H-M   'P 1'
_cell_length_a   18.99967032
_cell_length_b   18.99463903
_cell_length_c   18.98400855
_cell_angle_alpha   89.81740140
_cell_angle_beta   89.78265817
_cell_angle_gamma   90.20512967
_symmetry_Int_Tables_number   1
_chemical_formula_structural   In2Te3
_chemical_formula_sum   'In72 Te108'
_cell_volume   6851.04623454
_cell_formula_units_Z   36
loop_
 _symmetry_equiv_pos_site_id
 _symmetry_equiv_pos_as_xyz
  1  'x, y, z'
loop_
 _atom_site_type_symbol
 _atom_site_label
 _atom_site_symmetry_multiplicity
 _atom_site_fract_x
 _atom_site_fract_y
 _atom_site_fract_z
 _atom_site_occupancy
  In  In0  1  0.33446414  0.83663706  0.83500903  1
  In  In1  1  0.14381092  0.16148376  0.32209398  1
  In  In2  1  0.18224581  0.51667479  -0.01056592  1
  In  In3  1  0.17307669  0.15940374  0.66827055  1
  In  In4  1  0.31340611  0.65096018  0.65041938  1
  In  In5  1  0.67500170  0.36346846  0.34015331  1
  In  In6  1  0.83691652  0.47443187  0.68311501  1
  In  In7  1  0.83621123  0.67892208  0.50032202  1
  In  In8  1  0.83238700  0.83228214  0.33510797  1
  In  In9  1  0.04024657  0.51715503  0.54748319  1
  In  In10  1  0.83070426  0.32389834  0.13840748  1
  In  In11  1  0.67818200  0.67809223  0.66900482  1
  In  In12  1  0.32987238  0.29750534  -0.00009435  1
  In  In13  1  0.85927076  -0.02282496  0.15938350  1
  In  In14  1  0.49659011  0.35263627  0.82594980  1
  In  In15  1  0.32011450  0.32751956  0.67351025  1
  In  In16  1  0.84892965  0.17553472  0.65602725  1
  In  In17  1  0.15566456  0.83027551  0.36129204  1
  In  In18  1  0.85696798  0.66189546  0.81601113  1
  In  In19  1  0.16817713  -0.01889297  0.17564053  1
  In  In20  1  0.65877127  0.68247320  0.01272978  1
  In  In21  1  0.67586597  0.02686145  0.00759352  1
  In  In22  1  0.27378189  0.56105744  0.49902847  1
  In  In23  1  0.29895434  0.02793297  -0.02465227  1
  In  In24  1  0.81234650  0.15650296  0.32348071  1
  In  In25  1  0.82136620  0.83779206  0.67463987  1
  In  In26  1  0.50992892  0.50523926  0.33697035  1
  In  In27  1  0.32917393  0.50550245  0.83055101  1
  In  In28  1  0.83369561  0.52029344  0.34084190  1
  In  In29  1  0.00159985  0.68963611  0.35226377  1
  In  In30  1  0.67481333  -0.00708366  0.66699945  1
  In  In31  1  0.01517804  0.15333189  0.83032582  1
  In  In32  1  0.65435035  0.16483146  0.12566682  1
  In  In33  1  -0.00353319  0.35199778  0.35827257  1
  In  In34  1  0.48314438  -0.01093588  0.81682109  1
  In  In35  1  0.03644240  0.35154910  -0.04998333  1
  In  In36  1  0.17955493  0.35456166  0.14388309  1
  In  In37  1  0.02084475  0.33977419  0.70293934  1
  In  In38  1  -0.00965463  -0.01775959  0.34213972  1
  In  In39  1  0.33005299  0.33597399  0.33640392  1
  In  In40  1  0.65945385  0.48030061  0.50826254  1
  In  In41  1  0.83955518  0.01117468  0.81950101  1
  In  In42  1  0.83485822  0.82817643  -0.01058234  1
  In  In43  1  0.64131350  0.02498625  0.34195401  1
  In  In44  1  0.64669592  0.85131405  0.17153005  1
  In  In45  1  0.47676620  0.17967052  0.68554215  1
  In  In46  1  0.29412815  -0.01618691  0.66100304  1
  In  In47  1  0.00249370  0.18447459  0.13966622  1
  In  In48  1  0.67118395  0.51503029  0.82811495  1
  In  In49  1  0.32574080  0.77981301  0.46167827  1
  In  In50  1  0.02551693  -0.01234658  -0.02441722  1
  In  In51  1  0.34531770  0.50018731  0.17878723  1
  In  In52  1  0.35316699  -0.01819424  0.31784123  1
  In  In53  1  0.49410470  0.66821461  0.18635360  1
  In  In54  1  0.16035814  0.32962045  0.51439540  1
  In  In55  1  0.00225865  0.51712698  0.19890060  1
  In  In56  1  0.01481969  -0.04808037  0.63559040  1
  In  In57  1  0.51309770  0.31454862  0.52070353  1
  In  In58  1  0.52076531  0.66708764  0.84587187  1
  In  In59  1  0.49019793  0.14458711  -0.00859817  1
  In  In60  1  0.48742694  0.32279380  0.14504714  1
  In  In61  1  0.49509314  0.18032833  0.32260072  1
  In  In62  1  0.86089361  0.50423334  -0.00285916  1
  In  In63  1  -0.00878090  0.13829917  0.48818656  1
  In  In64  1  0.14790868  0.68091846  0.80305220  1
  In  In65  1  -0.00091445  0.66930484  0.01661832  1
  In  In66  1  0.67072125  0.16276493  0.53222657  1
  In  In67  1  0.34700060  0.66563597  0.01719580  1
  In  In68  1  0.51155291  0.80846455  0.67662137  1
  In  In69  1  0.47555966  -0.01508709  0.50033538  1
  In  In70  1  0.68815629  0.50795119  0.15534402  1
  In  In71  1  0.16231314  0.82060852  0.00133646  1
  Te  Te72  1  0.08877057  0.07411938  0.08380054  1
  Te  Te73  1  0.09768410  0.05499910  0.42173771  1
  Te  Te74  1  0.07359772  0.06185628  0.72752260  1
  Te  Te75  1  0.07295982  0.44026409  0.07932388  1
  Te  Te76  1  0.09865317  0.43726806  0.42586493  1
  Te  Te77  1  0.13431734  0.42074986  0.73877733  1
  Te  Te78  1  0.10319191  0.72935776  0.09964516  1
  Te  Te79  1  0.04025976  0.79350259  0.45586305  1
  Te  Te80  1  0.05583393  0.71742684  0.69178000  1
  Te  Te81  1  0.39087640  0.07975244  0.07706420  1
  Te  Te82  1  0.41188239  0.09076157  0.41151048  1
  Te  Te83  1  0.38431329  0.07609794  0.74627234  1
  Te  Te84  1  0.40187649  0.41832598  0.06672637  1
  Te  Te85  1  0.43571220  0.40259862  0.42052035  1
  Te  Te86  1  0.41225747  0.43502107  0.72612088  1
  Te  Te87  1  0.41969166  0.76225655  0.09986123  1
  Te  Te88  1  0.45296974  0.80603684  0.38068585  1
  Te  Te89  1  0.40081060  0.72432784  0.75531087  1
  Te  Te90  1  0.79526252  0.10256840  0.10513820  1
  Te  Te91  1  0.75055708  0.07553410  0.43603174  1
  Te  Te92  1  0.74517525  0.10164125  0.74488004  1
  Te  Te93  1  0.74723159  0.41443157  0.05150223  1
  Te  Te94  1  0.77717590  0.41349507  0.43615090  1
  Te  Te95  1  0.75968400  0.40645831  0.78821124  1
  Te  Te96  1  0.75246516  0.76457917  0.09891497  1
  Te  Te97  1  0.74221383  0.74308504  0.41103949  1
  Te  Te98  1  0.74440812  0.75631546  0.77891867  1
  Te  Te99  1  0.06960749  0.27483705  0.24752094  1
  Te  Te100  1  0.06115841  0.23627168  0.58238775  1
  Te  Te101  1  0.11298285  0.22613226  0.91848641  1
  Te  Te102  1  0.09212946  0.59975424  0.27700404  1
  Te  Te103  1  0.12294644  0.63750409  0.57695991  1
  Te  Te104  1  0.08064767  0.59419995  0.91156563  1
  Te  Te105  1  0.07129556  0.89318667  0.25090737  1
  Te  Te106  1  0.12141069  0.87214982  0.56950561  1
  Te  Te107  1  0.10882992  0.90158869  0.88937057  1
  Te  Te108  1  0.39202300  0.24471601  0.23250512  1
  Te  Te109  1  0.39358924  0.23848518  0.57371825  1
  Te  Te110  1  0.41829416  0.23873667  0.89532997  1
  Te  Te111  1  0.39973221  0.59246368  0.28478107  1
  Te  Te112  1  0.40584738  0.60991370  0.54250708  1
  Te  Te113  1  0.42511676  0.57647663  0.92353084  1
  Te  Te114  1  0.42315257  0.87066480  0.24967976  1
  Te  Te115  1  0.41181679  0.89959922  0.60822026  1
  Te  Te116  1  0.40886560  0.92293782  0.93059060  1
  Te  Te117  1  0.73101828  0.25758676  0.23989985  1
  Te  Te118  1  0.75836943  0.26588493  0.58538224  1
  Te  Te119  1  0.72594617  0.16913479  0.98356182  1
  Te  Te120  1  0.73287634  0.59359936  0.26474108  1
  Te  Te121  1  0.75952894  0.57312155  0.59304027  1
  Te  Te122  1  0.76436806  0.60319005  0.92963098  1
  Te  Te123  1  0.74723207  0.94659634  0.25657281  1
  Te  Te124  1  0.73555399  0.89967250  0.57422857  1
  Te  Te125  1  0.75397707  0.93171766  0.91729629  1
  Te  Te126  1  0.23476462  0.23215768  0.09079726  1
  Te  Te127  1  0.23440217  0.24546159  0.41210275  1
  Te  Te128  1  0.24542304  0.24036239  0.76890427  1
  Te  Te129  1  0.24745501  0.59002937  0.10491084  1
  Te  Te130  1  0.23398176  0.67082031  0.39947835  1
  Te  Te131  1  0.21633066  0.55422099  0.73972590  1
  Te  Te132  1  0.25594166  0.91157730  0.07650679  1
  Te  Te133  1  0.26728974  0.91526427  0.42297130  1
  Te  Te134  1  0.22300451  0.90425236  0.76565937  1
  Te  Te135  1  0.57760326  0.26694095  0.04078800  1
  Te  Te136  1  0.60103175  0.24358389  0.41055817  1
  Te  Te137  1  0.58125656  0.26084999  0.74666929  1
  Te  Te138  1  0.57475247  0.58047382  0.08782467  1
  Te  Te139  1  0.60628336  0.58000533  0.41601541  1
  Te  Te140  1  0.57572204  0.58412903  0.73235880  1
  Te  Te141  1  0.57978195  0.94249395  0.07994320  1
  Te  Te142  1  0.57918930  0.91561535  0.42098616  1
  Te  Te143  1  0.59410204  0.90286168  0.76005886  1
  Te  Te144  1  0.93358400  0.27322183  0.03952785  1
  Te  Te145  1  0.90827105  0.23847173  0.41043996  1
  Te  Te146  1  0.91676435  0.25030991  0.76968061  1
  Te  Te147  1  0.90480458  0.59358591  0.11151409  1
  Te  Te148  1  0.93567276  0.57171070  0.44080928  1
  Te  Te149  1  0.93838585  0.56227228  0.74594245  1
  Te  Te150  1  0.94578818  0.89547090  0.06984287  1
  Te  Te151  1  0.91110279  0.90394948  0.43914278  1
  Te  Te152  1  0.92930319  0.90839169  0.75621328  1
  Te  Te153  1  0.25095392  0.07914242  0.25409089  1
  Te  Te154  1  0.24460428  0.08365873  0.56658658  1
  Te  Te155  1  0.22121038  0.11722396  0.88840089  1
  Te  Te156  1  0.23790757  0.42916530  0.26156090  1
  Te  Te157  1  0.26230471  0.42675433  0.56912825  1
  Te  Te158  1  0.25464079  0.40681879  0.91825922  1
  Te  Te159  1  0.27120391  0.76986460  0.28710248  1
  Te  Te160  1  0.23472706  0.76631615  0.59235167  1
  Te  Te161  1  0.25313776  0.72352777  0.90919423  1
  Te  Te162  1  0.56381241  0.08565076  0.22775924  1
  Te  Te163  1  0.56043858  0.07732412  0.59578838  1
  Te  Te164  1  0.57743938  0.07937016  0.88884290  1
  Te  Te165  1  0.57584731  0.41120752  0.23063683  1
  Te  Te166  1  0.59325937  0.39720825  0.60984719  1
  Te  Te167  1  0.57466089  0.44195355  0.91205678  1
  Te  Te168  1  0.59487186  0.74597974  0.26080031  1
  Te  Te169  1  0.58646319  0.73953332  0.57328389  1
  Te  Te170  1  0.57030226  0.76921121  0.93594980  1
  Te  Te171  1  0.93549200  0.09079671  0.25008076  1
  Te  Te172  1  0.91066452  0.05662131  0.58672189  1
  Te  Te173  1  0.91986477  0.08299670  0.92592538  1
  Te  Te174  1  0.89632573  0.40792511  0.24603341  1
  Te  Te175  1  0.94256087  0.40879213  0.59214044  1
  Te  Te176  1  0.93687655  0.43994842  0.88796694  1
  Te  Te177  1  0.91774042  0.75067341  0.24981669  1
  Te  Te178  1  0.91428749  0.73867565  0.61155825  1
  Te  Te179  1  0.93728550  0.75457665  0.90604924  1
