# generated using pymatgen
data_In2Te3
_symmetry_space_group_name_H-M   'P 1'
_cell_length_a   18.86290841
_cell_length_b   18.86485213
_cell_length_c   18.86546078
_cell_angle_alpha   89.88151181
_cell_angle_beta   90.08775086
_cell_angle_gamma   90.04755047
_symmetry_Int_Tables_number   1
_chemical_formula_structural   In2Te3
_chemical_formula_sum   'In72 Te108'
_cell_volume   6713.17381691
_cell_formula_units_Z   36
loop_
 _symmetry_equiv_pos_site_id
 _symmetry_equiv_pos_as_xyz
  1  'x, y, z'
loop_
 _atom_site_type_symbol
 _atom_site_label
 _atom_site_symmetry_multiplicity
 _atom_site_fract_x
 _atom_site_fract_y
 _atom_site_fract_z
 _atom_site_occupancy
  In  In0  1  0.36718325  0.00895622  0.64686996  1
  In  In1  1  0.84355239  0.67614288  0.50802522  1
  In  In2  1  0.17762406  0.17224144  0.35182926  1
  In  In3  1  0.17334128  0.18204972  0.65755722  1
  In  In4  1  0.17418472  0.35061653  0.48808035  1
  In  In5  1  -0.03199500  0.30046959  0.35507149  1
  In  In6  1  -0.00062487  0.66219937  0.66584424  1
  In  In7  1  0.80536055  0.66442432  0.86566189  1
  In  In8  1  0.82774215  0.51364455  -0.00102643  1
  In  In9  1  0.02137505  0.84554853  0.82338096  1
  In  In10  1  0.36777336  0.84303923  0.85196422  1
  In  In11  1  0.67558486  0.31834344  0.35315413  1
  In  In12  1  -0.01348740  0.34733668  0.64659455  1
  In  In13  1  0.02244897  0.81484033  0.16267982  1
  In  In14  1  0.14269017  0.00140457  0.50320780  1
  In  In15  1  0.34839523  0.17506072  0.15247621  1
  In  In16  1  0.01141049  0.63790970  0.33944793  1
  In  In17  1  0.50720973  0.15996934  -0.00847467  1
  In  In18  1  -0.02613522  0.48227668  0.82333400  1
  In  In19  1  0.81078998  0.01753470  0.14838229  1
  In  In20  1  0.52461179  0.50306395  0.35767255  1
  In  In21  1  -0.02403434  0.50382212  0.50909997  1
  In  In22  1  0.50613120  0.66579376  0.81791668  1
  In  In23  1  0.63157288  0.15305890  0.19115092  1
  In  In24  1  0.19792279  -0.00377287  0.15683840  1
  In  In25  1  0.64506573  0.01839117  0.67708681  1
  In  In26  1  0.81728747  0.84989813  0.68120768  1
  In  In27  1  -0.00774769  0.86389530  0.46686301  1
  In  In28  1  0.35281559  0.66747564  -0.01083472  1
  In  In29  1  0.35684888  0.48509939  0.82585489  1
  In  In30  1  0.65491671  0.17758926  0.82822030  1
  In  In31  1  0.65008466  0.82635233  0.15124017  1
  In  In32  1  0.18621158  0.50778383  0.68050774  1
  In  In33  1  0.67595787  0.65811570  0.00278357  1
  In  In34  1  0.32939506  0.64840535  0.33193404  1
  In  In35  1  0.52140309  0.34792819  0.84063356  1
  In  In36  1  0.18961327  0.83576638  0.66548527  1
  In  In37  1  0.51307586  0.84499150  0.32710812  1
  In  In38  1  0.66335367  0.85227612  0.50294670  1
  In  In39  1  0.65322151  0.17129660  0.48173992  1
  In  In40  1  0.32972571  0.14305576  0.81952241  1
  In  In41  1  0.81561813  0.18353600  0.65352826  1
  In  In42  1  0.15016288  -0.02144918  0.84254217  1
  In  In43  1  0.17376620  0.18883078  0.03088388  1
  In  In44  1  0.81924748  0.83994652  0.00094996  1
  In  In45  1  0.20833923  0.64510775  0.47004809  1
  In  In46  1  0.49549812  0.33067880  0.16711545  1
  In  In47  1  0.66596488  0.84494652  0.82832334  1
  In  In48  1  0.01872374  0.48160837  0.19596951  1
  In  In49  1  -0.03891069  0.01643347  0.66672347  1
  In  In50  1  0.18985833  0.63699348  0.86001374  1
  In  In51  1  0.83095314  0.32741913  0.15379758  1
  In  In52  1  0.53510230  0.66834489  0.49344401  1
  In  In53  1  -0.01789044  0.14397271  0.84781254  1
  In  In54  1  0.36035061  0.49044671  0.49114736  1
  In  In55  1  0.53726882  0.49321933  0.63292427  1
  In  In56  1  0.83335069  0.85073597  0.31916457  1
  In  In57  1  0.80601711  0.33760466  0.82645340  1
  In  In58  1  -0.01178776  0.00804165  -0.01376412  1
  In  In59  1  0.34497393  0.85503534  0.49068009  1
  In  In60  1  -0.00901625  0.66741984  0.02401371  1
  In  In61  1  0.34989788  0.00508579  -0.00417466  1
  In  In62  1  0.32909611  0.33711936  0.00770125  1
  In  In63  1  0.81342864  0.48835188  0.64244305  1
  In  In64  1  -0.00807107  0.19064084  0.16614798  1
  In  In65  1  0.41361472  0.03998886  0.33264582  1
  In  In66  1  0.69134874  0.52446227  0.18707921  1
  In  In67  1  0.16022894  0.50418626  0.03037108  1
  In  In68  1  -0.01623520  -0.00441555  0.32556598  1
  In  In69  1  0.48985951  0.67160537  0.17552704  1
  In  In70  1  0.17351173  0.79370144  0.32805231  1
  In  In71  1  0.17711061  0.29802763  0.83853780  1
  Te  Te72  1  0.08041397  0.07768224  0.09598731  1
  Te  Te73  1  0.06244988  0.09408137  0.41468637  1
  Te  Te74  1  0.08758723  0.08642834  0.74462980  1
  Te  Te75  1  0.06547605  0.40428917  0.07742224  1
  Te  Te76  1  0.05636182  0.41461058  0.41510904  1
  Te  Te77  1  0.09090641  0.40919040  0.74931742  1
  Te  Te78  1  0.11228673  0.72706591  0.08438010  1
  Te  Te79  1  0.07719751  0.73812294  0.44179930  1
  Te  Te80  1  0.10816134  0.73451485  0.75463152  1
  Te  Te81  1  0.44213103  0.07052423  0.09859413  1
  Te  Te82  1  0.43488667  0.11023028  0.46982568  1
  Te  Te83  1  0.44407374  0.10150213  0.73509527  1
  Te  Te84  1  0.42290644  0.42489910  0.07810263  1
  Te  Te85  1  0.45856114  0.39385143  0.43548028  1
  Te  Te86  1  0.43961510  0.41186021  0.72385180  1
  Te  Te87  1  0.44143632  0.76825242  0.06822172  1
  Te  Te88  1  0.42304122  0.74069478  0.41298374  1
  Te  Te89  1  0.41343855  0.75592039  0.74473749  1
  Te  Te90  1  0.68941011  0.06831282  0.08387148  1
  Te  Te91  1  0.76163046  0.11192986  0.40022618  1
  Te  Te92  1  0.75730825  0.08768379  0.75428876  1
  Te  Te93  1  0.73724630  0.42248878  0.08172852  1
  Te  Te94  1  0.71355970  0.43287450  0.44206275  1
  Te  Te95  1  0.72535187  0.39161004  0.71435274  1
  Te  Te96  1  0.76605650  0.73667873  0.09743265  1
  Te  Te97  1  0.75615879  0.76479565  0.41837090  1
  Te  Te98  1  0.74079561  0.73694164  0.74777189  1
  Te  Te99  1  0.08551927  0.25923829  0.26436021  1
  Te  Te100  1  0.07965021  0.25759528  0.56464704  1
  Te  Te101  1  0.07147122  0.24241208  0.93010588  1
  Te  Te102  1  0.11007699  0.61113199  0.22667113  1
  Te  Te103  1  0.09775362  0.57564002  0.57619794  1
  Te  Te104  1  0.05932777  0.57587858  0.91179313  1
  Te  Te105  1  0.09495029  0.91614818  0.25439465  1
  Te  Te106  1  0.07096408  0.91742800  0.60788977  1
  Te  Te107  1  0.08698759  0.89621513  0.95267903  1
  Te  Te108  1  0.42296405  0.24232012  0.26209330  1
  Te  Te109  1  0.35814303  0.21670072  0.53764898  1
  Te  Te110  1  0.40431504  0.24480618  0.91415703  1
  Te  Te111  1  0.42441110  0.55741553  0.25537986  1
  Te  Te112  1  0.43227103  0.59127883  0.57788579  1
  Te  Te113  1  0.44338545  0.56685482  0.91877527  1
  Te  Te114  1  0.39168619  0.90746238  0.27078432  1
  Te  Te115  1  0.45106195  0.90844044  0.57804515  1
  Te  Te116  1  0.45565495  0.94967980  0.90533343  1
  Te  Te117  1  0.74739148  0.23674021  0.24623917  1
  Te  Te118  1  0.70355955  0.26320348  0.59404598  1
  Te  Te119  1  0.72705404  0.26344990  0.92592537  1
  Te  Te120  1  0.78181156  0.58887212  0.28042343  1
  Te  Te121  1  0.74014844  0.60149053  0.58218450  1
  Te  Te122  1  0.71608121  0.53963836  0.88853618  1
  Te  Te123  1  0.72865393  0.92550542  0.23951648  1
  Te  Te124  1  0.74966434  0.94770236  0.58810220  1
  Te  Te125  1  0.72697128  0.93024961  0.93306033  1
  Te  Te126  1  0.24366389  0.28606382  0.12326849  1
  Te  Te127  1  0.27613414  0.27081415  0.41009527  1
  Te  Te128  1  0.27968133  0.26084328  0.73318283  1
  Te  Te129  1  0.28414771  0.56734804  0.07595034  1
  Te  Te130  1  0.24909930  0.52371934  0.38651911  1
  Te  Te131  1  0.28650100  0.59850664  0.74863736  1
  Te  Te132  1  0.27668302  0.90476540  0.07547378  1
  Te  Te133  1  0.22611860  0.91149054  0.41447904  1
  Te  Te134  1  0.26508122  0.93900232  0.74900172  1
  Te  Te135  1  0.58951657  0.25358209  0.07680982  1
  Te  Te136  1  0.55246003  0.24180211  0.39326780  1
  Te  Te137  1  0.54933721  0.24013706  0.74236517  1
  Te  Te138  1  0.58234491  0.58115857  0.09352068  1
  Te  Te139  1  0.63522037  0.57983495  0.42451126  1
  Te  Te140  1  0.59417931  0.57237233  0.74388825  1
  Te  Te141  1  0.53808221  0.88528916  0.07865724  1
  Te  Te142  1  0.59446845  0.94378924  0.40533223  1
  Te  Te143  1  0.57253661  0.89717371  0.72484492  1
  Te  Te144  1  0.89266632  0.22722221  0.06296095  1
  Te  Te145  1  0.86622610  0.21336260  0.43191511  1
  Te  Te146  1  0.92520715  0.25520450  0.75264484  1
  Te  Te147  1  0.91537826  0.57035304  0.10916414  1
  Te  Te148  1  0.88393839  0.56857815  0.39821672  1
  Te  Te149  1  0.89357395  0.58579114  0.74708340  1
  Te  Te150  1  0.92037540  0.91215989  0.09808906  1
  Te  Te151  1  0.87656308  0.95296854  0.42696230  1
  Te  Te152  1  0.90325312  0.93191030  0.77953063  1
  Te  Te153  1  0.26545574  0.08673171  0.26030064  1
  Te  Te154  1  0.25216669  0.08571752  0.56733021  1
  Te  Te155  1  0.22824292  0.08811170  0.92705543  1
  Te  Te156  1  0.16237638  0.47322083  0.24638108  1
  Te  Te157  1  0.26652249  0.41744268  0.58991026  1
  Te  Te158  1  0.23900740  0.41991023  0.90723069  1
  Te  Te159  1  0.27799670  0.74959848  0.23597634  1
  Te  Te160  1  0.26678380  0.74810951  0.57141118  1
  Te  Te161  1  0.25372723  0.76151521  0.91632491  1
  Te  Te162  1  0.55699998  0.05948175  0.28723864  1
  Te  Te163  1  0.56350767  0.08990574  0.57250899  1
  Te  Te164  1  0.58028035  0.06800968  0.90054114  1
  Te  Te165  1  0.59842053  0.41308048  0.24971190  1
  Te  Te166  1  0.61029938  0.39276655  0.54623508  1
  Te  Te167  1  0.61615980  0.42346938  0.92117356  1
  Te  Te168  1  0.59634970  0.73527164  0.26328301  1
  Te  Te169  1  0.58598702  0.76443548  0.59449027  1
  Te  Te170  1  0.58840836  0.74806516  0.91959790  1
  Te  Te171  1  0.90195077  0.09437319  0.24397706  1
  Te  Te172  1  0.92051805  0.11938136  0.56808218  1
  Te  Te173  1  0.87762990  0.09463904  0.94076719  1
  Te  Te174  1  0.90048548  0.40267339  0.26523370  1
  Te  Te175  1  0.88049053  0.38874006  0.54651843  1
  Te  Te176  1  0.90663552  0.40210869  0.92971351  1
  Te  Te177  1  0.93157214  0.74807309  0.26435705  1
  Te  Te178  1  0.92126171  0.77891818  0.59382865  1
  Te  Te179  1  0.92137629  0.75521590  0.90857132  1
