# generated using pymatgen
data_In2Te3
_symmetry_space_group_name_H-M   'P 1'
_cell_length_a   18.79491068
_cell_length_b   18.78455713
_cell_length_c   18.79186858
_cell_angle_alpha   90.07384236
_cell_angle_beta   89.95813396
_cell_angle_gamma   89.99717341
_symmetry_Int_Tables_number   1
_chemical_formula_structural   In2Te3
_chemical_formula_sum   'In72 Te108'
_cell_volume   6634.53845992
_cell_formula_units_Z   36
loop_
 _symmetry_equiv_pos_site_id
 _symmetry_equiv_pos_as_xyz
  1  'x, y, z'
loop_
 _atom_site_type_symbol
 _atom_site_label
 _atom_site_symmetry_multiplicity
 _atom_site_fract_x
 _atom_site_fract_y
 _atom_site_fract_z
 _atom_site_occupancy
  In  In0  1  0.66535660  0.65223567  0.67075903  1
  In  In1  1  0.14670955  0.82736652  0.32471275  1
  In  In2  1  0.68360854  0.83992814  0.84119453  1
  In  In3  1  0.14332845  0.34387119  0.49788494  1
  In  In4  1  0.48928883  0.80032212  0.67124439  1
  In  In5  1  0.49178665  0.35072195  0.14808965  1
  In  In6  1  0.49434836  0.51255039  0.67150721  1
  In  In7  1  0.49917110  0.35154680  0.47350277  1
  In  In8  1  0.14036363  0.63904671  0.84392076  1
  In  In9  1  -0.01047665  0.17889295  0.14682498  1
  In  In10  1  0.87352573  0.63106669  0.84987316  1
  In  In11  1  0.49389134  0.67173733  0.53535144  1
  In  In12  1  0.14619001  -0.00248275  0.83903392  1
  In  In13  1  0.67629499  0.51516005  0.49790261  1
  In  In14  1  0.16104149  0.20132568  0.00409518  1
  In  In15  1  0.66385596  0.00501151  0.31955297  1
  In  In16  1  0.01225374  0.84091986  0.16251996  1
  In  In17  1  0.33024799  0.83034315  0.15353990  1
  In  In18  1  0.31065436  0.64963345  0.34252860  1
  In  In19  1  0.52908374  0.01126245  0.87293583  1
  In  In20  1  0.86389167  0.64354023  0.49840018  1
  In  In21  1  0.32741362  0.52258489  0.86077566  1
  In  In22  1  0.50060166  0.84432382  0.01545676  1
  In  In23  1  0.50873512  0.15143359  0.67405390  1
  In  In24  1  0.17118340  0.63383505  0.11628414  1
  In  In25  1  0.68368217  0.33280726  -0.00466308  1
  In  In26  1  0.15479404  0.15183401  0.68274792  1
  In  In27  1  0.15084770  -0.01592154  0.47923162  1
  In  In28  1  0.50675110  0.01152996  0.15188882  1
  In  In29  1  0.01533292  0.65348468  0.32589255  1
  In  In30  1  0.30387789  0.34992575  0.64149480  1
  In  In31  1  0.32439734  0.20131408  0.85264797  1
  In  In32  1  0.49141369  0.18964831  0.31181241  1
  In  In33  1  0.68018568  -0.01961886  0.66704781  1
  In  In34  1  0.86514673  0.47055610  0.28927577  1
  In  In35  1  0.30534317  0.79891892  0.85491302  1
  In  In36  1  0.48023961  0.67076603  0.18458304  1
  In  In37  1  -0.01557931  0.83844434  0.50669742  1
  In  In38  1  0.86120977  0.01003008  0.84227131  1
  In  In39  1  0.33572883  0.00015798  0.02144849  1
  In  In40  1  0.81930316  0.84251553  0.33284085  1
  In  In41  1  0.31568773  0.80438817  0.53601353  1
  In  In42  1  0.48639993  0.34041261  0.85566054  1
  In  In43  1  0.86189635  0.35196250  0.85239063  1
  In  In44  1  -0.01204266  0.17404829  0.50089593  1
  In  In45  1  0.85089659  0.17982652  0.30914837  1
  In  In46  1  0.69581045  0.32464930  0.66578863  1
  In  In47  1  0.17281431  0.47020379  0.30852171  1
  In  In48  1  0.33157819  0.32899565  0.00129199  1
  In  In49  1  0.50157136  0.83745026  0.33187853  1
  In  In50  1  0.66612863  0.66457610  -0.00270836  1
  In  In51  1  0.15494831  0.80850695  0.67796396  1
  In  In52  1  0.68040483  0.47872836  0.83827642  1
  In  In53  1  0.84905951  0.19599514  0.67211136  1
  In  In54  1  0.66307168  0.15596013  0.85484608  1
  In  In55  1  0.10606043  0.36163794  0.84967076  1
  In  In56  1  0.84146568  0.83081765  -0.01275542  1
  In  In57  1  0.46718474  0.49732287  0.32068675  1
  In  In58  1  0.84373985  0.83474472  0.68298594  1
  In  In59  1  0.00163229  0.00106107  -0.00047056  1
  In  In60  1  0.51839067  0.00543810  0.49966617  1
  In  In61  1  0.85861332  0.35845000  0.51001248  1
  In  In62  1  0.15444908  0.18065740  0.30417929  1
  In  In63  1  0.29390856  0.01890405  0.32217445  1
  In  In64  1  0.32767928  0.01675951  0.66637967  1
  In  In65  1  0.32825547  0.65687118  0.66924672  1
  In  In66  1  0.65739675  0.67658586  0.32823982  1
  In  In67  1  0.84686871  0.00877835  0.48257316  1
  In  In68  1  0.68766677  0.48665868  0.15680897  1
  In  In69  1  0.33695500  0.18983876  0.48720048  1
  In  In70  1  0.68534965  0.31227227  0.31759710  1
  In  In71  1  0.85911211  0.64477904  0.13983295  1
  Te  Te72  1  0.09748825  0.08816800  0.08346347  1
  Te  Te73  1  0.07395220  0.09134222  0.40363017  1
  Te  Te74  1  0.05289744  0.08283637  0.76358731  1
  Te  Te75  1  0.06237915  0.43316644  0.04826693  1
  Te  Te76  1  0.06230556  0.41750966  0.39703573  1
  Te  Te77  1  0.06765409  0.44674091  0.73111329  1
  Te  Te78  1  0.08072892  0.74407138  0.07285461  1
  Te  Te79  1  0.08034029  0.74323792  0.43185790  1
  Te  Te80  1  0.06049218  0.74049776  0.76852911  1
  Te  Te81  1  0.39726081  0.10459922  0.10840779  1
  Te  Te82  1  0.41984211  0.08091435  0.40968505  1
  Te  Te83  1  0.41612843  0.09172783  0.77758639  1
  Te  Te84  1  0.41120330  0.44677491  0.06140335  1
  Te  Te85  1  0.38594145  0.42929412  0.42396213  1
  Te  Te86  1  0.40247233  0.41786728  0.75357022  1
  Te  Te87  1  0.40438039  0.73283974  0.06267209  1
  Te  Te88  1  0.41688881  0.74140292  0.41510920  1
  Te  Te89  1  0.41400969  0.72061753  0.77805520  1
  Te  Te90  1  0.71034483  0.04515071  0.04826948  1
  Te  Te91  1  0.75540350  0.09723440  0.40121442  1
  Te  Te92  1  0.75381007  0.08872199  0.74661173  1
  Te  Te93  1  0.78443878  0.42098997  0.06593294  1
  Te  Te94  1  0.75401319  0.42099829  0.40582645  1
  Te  Te95  1  0.78381094  0.42406491  0.74099270  1
  Te  Te96  1  0.75884464  0.74730357  0.08669891  1
  Te  Te97  1  0.76096452  0.73394695  0.42567468  1
  Te  Te98  1  0.76170777  0.72906561  0.76889865  1
  Te  Te99  1  0.06673458  0.27914243  0.23289062  1
  Te  Te100  1  0.07325519  0.25233865  0.59953888  1
  Te  Te101  1  0.04929220  0.24135648  0.91572033  1
  Te  Te102  1  0.08478856  0.56611846  0.22337360  1
  Te  Te103  1  0.03962758  0.55344040  0.61140940  1
  Te  Te104  1  0.06634142  0.55537860  0.94909108  1
  Te  Te105  1  0.09561989  0.93593250  0.24134358  1
  Te  Te106  1  0.08059198  0.91950667  0.59591876  1
  Te  Te107  1  0.08612672  0.90024488  0.92995388  1
  Te  Te108  1  0.39912990  0.29058850  0.25152806  1
  Te  Te109  1  0.42476497  0.25474148  0.59564187  1
  Te  Te110  1  0.43926530  0.22999069  0.94924075  1
  Te  Te111  1  0.37211486  0.56890555  0.22609500  1
  Te  Te112  1  0.39455081  0.56165754  0.56637671  1
  Te  Te113  1  0.40474574  0.58657048  0.96795728  1
  Te  Te114  1  0.41041039  0.92451489  0.24653638  1
  Te  Te115  1  0.42581217  0.91447494  0.58081003  1
  Te  Te116  1  0.40799589  0.91240077  0.90966884  1
  Te  Te117  1  0.76530033  0.25184406  0.20597082  1
  Te  Te118  1  0.76374408  0.24656787  0.55463672  1
  Te  Te119  1  0.77608451  0.23758355  0.91650887  1
  Te  Te120  1  0.76162169  0.58768106  0.25639180  1
  Te  Te121  1  0.77369795  0.56966261  0.60105602  1
  Te  Te122  1  0.76396308  0.56547000  0.93382766  1
  Te  Te123  1  0.75658972  0.92930043  0.23222389  1
  Te  Te124  1  0.76981658  0.90572354  0.56932250  1
  Te  Te125  1  0.74384429  0.95045926  0.92866283  1
  Te  Te126  1  0.22519161  0.29401594  0.10480505  1
  Te  Te127  1  0.23968314  0.26629721  0.40278037  1
  Te  Te128  1  0.23100524  0.26690805  0.75114126  1
  Te  Te129  1  0.27643971  0.54028634  0.06840632  1
  Te  Te130  1  0.20955179  0.57136951  0.41394150  1
  Te  Te131  1  0.23522801  0.56483785  0.74784933  1
  Te  Te132  1  0.23328917  0.91384476  0.08182248  1
  Te  Te133  1  0.26535141  0.89988791  0.41967485  1
  Te  Te134  1  0.25494743  0.90354892  0.74774441  1
  Te  Te135  1  0.60302948  0.26471355  0.10113443  1
  Te  Te136  1  0.58883450  0.24355994  0.41833445  1
  Te  Te137  1  0.58910529  0.26277779  0.76073565  1
  Te  Te138  1  0.58658619  0.58882292  0.10354137  1
  Te  Te139  1  0.56816358  0.58651724  0.41604026  1
  Te  Te140  1  0.58175109  0.58146456  0.77667927  1
  Te  Te141  1  0.60904259  0.92178660  0.08407260  1
  Te  Te142  1  0.60401773  0.90567815  0.42181206  1
  Te  Te143  1  0.57033192  0.91362466  0.74995013  1
  Te  Te144  1  0.88814854  0.28199181  0.09836429  1
  Te  Te145  1  0.92911880  0.27380523  0.40220236  1
  Te  Te146  1  0.94389001  0.26239511  0.76344781  1
  Te  Te147  1  0.95741488  0.55930953  0.06779667  1
  Te  Te148  1  0.93791197  0.54732851  0.40642367  1
  Te  Te149  1  0.95794654  0.56078265  0.74642200  1
  Te  Te150  1  0.90420531  0.92304177  0.09171409  1
  Te  Te151  1  0.93549390  0.92464440  0.39071799  1
  Te  Te152  1  0.93875204  0.90989633  0.76661847  1
  Te  Te153  1  0.25782403  0.11459003  0.21638737  1
  Te  Te154  1  0.23799046  0.09521216  0.55760571  1
  Te  Te155  1  0.24478709  0.08885251  0.91848132  1
  Te  Te156  1  0.26654300  0.38926007  0.22469947  1
  Te  Te157  1  0.21647866  0.44791883  0.57701677  1
  Te  Te158  1  0.23465575  0.41297862  0.91467999  1
  Te  Te159  1  0.23718940  0.73873381  0.23841407  1
  Te  Te160  1  0.21149472  0.70420795  0.58112765  1
  Te  Te161  1  0.21437926  0.72566705  0.94543644  1
  Te  Te162  1  0.59394502  0.10963983  0.23218747  1
  Te  Te163  1  0.61366636  0.09216218  0.58102281  1
  Te  Te164  1  0.58730872  0.10717974  0.97733938  1
  Te  Te165  1  0.58739645  0.42368390  0.26192548  1
  Te  Te166  1  0.59053984  0.42000201  0.59169245  1
  Te  Te167  1  0.57623516  0.43014713  0.93910026  1
  Te  Te168  1  0.59094759  0.77038261  0.22780980  1
  Te  Te169  1  0.60853941  0.76106729  0.58061233  1
  Te  Te170  1  0.57781595  0.75648234  0.91395288  1
  Te  Te171  1  0.91554637  0.07687941  0.22592760  1
  Te  Te172  1  0.91999064  0.07669397  0.59664939  1
  Te  Te173  1  0.90909792  0.10470363  0.94495171  1
  Te  Te174  1  0.94906489  0.38666379  0.19857085  1
  Te  Te175  1  0.95253466  0.42536783  0.60339291  1
  Te  Te176  1  0.95499558  0.43880137  0.93556409  1
  Te  Te177  1  0.91644537  0.74291177  0.25164876  1
  Te  Te178  1  0.92991845  0.73340374  0.60308489  1
  Te  Te179  1  0.94005872  0.74407000  0.91908830  1
