# generated using pymatgen
data_In2Te3
_symmetry_space_group_name_H-M   'P 1'
_cell_length_a   19.01846578
_cell_length_b   19.00419944
_cell_length_c   18.97891352
_cell_angle_alpha   89.95935512
_cell_angle_beta   90.26488739
_cell_angle_gamma   90.21501170
_symmetry_Int_Tables_number   1
_chemical_formula_structural   In2Te3
_chemical_formula_sum   'In72 Te108'
_cell_volume   6859.43906624
_cell_formula_units_Z   36
loop_
 _symmetry_equiv_pos_site_id
 _symmetry_equiv_pos_as_xyz
  1  'x, y, z'
loop_
 _atom_site_type_symbol
 _atom_site_label
 _atom_site_symmetry_multiplicity
 _atom_site_fract_x
 _atom_site_fract_y
 _atom_site_fract_z
 _atom_site_occupancy
  In  In0  1  0.67136653  -0.02346637  0.32201668  1
  In  In1  1  0.16068708  0.16471563  0.34058758  1
  In  In2  1  0.50545534  0.16658066  -0.00166795  1
  In  In3  1  0.37543905  0.15104405  0.47667552  1
  In  In4  1  0.17049827  0.51458529  0.28907040  1
  In  In5  1  0.82190656  0.32764995  0.82573469  1
  In  In6  1  0.02435219  0.67675864  0.64737675  1
  In  In7  1  0.85520394  -0.01439322  0.87445055  1
  In  In8  1  0.33910271  0.34717623  0.02794568  1
  In  In9  1  0.82768059  0.69809338  0.49627903  1
  In  In10  1  0.84913615  0.48995581  0.31176319  1
  In  In11  1  -0.00841390  0.31623678  -0.01362670  1
  In  In12  1  0.61978080  0.15307310  0.47190056  1
  In  In13  1  0.32475265  0.19858650  0.17920877  1
  In  In14  1  0.66529090  0.51679054  0.16494214  1
  In  In15  1  0.48113185  0.67006706  0.49711053  1
  In  In16  1  0.01056180  0.32738362  0.73174137  1
  In  In17  1  0.82846807  0.49979949  0.03421630  1
  In  In18  1  0.18294131  0.15062510  0.67860898  1
  In  In19  1  0.66060757  0.00698940  0.64638330  1
  In  In20  1  0.29472445  0.48772085  0.47269444  1
  In  In21  1  0.13449601  0.00685331  0.19203592  1
  In  In22  1  0.14565177  0.31681000  0.16277933  1
  In  In23  1  0.65849161  0.81638517  0.15122095  1
  In  In24  1  0.34550872  0.33933822  0.33838775  1
  In  In25  1  0.83567912  0.17739554  0.33274869  1
  In  In26  1  0.67395579  0.84543230  0.49677411  1
  In  In27  1  0.35442140  0.66522285  0.00752376  1
  In  In28  1  0.36359001  0.82283500  0.83232564  1
  In  In29  1  0.83956628  0.67552876  0.16720204  1
  In  In30  1  0.00911715  0.79221724  0.87827779  1
  In  In31  1  0.34594284  0.00511102  0.63178980  1
  In  In32  1  0.34821653  0.30158375  0.65888134  1
  In  In33  1  -0.01674721  0.48662321  0.51771267  1
  In  In34  1  0.19130619  0.51801638  0.67651508  1
  In  In35  1  0.15811922  0.67480346  0.92622465  1
  In  In36  1  0.48762921  0.53118026  0.30704088  1
  In  In37  1  0.83672273  0.49514061  0.67448425  1
  In  In38  1  0.83455244  0.17266715  -0.01387556  1
  In  In39  1  0.00592975  0.83484540  0.47763575  1
  In  In40  1  0.51423422  0.37649145  0.85969581  1
  In  In41  1  0.81550378  0.17584068  0.65291818  1
  In  In42  1  0.51161726  0.83311212  0.32804818  1
  In  In43  1  0.83364220  0.82002598  0.00796256  1
  In  In44  1  0.16278041  -0.04267812  0.85272525  1
  In  In45  1  0.67188255  0.18010275  0.16120367  1
  In  In46  1  -0.01433487  0.16832102  0.17294538  1
  In  In47  1  0.85339546  -0.00668856  0.49360888  1
  In  In48  1  0.33289840  0.15202705  0.84372569  1
  In  In49  1  0.34110259  0.68079250  0.68371963  1
  In  In50  1  0.32933268  0.82883722  0.16444572  1
  In  In51  1  0.12879485  0.34173334  0.49938339  1
  In  In52  1  0.34585518  0.50443198  0.85531527  1
  In  In53  1  0.67160121  0.17402987  0.82034480  1
  In  In54  1  0.80004693  0.64046967  0.84552172  1
  In  In55  1  -0.00052746  -0.02913020  0.68153640  1
  In  In56  1  0.66944180  0.66130934  0.67645167  1
  In  In57  1  0.67332426  0.49974821  0.46415153  1
  In  In58  1  0.31904473  0.00465115  0.02431674  1
  In  In59  1  0.17008088  0.82630282  0.31936759  1
  In  In60  1  0.65535070  0.32312132  0.65761552  1
  In  In61  1  0.51581225  0.81981206  -0.02566592  1
  In  In62  1  0.00425767  0.53353464  0.86283050  1
  In  In63  1  0.18356444  0.83792969  0.65960580  1
  In  In64  1  -0.00365245  0.66462006  0.31677704  1
  In  In65  1  0.33508427  0.84276738  0.48714914  1
  In  In66  1  0.50893676  0.51486523  0.65990460  1
  In  In67  1  0.50958371  -0.02397849  0.16487886  1
  In  In68  1  0.01149795  0.16689051  0.48719243  1
  In  In69  1  0.49837218  -0.00268991  0.80613223  1
  In  In70  1  0.83845647  0.01174200  0.14180636  1
  In  In71  1  0.48733881  0.35680662  0.17478103  1
  Te  Te72  1  0.08149765  0.09746198  0.08986107  1
  Te  Te73  1  0.07396977  0.06543205  0.40521995  1
  Te  Te74  1  0.09304472  0.05941383  0.76149544  1
  Te  Te75  1  0.07206391  0.40684679  0.07225926  1
  Te  Te76  1  0.06947262  0.43863433  0.39373839  1
  Te  Te77  1  0.09083313  0.45113336  0.76638385  1
  Te  Te78  1  0.07014439  0.75405433  0.01510356  1
  Te  Te79  1  0.09314337  0.73201749  0.41368596  1
  Te  Te80  1  0.09945655  0.75502057  0.75329291  1
  Te  Te81  1  0.41749988  0.09568357  0.10104226  1
  Te  Te82  1  0.45284790  0.04569288  0.41787985  1
  Te  Te83  1  0.41656089  0.09960726  0.72957012  1
  Te  Te84  1  0.42579329  0.46117674  0.08071783  1
  Te  Te85  1  0.42562861  0.44140591  0.41610257  1
  Te  Te86  1  0.41315094  0.41942973  0.74176121  1
  Te  Te87  1  0.44182702  0.75787720  0.09159228  1
  Te  Te88  1  0.40388964  0.74537364  0.39161605  1
  Te  Te89  1  0.44623354  0.77817442  0.71987791  1
  Te  Te90  1  0.73478660  0.08614851  0.06134035  1
  Te  Te91  1  0.74456850  0.06963115  0.41910034  1
  Te  Te92  1  0.76130638  0.07386297  0.75222512  1
  Te  Te93  1  0.75720884  0.40982498  0.12526158  1
  Te  Te94  1  0.77618464  0.41161428  0.41285015  1
  Te  Te95  1  0.72892378  0.42000593  0.74929325  1
  Te  Te96  1  0.73301663  0.71846768  0.06686182  1
  Te  Te97  1  0.75377278  0.77582979  0.39501565  1
  Te  Te98  1  0.76116100  0.74542656  0.75241324  1
  Te  Te99  1  0.06098025  0.25685650  0.27252212  1
  Te  Te100  1  0.08348226  0.24533839  0.61012328  1
  Te  Te101  1  0.06058126  0.27160841  0.86547222  1
  Te  Te102  1  0.06615812  0.58612802  0.21034610  1
  Te  Te103  1  0.10076554  0.57342280  0.56838117  1
  Te  Te104  1  0.10415492  0.54595152  0.97208868  1
  Te  Te105  1  0.05801650  0.89085779  0.24452544  1
  Te  Te106  1  0.09226202  0.92189095  0.57364918  1
  Te  Te107  1  0.06798304  0.91008109  0.95616179  1
  Te  Te108  1  0.44202867  0.23939533  0.27192992  1
  Te  Te109  1  0.43872883  0.26456526  0.54821995  1
  Te  Te110  1  0.41557404  0.26120324  0.91900457  1
  Te  Te111  1  0.38353749  0.55869886  0.20466041  1
  Te  Te112  1  0.39339203  0.57520133  0.58052184  1
  Te  Te113  1  0.44178977  0.61481035  0.89371480  1
  Te  Te114  1  0.40608382  0.92076360  0.25767150  1
  Te  Te115  1  0.42883986  0.89120570  0.59241367  1
  Te  Te116  1  0.41526269  0.93797255  0.92747562  1
  Te  Te117  1  0.73365961  0.25917385  0.26784666  1
  Te  Te118  1  0.72649724  0.24237989  0.55343291  1
  Te  Te119  1  0.72787267  0.26703934  0.92621370  1
  Te  Te120  1  0.75427833  0.59607144  0.26338453  1
  Te  Te121  1  0.75811780  0.57797968  0.57429385  1
  Te  Te122  1  0.72906421  0.54180362  0.92931016  1
  Te  Te123  1  0.75746166  0.90730686  0.22117967  1
  Te  Te124  1  0.76877985  0.91527075  0.59228097  1
  Te  Te125  1  0.74737592  0.89986972  0.91954976  1
  Te  Te126  1  0.23532638  0.24042668  0.06571871  1
  Te  Te127  1  0.23707077  0.26849480  0.42178999  1
  Te  Te128  1  0.25110013  0.25497942  0.76603988  1
  Te  Te129  1  0.26744994  0.60936253  0.11454705  1
  Te  Te130  1  0.25879630  0.59109988  0.37822685  1
  Te  Te131  1  0.25175868  0.60798121  0.78240356  1
  Te  Te132  1  0.22457723  0.91891558  0.10097809  1
  Te  Te133  1  0.24048981  0.92015368  0.40861287  1
  Te  Te134  1  0.27169623  0.92709480  0.74923143  1
  Te  Te135  1  0.57416934  0.27022300  0.08396609  1
  Te  Te136  1  0.53206458  0.25016803  0.40800656  1
  Te  Te137  1  0.56511731  0.26644193  0.76424474  1
  Te  Te138  1  0.55395184  0.55353096  0.07323315  1
  Te  Te139  1  0.58375385  0.60568735  0.40580594  1
  Te  Te140  1  0.57997872  0.58608289  0.76806919  1
  Te  Te141  1  0.59719713  0.91981913  0.05767913  1
  Te  Te142  1  0.56327581  0.93668716  0.43132703  1
  Te  Te143  1  0.60005636  0.91523302  0.74440352  1
  Te  Te144  1  0.89635384  0.26032859  0.09375354  1
  Te  Te145  1  0.91330806  0.25671433  0.42945105  1
  Te  Te146  1  0.90873836  0.21927380  0.76743352  1
  Te  Te147  1  0.93171842  0.57261307  0.11245145  1
  Te  Te148  1  0.91590289  0.59397029  0.43123182  1
  Te  Te149  1  0.93040433  0.59576670  0.73861838  1
  Te  Te150  1  0.92601372  0.92102819  0.06640077  1
  Te  Te151  1  0.89343823  0.88879675  0.39834431  1
  Te  Te152  1  0.92912748  0.88962251  0.78449087  1
  Te  Te153  1  0.25596158  0.08841549  0.25303144  1
  Te  Te154  1  0.25285979  0.09683557  0.55649160  1
  Te  Te155  1  0.23077708  0.07743285  0.92499298  1
  Te  Te156  1  0.25258969  0.39932715  0.23452886  1
  Te  Te157  1  0.24456975  0.40055286  0.59461922  1
  Te  Te158  1  0.25570300  0.41976815  0.93142492  1
  Te  Te159  1  0.22842736  0.73265345  0.21620942  1
  Te  Te160  1  0.25465677  0.73898543  0.57364501  1
  Te  Te161  1  0.27116364  0.77591448  0.94192538  1
  Te  Te162  1  0.59098195  0.07670593  0.24298301  1
  Te  Te163  1  0.56479790  0.10623552  0.59935042  1
  Te  Te164  1  0.58390081  0.08173997  0.90300193  1
  Te  Te165  1  0.58643769  0.42541357  0.26476691  1
  Te  Te166  1  0.58750762  0.42560772  0.56847275  1
  Te  Te167  1  0.59019164  0.45463114  0.95816640  1
  Te  Te168  1  0.57153474  0.73594092  0.23729887  1
  Te  Te169  1  0.59220997  0.74215838  0.57280322  1
  Te  Te170  1  0.56431861  0.71071478  0.89159858  1
  Te  Te171  1  0.91293086  0.06916376  0.26232551  1
  Te  Te172  1  0.92669796  0.08252064  0.59625332  1
  Te  Te173  1  0.94058966  0.08565585  0.93732413  1
  Te  Te174  1  0.96974643  0.41540465  0.27972652  1
  Te  Te175  1  0.91961363  0.38794540  0.61149491  1
  Te  Te176  1  0.90385324  0.42731147  0.90868716  1
  Te  Te177  1  0.93767101  0.76944196  0.22890339  1
  Te  Te178  1  0.92193977  0.77113855  0.59001181  1
  Te  Te179  1  0.90100678  0.70134648  0.93874081  1
