# generated using pymatgen
data_In2Te3
_symmetry_space_group_name_H-M   'P 1'
_cell_length_a   18.79402976
_cell_length_b   18.78627242
_cell_length_c   18.78375648
_cell_angle_alpha   90.09016428
_cell_angle_beta   89.98579615
_cell_angle_gamma   89.84298902
_symmetry_Int_Tables_number   1
_chemical_formula_structural   In2Te3
_chemical_formula_sum   'In72 Te108'
_cell_volume   6631.94312266
_cell_formula_units_Z   36
loop_
 _symmetry_equiv_pos_site_id
 _symmetry_equiv_pos_as_xyz
  1  'x, y, z'
loop_
 _atom_site_type_symbol
 _atom_site_label
 _atom_site_symmetry_multiplicity
 _atom_site_fract_x
 _atom_site_fract_y
 _atom_site_fract_z
 _atom_site_occupancy
  In  In0  1  0.67384585  0.84821807  0.50819980  1
  In  In1  1  0.85872217  0.53018751  0.03852946  1
  In  In2  1  0.53608485  0.68543520  0.19747966  1
  In  In3  1  0.15710762  0.00480495  0.47188493  1
  In  In4  1  0.33933576  0.81280947  0.50830058  1
  In  In5  1  0.34664854  0.01069899  0.34457871  1
  In  In6  1  0.16088074  0.33787769  0.47053005  1
  In  In7  1  0.50417909  0.30261539  0.54857924  1
  In  In8  1  0.49425766  0.53204454  -0.00891225  1
  In  In9  1  0.16288379  0.68796418  0.84663466  1
  In  In10  1  0.32731840  0.67948553  0.67198499  1
  In  In11  1  0.71006636  0.50913759  0.20967393  1
  In  In12  1  -0.01023014  0.16212224  0.83347961  1
  In  In13  1  0.51843504  0.14510013  0.35139068  1
  In  In14  1  0.00597647  0.34650439  0.65287580  1
  In  In15  1  0.83825947  0.14542339  -0.01038222  1
  In  In16  1  0.67355110  0.80770597  0.81822746  1
  In  In17  1  0.50690709  0.31195745  0.79737507  1
  In  In18  1  0.51649281  0.34355504  0.14150322  1
  In  In19  1  -0.01434900  0.81503985  0.50214028  1
  In  In20  1  0.36012084  0.13818313  0.83913014  1
  In  In21  1  0.14195643  -0.02899050  0.83501374  1
  In  In22  1  0.50083649  0.83552321  0.66875410  1
  In  In23  1  0.82176144  0.35807654  0.82986888  1
  In  In24  1  0.66438833  0.15305482  0.51287401  1
  In  In25  1  0.12934800  0.81209818  0.33896143  1
  In  In26  1  0.14419305  0.51657413  -0.00969082  1
  In  In27  1  0.33533387  0.85039468  0.15172620  1
  In  In28  1  0.13965492  0.50631265  0.63744279  1
  In  In29  1  0.49293300  0.84141958  -0.00026144  1
  In  In30  1  0.52529613  0.65039347  0.49719979  1
  In  In31  1  0.14068551  0.50177428  0.32058853  1
  In  In32  1  0.33129875  0.49967218  0.83460578  1
  In  In33  1  0.49628823  -0.00721484  0.81692146  1
  In  In34  1  0.31960099  0.16339298  0.18537413  1
  In  In35  1  0.16514972  0.16782289  0.01859360  1
  In  In36  1  0.31621671  0.51571333  0.15747154  1
  In  In37  1  0.83995033  0.67425563  0.83124861  1
  In  In38  1  0.83399884  0.82344504  0.34650452  1
  In  In39  1  0.16317088  0.82070394  0.66338891  1
  In  In40  1  0.67743788  -0.01464204  0.34894488  1
  In  In41  1  0.50687125  0.18110113  -0.01534943  1
  In  In42  1  0.66944899  0.67811341  0.01386829  1
  In  In43  1  0.81523769  0.14177405  0.66888133  1
  In  In44  1  0.14745154  0.30904982  0.14381806  1
  In  In45  1  0.17736178  0.34843302  0.80503321  1
  In  In46  1  0.16401029  0.17754840  0.65946198  1
  In  In47  1  -0.01197943  0.66575964  0.66294683  1
  In  In48  1  0.84106064  0.82004424  0.02244684  1
  In  In49  1  0.84247764  0.36225359  0.21402298  1
  In  In50  1  0.83497100  -0.00935038  0.49510788  1
  In  In51  1  -0.01610902  0.16792669  0.18356236  1
  In  In52  1  0.15391203  0.67424599  0.15889220  1
  In  In53  1  0.51629574  0.50428064  0.67427839  1
  In  In54  1  0.51228141  -0.00777139  0.16161367  1
  In  In55  1  0.67314639  -0.00556006  0.00706694  1
  In  In56  1  0.66808281  0.33553964  -0.00581531  1
  In  In57  1  0.00602761  0.35161526  -0.00350605  1
  In  In58  1  0.86564523  0.33855175  0.46277975  1
  In  In59  1  0.31814189  0.48524722  0.49504520  1
  In  In60  1  0.67000131  0.50142977  0.82109758  1
  In  In61  1  -0.00429842  -0.00180701  -0.00371612  1
  In  In62  1  0.33640144  0.32267730  0.33171080  1
  In  In63  1  0.15621800  0.16282346  0.31966604  1
  In  In64  1  0.67265178  0.34161009  0.65344353  1
  In  In65  1  0.33386654  -0.00924631  0.68014849  1
  In  In66  1  0.53709433  0.51437064  0.36067906  1
  In  In67  1  0.31456921  -0.01188332  0.02141444  1
  In  In68  1  0.00109909  0.83788784  0.16628285  1
  In  In69  1  0.34512390  0.66236967  0.33784447  1
  In  In70  1  0.71241967  0.32426169  0.33714532  1
  In  In71  1  -0.04780940  -0.03415742  0.66753602  1
  Te  Te72  1  0.07716021  0.07727426  0.10137320  1
  Te  Te73  1  0.05887658  0.09807614  0.41199559  1
  Te  Te74  1  0.07993536  0.07706700  0.74161597  1
  Te  Te75  1  0.07365566  0.43691440  0.10289168  1
  Te  Te76  1  0.05395081  0.43098406  0.42083448  1
  Te  Te77  1  0.06717967  0.44010682  0.75816801  1
  Te  Te78  1  0.08138297  0.76290815  0.06248495  1
  Te  Te79  1  0.05242415  0.71211828  0.41697752  1
  Te  Te80  1  0.05948396  0.76331313  0.75653693  1
  Te  Te81  1  0.42072913  0.08615268  0.07704627  1
  Te  Te82  1  0.41377642  0.09794455  0.44236746  1
  Te  Te83  1  0.44493293  0.10714474  0.70579778  1
  Te  Te84  1  0.41174727  0.42920808  0.07025297  1
  Te  Te85  1  0.42595154  0.41436362  0.41366042  1
  Te  Te86  1  0.41053148  0.41339258  0.73436256  1
  Te  Te87  1  0.43136272  0.74207684  0.09974166  1
  Te  Te88  1  0.44231390  0.75148045  0.41274991  1
  Te  Te89  1  0.41577644  0.75652250  0.75987382  1
  Te  Te90  1  0.76433519  0.07222853  0.09425369  1
  Te  Te91  1  0.76322079  0.09755637  0.41076125  1
  Te  Te92  1  0.70963615  0.10150490  0.76092900  1
  Te  Te93  1  0.76065321  0.41479133  0.08638444  1
  Te  Te94  1  0.74463289  0.44763524  0.42916111  1
  Te  Te95  1  0.76615773  0.44664171  0.71509263  1
  Te  Te96  1  0.76425235  0.72968726  0.11501124  1
  Te  Te97  1  0.77693713  0.74584408  0.46203784  1
  Te  Te98  1  0.76264202  0.73853966  0.71981518  1
  Te  Te99  1  0.06446394  0.27408993  0.26496337  1
  Te  Te100  1  0.07274207  0.24629331  0.55863931  1
  Te  Te101  1  0.09043510  0.25468076  0.90657121  1
  Te  Te102  1  0.05333383  0.59810338  0.24296276  1
  Te  Te103  1  0.05631190  0.59256020  0.55062476  1
  Te  Te104  1  0.05624470  0.60616157  0.91164036  1
  Te  Te105  1  0.06928597  0.92493324  0.26650737  1
  Te  Te106  1  0.07875871  0.91765255  0.58015510  1
  Te  Te107  1  0.07634065  0.88572971  0.93737999  1
  Te  Te108  1  0.43634691  0.24549277  0.24235363  1
  Te  Te109  1  0.39852476  0.23105285  0.61666685  1
  Te  Te110  1  0.41044635  0.26889216  0.90878637  1
  Te  Te111  1  0.42816915  0.56840418  0.24958733  1
  Te  Te112  1  0.40578584  0.58183902  0.57648828  1
  Te  Te113  1  0.40111883  0.61366403  0.90422746  1
  Te  Te114  1  0.42740330  0.91199291  0.25917381  1
  Te  Te115  1  0.42133317  0.92394459  0.57252109  1
  Te  Te116  1  0.39882489  0.92072196  0.91068483  1
  Te  Te117  1  0.75802519  0.24051204  0.22364070  1
  Te  Te118  1  0.76986787  0.25823667  0.56754316  1
  Te  Te119  1  0.75320484  0.24415810  0.90609076  1
  Te  Te120  1  0.79830433  0.61929811  0.25953977  1
  Te  Te121  1  0.73171593  0.57714972  0.50637570  1
  Te  Te122  1  0.74881580  0.57461654  0.93060583  1
  Te  Te123  1  0.74174979  0.89348850  0.24817536  1
  Te  Te124  1  0.74933933  0.93723557  0.60178072  1
  Te  Te125  1  0.74951303  0.89320568  0.92038278  1
  Te  Te126  1  0.27496008  0.25897917  0.07518616  1
  Te  Te127  1  0.25697276  0.22814184  0.41837695  1
  Te  Te128  1  0.26735053  0.23619583  0.75506757  1
  Te  Te129  1  0.25243083  0.60978015  0.05600059  1
  Te  Te130  1  0.23689363  0.58185114  0.40914293  1
  Te  Te131  1  0.23180643  0.58089195  0.74232047  1
  Te  Te132  1  0.21385103  0.89966999  0.08151317  1
  Te  Te133  1  0.25186719  0.89776920  0.41237663  1
  Te  Te134  1  0.25366200  0.89179374  0.76339883  1
  Te  Te135  1  0.60663064  0.23099277  0.08814982  1
  Te  Te136  1  0.58983943  0.26178164  0.42032831  1
  Te  Te137  1  0.61759678  0.22699874  0.73776617  1
  Te  Te138  1  0.59485236  0.57061825  0.10161850  1
  Te  Te139  1  0.63112626  0.62921460  0.38993834  1
  Te  Te140  1  0.58635967  0.60385484  0.75551513  1
  Te  Te141  1  0.60283692  0.88938376  0.09384235  1
  Te  Te142  1  0.57276217  0.92806512  0.43450461  1
  Te  Te143  1  0.60638622  0.92150742  0.73889774  1
  Te  Te144  1  0.91873007  0.25063863  0.06869757  1
  Te  Te145  1  0.91898272  0.22779895  0.37742014  1
  Te  Te146  1  0.90889774  0.25648222  0.74357917  1
  Te  Te147  1  0.94510683  0.60690129  0.12815612  1
  Te  Te148  1  0.86003454  0.55609711  0.38769263  1
  Te  Te149  1  0.90040232  0.57305305  0.73974639  1
  Te  Te150  1  0.90154347  0.93872102  0.10112047  1
  Te  Te151  1  0.93600729  0.92248271  0.40424487  1
  Te  Te152  1  0.89784541  0.91734525  0.79200458  1
  Te  Te153  1  0.23756114  0.05285132  0.24475494  1
  Te  Te154  1  0.24183142  0.06822654  0.58462001  1
  Te  Te155  1  0.23354498  0.07867613  0.91232536  1
  Te  Te156  1  0.24482015  0.40912481  0.24554064  1
  Te  Te157  1  0.23842454  0.39785820  0.59009116  1
  Te  Te158  1  0.24191567  0.41556762  0.92629083  1
  Te  Te159  1  0.25372589  0.75104625  0.25203753  1
  Te  Te160  1  0.22711165  0.72574855  0.56327701  1
  Te  Te161  1  0.28125681  0.72391011  0.92418037  1
  Te  Te162  1  0.60386892  0.07937163  0.24539335  1
  Te  Te163  1  0.57308291  0.09863159  0.61320321  1
  Te  Te164  1  0.58779922  0.07728563  0.90845625  1
  Te  Te165  1  0.59422731  0.41035080  0.25454938  1
  Te  Te166  1  0.58764380  0.43131250  0.56235377  1
  Te  Te167  1  0.56977171  0.41470036  0.90723810  1
  Te  Te168  1  0.63313360  0.77876820  0.25592667  1
  Te  Te169  1  0.59562910  0.74057252  0.59566663  1
  Te  Te170  1  0.57360211  0.74256607  0.91393295  1
  Te  Te171  1  0.89554864  0.10551915  0.28391651  1
  Te  Te172  1  0.92688261  0.08777326  0.58305347  1
  Te  Te173  1  0.89646274  0.04700782  0.87811014  1
  Te  Te174  1  0.92665375  0.44194955  0.30581048  1
  Te  Te175  1  0.91938979  0.42967771  0.56701131  1
  Te  Te176  1  0.91358099  0.44265272  0.91830063  1
  Te  Te177  1  0.91600842  0.74155929  0.24734774  1
  Te  Te178  1  0.88742415  0.76344655  0.60288350  1
  Te  Te179  1  0.92565085  0.72545736  0.94140029  1
