# generated using pymatgen
data_In2Te3
_symmetry_space_group_name_H-M   'P 1'
_cell_length_a   18.93766706
_cell_length_b   18.96153972
_cell_length_c   18.97386357
_cell_angle_alpha   90.05894485
_cell_angle_beta   89.94929454
_cell_angle_gamma   90.04811490
_symmetry_Int_Tables_number   1
_chemical_formula_structural   In2Te3
_chemical_formula_sum   'In72 Te108'
_cell_volume   6813.26526585
_cell_formula_units_Z   36
loop_
 _symmetry_equiv_pos_site_id
 _symmetry_equiv_pos_as_xyz
  1  'x, y, z'
loop_
 _atom_site_type_symbol
 _atom_site_label
 _atom_site_symmetry_multiplicity
 _atom_site_fract_x
 _atom_site_fract_y
 _atom_site_fract_z
 _atom_site_occupancy
  In  In0  1  0.53758112  0.32665029  0.52281921  1
  In  In1  1  0.35356443  0.33240878  0.67445924  1
  In  In2  1  0.80312338  0.66900939  0.20121682  1
  In  In3  1  0.82936033  0.51311392  0.67880010  1
  In  In4  1  0.48827779  0.13170391  0.34606066  1
  In  In5  1  0.00447060  0.66569956  0.00157040  1
  In  In6  1  0.81620283  0.49465638  -0.01311391  1
  In  In7  1  0.66478047  0.14731157  0.51589439  1
  In  In8  1  0.35575980  0.52018191  0.83809620  1
  In  In9  1  0.80777102  0.83462184  0.37167080  1
  In  In10  1  0.00516715  0.84624509  0.83314739  1
  In  In11  1  -0.01239293  0.17137855  0.81819956  1
  In  In12  1  0.50360860  0.14988704  -0.02124015  1
  In  In13  1  0.49983757  0.82914698  0.35915360  1
  In  In14  1  0.17426498  0.37418898  0.16113946  1
  In  In15  1  0.65220595  -0.01144299  0.34019716  1
  In  In16  1  0.34643295  0.16944681  0.14715899  1
  In  In17  1  0.81543624  0.19441798  0.33501461  1
  In  In18  1  0.33901957  0.34382287  -0.01257034  1
  In  In19  1  0.18993629  0.11613064  0.66031034  1
  In  In20  1  0.83490069  0.67512700  0.83263865  1
  In  In21  1  0.65860793  0.84392379  0.17249597  1
  In  In22  1  0.36358158  0.31897831  0.36847063  1
  In  In23  1  0.49914255  0.50506315  -0.00452760  1
  In  In24  1  -0.02235978  0.64094427  0.35044586  1
  In  In25  1  0.15649504  0.31439848  0.80850999  1
  In  In26  1  0.34151295  0.84690369  0.15573514  1
  In  In27  1  -0.01314084  -0.01766023  0.66700140  1
  In  In28  1  0.37559356  0.48034628  0.17751363  1
  In  In29  1  -0.00113100  0.01007992  -0.01683292  1
  In  In30  1  0.16613034  0.50115250  0.64109582  1
  In  In31  1  0.19179271  0.66570537  0.13326324  1
  In  In32  1  0.19265514  0.54301041  0.31127802  1
  In  In33  1  0.36957746  0.48561923  0.51250855  1
  In  In34  1  0.49511563  0.15613189  0.68400451  1
  In  In35  1  0.75095875  0.01291374  0.09442850  1
  In  In36  1  0.34198674  0.84457494  0.85466401  1
  In  In37  1  0.65575714  -0.03395871  0.70744916  1
  In  In38  1  0.79339221  0.33715559  0.53108183  1
  In  In39  1  0.00297243  0.81411718  0.50834820  1
  In  In40  1  -0.00764853  0.18974908  0.14949775  1
  In  In41  1  0.51764086  0.66147410  0.52039710  1
  In  In42  1  0.18628566  0.11240993  -0.04839167  1
  In  In43  1  0.66308792  0.68678590  -0.01692949  1
  In  In44  1  -0.01972290  0.48708641  0.15995008  1
  In  In45  1  0.52410707  0.85940652  0.00199623  1
  In  In46  1  0.50092236  0.66540568  0.17117451  1
  In  In47  1  0.32504315  0.69928469  0.34052447  1
  In  In48  1  0.81672038  -0.01701440  0.53644976  1
  In  In49  1  0.16912873  0.50701341  0.00316692  1
  In  In50  1  0.14137108  0.31950410  0.47668057  1
  In  In51  1  0.17901209  -0.00717224  0.16530897  1
  In  In52  1  0.81503482  0.36054351  0.82689134  1
  In  In53  1  0.16430929  0.15570636  0.32840915  1
  In  In54  1  0.81940235  0.50414268  0.35192696  1
  In  In55  1  0.65973262  0.31472082  -0.00790343  1
  In  In56  1  0.67104052  0.50650186  0.51450738  1
  In  In57  1  0.17706269  0.68796215  0.50797991  1
  In  In58  1  -0.01092911  0.35014913  0.64038764  1
  In  In59  1  -0.01096033  0.84260441  0.15821703  1
  In  In60  1  0.00659029  0.13418322  0.50178837  1
  In  In61  1  0.33223781  -0.04427445  0.35982425  1
  In  In62  1  0.34580182  0.69731773  0.67037707  1
  In  In63  1  0.80937359  0.29457414  0.13508805  1
  In  In64  1  0.17681520  0.70167971  0.81954296  1
  In  In65  1  -0.00068806  0.54548731  0.46975999  1
  In  In66  1  0.80726346  0.88161692  -0.02347506  1
  In  In67  1  0.51944810  0.30525561  0.83959202  1
  In  In68  1  0.37460600  -0.03956859  0.66823909  1
  In  In69  1  0.64000147  0.68692685  0.70830764  1
  In  In70  1  -0.00692465  0.32900557  0.35144766  1
  In  In71  1  0.00435448  0.01704522  0.33322842  1
  Te  Te72  1  0.09189997  0.09203414  0.08708981  1
  Te  Te73  1  0.11616719  0.05511759  0.43171492  1
  Te  Te74  1  0.08037567  0.06882322  0.75194379  1
  Te  Te75  1  0.06545583  0.40998143  0.06065156  1
  Te  Te76  1  0.09237845  0.44087239  0.39751562  1
  Te  Te77  1  0.07839735  0.42386342  0.73857642  1
  Te  Te78  1  0.09052256  0.76736845  0.07435158  1
  Te  Te79  1  0.08487168  0.73958443  0.40047762  1
  Te  Te80  1  0.07651452  0.76289485  0.73523223  1
  Te  Te81  1  0.40470076  0.06823995  0.05719231  1
  Te  Te82  1  0.40267550  0.05756769  0.44089038  1
  Te  Te83  1  0.41502547  0.06524012  0.77067974  1
  Te  Te84  1  0.45745388  0.37605052  0.07986325  1
  Te  Te85  1  0.46656305  0.41887151  0.41870742  1
  Te  Te86  1  0.43836852  0.41614981  0.76422795  1
  Te  Te87  1  0.43233404  0.75686637  0.07370481  1
  Te  Te88  1  0.40973069  0.74928778  0.45384368  1
  Te  Te89  1  0.43951732  0.77188351  0.76202223  1
  Te  Te90  1  0.72445818  0.12807104  0.00399327  1
  Te  Te91  1  0.76256259  0.07691366  0.41938793  1
  Te  Te92  1  0.77740658  0.02988824  0.77363507  1
  Te  Te93  1  0.73394643  0.41552361  0.08567384  1
  Te  Te94  1  0.72612668  0.39857174  0.41299504  1
  Te  Te95  1  0.72171611  0.42546150  0.73142513  1
  Te  Te96  1  0.75244414  0.76394041  0.08320327  1
  Te  Te97  1  0.72219103  0.72614258  0.41836470  1
  Te  Te98  1  0.75699196  0.77005810  0.75080782  1
  Te  Te99  1  0.09200965  0.26756923  0.24721162  1
  Te  Te100  1  0.08552433  0.23581818  0.59135075  1
  Te  Te101  1  0.09201324  0.22973703  0.91442639  1
  Te  Te102  1  0.08239798  0.58828905  0.21595711  1
  Te  Te103  1  0.07389825  0.60738356  0.58746941  1
  Te  Te104  1  0.09553609  0.59451942  0.90605293  1
  Te  Te105  1  0.08383284  0.91473566  0.25450528  1
  Te  Te106  1  0.08307325  0.91172450  0.58213045  1
  Te  Te107  1  0.09620672  0.92141516  0.92104114  1
  Te  Te108  1  0.42567766  0.24243227  0.25375202  1
  Te  Te109  1  0.42509507  0.24113518  0.57760479  1
  Te  Te110  1  0.39934207  0.23635117  0.90147042  1
  Te  Te111  1  0.41643970  0.59715839  0.27744791  1
  Te  Te112  1  0.43066307  0.57833089  0.61328395  1
  Te  Te113  1  0.44896719  0.61576912  0.90641609  1
  Te  Te114  1  0.43382199  0.91665768  0.25332359  1
  Te  Te115  1  0.47476735  0.89317977  0.57889265  1
  Te  Te116  1  0.41942718  0.94290446  0.93829728  1
  Te  Te117  1  0.72041719  0.22799803  0.22998725  1
  Te  Te118  1  0.73056830  0.23535596  0.61573003  1
  Te  Te119  1  0.75226190  0.24365077  0.89767049  1
  Te  Te120  1  0.72600429  0.55617316  0.25132704  1
  Te  Te121  1  0.73002279  0.60630188  0.61313245  1
  Te  Te122  1  0.73200938  0.58311307  0.89658917  1
  Te  Te123  1  0.76283361  0.92168530  0.25664885  1
  Te  Te124  1  0.73408734  0.88475581  0.60619723  1
  Te  Te125  1  0.70769180  0.95586252  0.88721207  1
  Te  Te126  1  0.24693506  0.26649823  0.08215835  1
  Te  Te127  1  0.25415154  0.22985920  0.42777543  1
  Te  Te128  1  0.25925229  0.23092991  0.73652511  1
  Te  Te129  1  0.28800862  0.56278426  0.07823340  1
  Te  Te130  1  0.26862845  0.57839843  0.44308134  1
  Te  Te131  1  0.25743571  0.58006524  0.73422575  1
  Te  Te132  1  0.25620989  0.92265546  0.06312785  1
  Te  Te133  1  0.26741537  0.85473034  0.44295998  1
  Te  Te134  1  0.25613619  0.92450783  0.75982825  1
  Te  Te135  1  0.56924428  0.23661859  0.07960401  1
  Te  Te136  1  0.58602873  0.22819218  0.41670499  1
  Te  Te137  1  0.60631590  0.23342307  0.74415078  1
  Te  Te138  1  0.59503611  0.59017668  0.07856378  1
  Te  Te139  1  0.60537659  0.59932963  0.41797005  1
  Te  Te140  1  0.53566842  0.61100628  0.77703657  1
  Te  Te141  1  0.60603845  0.95537541  0.08650271  1
  Te  Te142  1  0.57943358  0.91789226  0.44894296  1
  Te  Te143  1  0.54950285  0.88286972  0.77665503  1
  Te  Te144  1  0.91133234  0.24699308  0.04332596  1
  Te  Te145  1  0.91030487  0.24700594  0.44789267  1
  Te  Te146  1  0.90580422  0.26944106  0.73612139  1
  Te  Te147  1  0.89754875  0.59419214  0.09062885  1
  Te  Te148  1  0.84750548  0.63502276  0.44027737  1
  Te  Te149  1  0.92619389  0.58623585  0.76010490  1
  Te  Te150  1  0.90092340  0.94736876  0.09079476  1
  Te  Te151  1  0.91968998  0.92856046  0.42412510  1
  Te  Te152  1  0.89325897  0.90334301  0.75238660  1
  Te  Te153  1  0.27073502  0.07753682  0.25372144  1
  Te  Te154  1  0.29388937  0.05116058  0.57885762  1
  Te  Te155  1  0.27626544  0.05079150  0.85143629  1
  Te  Te156  1  0.27033440  0.40558884  0.27560553  1
  Te  Te157  1  0.25250485  0.39706458  0.57174119  1
  Te  Te158  1  0.24395315  0.41791278  0.89356713  1
  Te  Te159  1  0.24034856  0.76589339  0.23733598  1
  Te  Te160  1  0.25124791  0.78462306  0.59397868  1
  Te  Te161  1  0.26513283  0.74039959  0.92703569  1
  Te  Te162  1  0.57862603  0.07201976  0.24567900  1
  Te  Te163  1  0.58288212  0.05914020  0.60527827  1
  Te  Te164  1  0.61418708  0.08135816  0.90413376  1
  Te  Te165  1  0.51366640  0.44630615  0.20697456  1
  Te  Te166  1  0.59507061  0.42692589  0.61483194  1
  Te  Te167  1  0.59044492  0.42214193  0.90819431  1
  Te  Te168  1  0.58885643  0.74830539  0.26471342  1
  Te  Te169  1  0.57272776  0.77574633  0.60182888  1
  Te  Te170  1  0.60300015  0.79102885  0.89263510  1
  Te  Te171  1  0.91575651  0.10972561  0.25321519  1
  Te  Te172  1  0.90062290  0.09127954  0.60109528  1
  Te  Te173  1  0.90280432  0.07118161  0.88874079  1
  Te  Te174  1  0.89959387  0.40574149  0.25945524  1
  Te  Te175  1  0.90924837  0.44445392  0.55191630  1
  Te  Te176  1  0.91780280  0.43640769  0.90046924  1
  Te  Te177  1  0.91324035  0.75653358  0.26043606  1
  Te  Te178  1  0.90200692  0.72274654  0.55637714  1
  Te  Te179  1  0.90948169  0.76728226  0.93955686  1
