# generated using pymatgen
data_In2Te3
_symmetry_space_group_name_H-M   'P 1'
_cell_length_a   18.82127678
_cell_length_b   18.82087575
_cell_length_c   18.83532752
_cell_angle_alpha   89.96727792
_cell_angle_beta   90.05065194
_cell_angle_gamma   89.96820932
_symmetry_Int_Tables_number   1
_chemical_formula_structural   In2Te3
_chemical_formula_sum   'In72 Te108'
_cell_volume   6672.08818521
_cell_formula_units_Z   36
loop_
 _symmetry_equiv_pos_site_id
 _symmetry_equiv_pos_as_xyz
  1  'x, y, z'
loop_
 _atom_site_type_symbol
 _atom_site_label
 _atom_site_symmetry_multiplicity
 _atom_site_fract_x
 _atom_site_fract_y
 _atom_site_fract_z
 _atom_site_occupancy
  In  In0  1  0.01626854  0.36560769  0.33951079  1
  In  In1  1  0.17952931  -0.03040104  0.79394009  1
  In  In2  1  0.17021948  0.14974479  0.32346602  1
  In  In3  1  0.65823575  0.84473297  0.84911541  1
  In  In4  1  0.83122795  0.65335602  0.15735773  1
  In  In5  1  -0.02045139  0.15316918  0.51823581  1
  In  In6  1  0.33294823  0.14521931  0.85221045  1
  In  In7  1  0.16397877  0.81360978  0.32944714  1
  In  In8  1  0.18910738  0.36082578  0.18877881  1
  In  In9  1  0.83513192  0.83869797  0.36800185  1
  In  In10  1  0.68565080  0.34751340  0.65382908  1
  In  In11  1  0.16922875  0.36487030  0.47834217  1
  In  In12  1  0.84856712  0.66814532  0.82764511  1
  In  In13  1  0.01633756  0.83323587  0.16305254  1
  In  In14  1  0.34353304  0.33256522  0.67236839  1
  In  In15  1  0.47930617  0.83035580  0.01112159  1
  In  In16  1  0.31476165  0.69834252  0.67815427  1
  In  In17  1  -0.00400532  0.67915881  0.35367332  1
  In  In18  1  0.50323977  -0.06075787  0.48503529  1
  In  In19  1  -0.00838873  0.50038020  0.16380690  1
  In  In20  1  0.49634960  0.20492718  0.10051269  1
  In  In21  1  0.66790362  0.67382924  0.00736572  1
  In  In22  1  0.81138033  -0.01949327  0.18788318  1
  In  In23  1  -0.01939539  0.15378668  0.17619397  1
  In  In24  1  0.48473227  0.50039054  0.66893236  1
  In  In25  1  0.65927965  0.13731634  0.47677798  1
  In  In26  1  0.84864508  0.49241122  0.65783825  1
  In  In27  1  0.66955775  0.52634983  0.49558028  1
  In  In28  1  0.18834508  0.33914518  0.85100970  1
  In  In29  1  0.66825725  -0.03337758  0.66074223  1
  In  In30  1  0.48679861  0.15393697  0.67386396  1
  In  In31  1  0.16273805  0.53061046  0.64307255  1
  In  In32  1  0.83304009  0.80773094  -0.00589204  1
  In  In33  1  0.50881008  0.00733929  0.17324680  1
  In  In34  1  0.01461037  -0.00628222  -0.01195220  1
  In  In35  1  0.13046451  -0.03235165  0.52315406  1
  In  In36  1  0.33627724  0.35518680  0.01353870  1
  In  In37  1  0.18654320  0.84086902  0.00776976  1
  In  In38  1  0.85378842  0.50742259  0.32877476  1
  In  In39  1  0.82814113  0.48064804  0.01784942  1
  In  In40  1  0.49989707  0.67596023  0.46673004  1
  In  In41  1  0.65177151  0.50444935  0.81605765  1
  In  In42  1  0.15228803  0.68437233  0.81749768  1
  In  In43  1  0.64472592  0.49697926  0.16495172  1
  In  In44  1  0.14414695  0.14878586  0.66174560  1
  In  In45  1  0.65350770  0.34558883  0.31239831  1
  In  In46  1  0.18665408  0.66643254  0.16164878  1
  In  In47  1  0.35397311  0.35157750  0.31628813  1
  In  In48  1  0.84996550  -0.01252662  0.81098247  1
  In  In49  1  0.48716781  0.51062900  -0.00095316  1
  In  In50  1  0.01943143  0.50559214  0.83657064  1
  In  In51  1  0.84038936  0.33147539  0.51517912  1
  In  In52  1  0.17684239  -0.02560895  0.17929131  1
  In  In53  1  0.50620481  0.34439630  0.84083496  1
  In  In54  1  0.50328449  -0.02400959  0.83954426  1
  In  In55  1  0.82364925  0.15953354  -0.00336422  1
  In  In56  1  0.31947691  0.82384585  0.50020293  1
  In  In57  1  0.16704146  0.17658969  -0.01195101  1
  In  In58  1  -0.00771913  0.32838364  0.67322400  1
  In  In59  1  0.32544126  0.16310988  0.50889339  1
  In  In60  1  0.35209449  -0.01019509  0.32523958  1
  In  In61  1  0.64213139  0.70165654  0.32895743  1
  In  In62  1  0.67827422  0.17372808  0.84322196  1
  In  In63  1  0.85240615  0.81536752  0.63743450  1
  In  In64  1  0.64192297  0.01869755  0.00065104  1
  In  In65  1  0.32920094  0.65685854  -0.00416775  1
  In  In66  1  0.33916828  0.53305027  0.46399341  1
  In  In67  1  0.87063237  0.14709546  0.66125735  1
  In  In68  1  0.80767637  0.16104936  0.34312154  1
  In  In69  1  0.64344051  0.69107452  0.65105705  1
  In  In70  1  0.01728701  0.32628685  -0.00176279  1
  In  In71  1  0.50870770  0.17323618  0.32169540  1
  Te  Te72  1  0.08778685  0.08119897  0.09313941  1
  Te  Te73  1  0.08251784  0.08211026  0.42691803  1
  Te  Te74  1  0.06824208  0.06408620  0.75329057  1
  Te  Te75  1  0.09657690  0.42456950  0.08373081  1
  Te  Te76  1  0.09613328  0.47486586  0.40624258  1
  Te  Te77  1  0.10455321  0.41324202  0.73649829  1
  Te  Te78  1  0.08780990  0.74079815  0.06877609  1
  Te  Te79  1  0.06623214  0.78073137  0.43892891  1
  Te  Te80  1  0.10044118  0.75412489  0.69336670  1
  Te  Te81  1  0.42687321  0.07882588  0.07294026  1
  Te  Te82  1  0.42557604  0.08419761  0.42289442  1
  Te  Te83  1  0.40045770  0.05669682  0.74865613  1
  Te  Te84  1  0.42917999  0.42478960  0.10775340  1
  Te  Te85  1  0.42264844  0.41715002  0.42787671  1
  Te  Te86  1  0.39924259  0.43062224  0.77515151  1
  Te  Te87  1  0.40417568  0.73713652  0.09915393  1
  Te  Te88  1  0.38235882  0.73791174  0.39197259  1
  Te  Te89  1  0.40008060  0.78749550  0.75726759  1
  Te  Te90  1  0.73954198  0.08307795  0.09852013  1
  Te  Te91  1  0.77850486  0.05344782  0.44355738  1
  Te  Te92  1  0.74079905  0.07657150  0.74292775  1
  Te  Te93  1  0.73459948  0.39697200  0.09761285  1
  Te  Te94  1  0.75427298  0.41464067  0.42001349  1
  Te  Te95  1  0.76603382  0.41711344  0.76207354  1
  Te  Te96  1  0.73843919  0.76516090  0.10687978  1
  Te  Te97  1  0.75566399  0.72394852  0.41998611  1
  Te  Te98  1  0.74457141  0.75588929  0.75670426  1
  Te  Te99  1  0.08378652  0.25453648  0.24733319  1
  Te  Te100  1  0.09227025  0.25817271  0.56577349  1
  Te  Te101  1  0.07598985  0.24143840  0.88494084  1
  Te  Te102  1  0.06926957  0.60427102  0.24199794  1
  Te  Te103  1  0.07227048  0.63286561  0.58171133  1
  Te  Te104  1  0.10618871  0.58739236  0.92133982  1
  Te  Te105  1  0.06764075  0.92565544  0.27118044  1
  Te  Te106  1  0.08503656  0.90482598  0.65135207  1
  Te  Te107  1  0.08920185  0.89635666  0.90159033  1
  Te  Te108  1  0.41260960  0.23989964  0.22554201  1
  Te  Te109  1  0.42981903  0.25544233  0.57320022  1
  Te  Te110  1  0.41168134  0.25600418  0.92255695  1
  Te  Te111  1  0.44929429  0.62324607  0.30151693  1
  Te  Te112  1  0.41548267  0.60619648  0.58248343  1
  Te  Te113  1  0.42383575  0.59631186  0.89797410  1
  Te  Te114  1  0.45612639  0.89730964  0.26740338  1
  Te  Te115  1  0.39864176  0.91461523  0.58667725  1
  Te  Te116  1  0.39861442  0.91925687  0.92514708  1
  Te  Te117  1  0.73183874  0.23930966  0.23994220  1
  Te  Te118  1  0.74826130  0.22798074  0.58041391  1
  Te  Te119  1  0.75279099  0.26819750  0.92458284  1
  Te  Te120  1  0.73943058  0.58266202  0.25661430  1
  Te  Te121  1  0.75487593  0.59857441  0.59784231  1
  Te  Te122  1  0.75167078  0.58256879  0.91695657  1
  Te  Te123  1  0.72435250  0.90217544  0.28191606  1
  Te  Te124  1  0.73922151  0.88095319  0.56403147  1
  Te  Te125  1  0.75662822  0.93145858  0.92723159  1
  Te  Te126  1  0.24615289  0.25568501  0.08863484  1
  Te  Te127  1  0.25356261  0.25279605  0.40372446  1
  Te  Te128  1  0.25428618  0.23262794  0.74599943  1
  Te  Te129  1  0.27260973  0.56401721  0.09873463  1
  Te  Te130  1  0.21918492  0.57714194  0.39295525  1
  Te  Te131  1  0.25114811  0.58164398  0.75368477  1
  Te  Te132  1  0.27993512  0.89944601  0.10670903  1
  Te  Te133  1  0.24007050  0.93113161  0.41182638  1
  Te  Te134  1  0.28115185  0.87553485  0.72621737  1
  Te  Te135  1  0.62893688  0.26361525  0.10995795  1
  Te  Te136  1  0.58635654  0.26010089  0.42167493  1
  Te  Te137  1  0.58227741  0.26196538  0.73722035  1
  Te  Te138  1  0.56488622  0.60504736  0.09477712  1
  Te  Te139  1  0.57088040  0.56106906  0.38618922  1
  Te  Te140  1  0.56174171  0.60708999  0.74930635  1
  Te  Te141  1  0.59123474  0.90592756  0.08595258  1
  Te  Te142  1  0.58854818  0.92894421  0.36467882  1
  Te  Te143  1  0.56241583  0.88282018  0.73439322  1
  Te  Te144  1  0.91337597  0.25259868  0.08315074  1
  Te  Te145  1  0.92396002  0.25424540  0.40733413  1
  Te  Te146  1  0.90068177  0.25246084  0.75879145  1
  Te  Te147  1  0.92666235  0.59086004  0.05769912  1
  Te  Te148  1  0.90615963  0.59299104  0.43575396  1
  Te  Te149  1  0.93939241  0.58803203  0.73552784  1
  Te  Te150  1  0.91439221  0.92295112  0.08145408  1
  Te  Te151  1  0.90637031  0.93585975  0.45508253  1
  Te  Te152  1  0.92935125  0.88097626  0.74813540  1
  Te  Te153  1  0.27212205  0.08346744  0.23285055  1
  Te  Te154  1  0.24119234  0.06142611  0.58323335  1
  Te  Te155  1  0.23192266  0.05735380  0.92151145  1
  Te  Te156  1  0.26111245  0.46168725  0.27330962  1
  Te  Te157  1  0.26683292  0.42818360  0.57881778  1
  Te  Te158  1  0.24629031  0.44384598  0.93491585  1
  Te  Te159  1  0.27109320  0.75783112  0.24467719  1
  Te  Te160  1  0.21956184  0.73438430  0.56790938  1
  Te  Te161  1  0.25779157  0.75756356  0.90288779  1
  Te  Te162  1  0.60474769  0.07038210  0.27163088  1
  Te  Te163  1  0.57279140  0.06420355  0.58155811  1
  Te  Te164  1  0.55991075  0.10559477  0.90743243  1
  Te  Te165  1  0.54291761  0.41280786  0.23657141  1
  Te  Te166  1  0.58240665  0.42793848  0.57607472  1
  Te  Te167  1  0.59685413  0.42280570  0.93271356  1
  Te  Te168  1  0.53173822  0.73926387  0.23832223  1
  Te  Te169  1  0.57673863  0.77531217  0.54770168  1
  Te  Te170  1  0.56864814  0.74301719  0.91564819  1
  Te  Te171  1  0.90854279  0.06349095  0.27242627  1
  Te  Te172  1  0.91838651  0.02823276  0.58236730  1
  Te  Te173  1  0.92218994  0.08380216  0.90614841  1
  Te  Te174  1  0.90579868  0.39780081  0.23685422  1
  Te  Te175  1  0.94913836  0.42713650  0.56375689  1
  Te  Te176  1  0.92425494  0.41640137  0.91628534  1
  Te  Te177  1  0.90773723  0.75745833  0.24271622  1
  Te  Te178  1  0.95337222  0.73530139  0.56033312  1
  Te  Te179  1  0.93826152  0.75511185  0.90720199  1
