# generated using pymatgen
data_In2Te3
_symmetry_space_group_name_H-M   'P 1'
_cell_length_a   19.00249232
_cell_length_b   18.99715127
_cell_length_c   19.01929959
_cell_angle_alpha   89.91479943
_cell_angle_beta   90.05851461
_cell_angle_gamma   89.87514390
_symmetry_Int_Tables_number   1
_chemical_formula_structural   In2Te3
_chemical_formula_sum   'In72 Te108'
_cell_volume   6865.81072612
_cell_formula_units_Z   36
loop_
 _symmetry_equiv_pos_site_id
 _symmetry_equiv_pos_as_xyz
  1  'x, y, z'
loop_
 _atom_site_type_symbol
 _atom_site_label
 _atom_site_symmetry_multiplicity
 _atom_site_fract_x
 _atom_site_fract_y
 _atom_site_fract_z
 _atom_site_occupancy
  In  In0  1  0.51227793  0.51248915  0.65695227  1
  In  In1  1  0.16363677  0.68051459  0.86086053  1
  In  In2  1  0.35084338  0.33844063  -0.01470751  1
  In  In3  1  -0.01044107  0.47417183  0.16509879  1
  In  In4  1  0.81866075  0.33989054  0.82021664  1
  In  In5  1  -0.01505763  0.85199305  0.84876964  1
  In  In6  1  0.70756378  0.35903527  0.01245798  1
  In  In7  1  0.63943617  0.16958392  0.83538323  1
  In  In8  1  0.51818399  0.00126275  0.15708755  1
  In  In9  1  -0.03955882  0.54496101  0.47060370  1
  In  In10  1  0.67533859  0.51603385  0.84712447  1
  In  In11  1  0.63512031  0.01104915  0.67872722  1
  In  In12  1  0.55744017  0.50377771  0.02248583  1
  In  In13  1  0.14046095  0.48934743  0.66760501  1
  In  In14  1  0.32879917  0.69062817  0.66978518  1
  In  In15  1  0.19471192  -0.03088613  0.49706729  1
  In  In16  1  0.67519600  -0.03759156  0.00296225  1
  In  In17  1  0.85321813  -0.05093343  0.19027996  1
  In  In18  1  0.84843694  0.17917895  0.65300178  1
  In  In19  1  0.52551459  0.49076197  0.33792409  1
  In  In20  1  0.49731613  0.17694405  -0.00500133  1
  In  In21  1  0.49586878  0.70272011  0.53009283  1
  In  In22  1  0.68773071  0.53201784  0.47726885  1
  In  In23  1  0.46575336  -0.03167719  0.52858626  1
  In  In24  1  0.13415859  0.70340841  0.21012561  1
  In  In25  1  0.19718045  0.51673799  -0.01176630  1
  In  In26  1  0.02285862  0.65818132  0.01448962  1
  In  In27  1  0.65909516  0.67562133  0.66684874  1
  In  In28  1  0.50507874  0.33059968  0.51135188  1
  In  In29  1  -0.03139508  -0.03584354  0.35432592  1
  In  In30  1  0.66378825  0.80834988  0.16856509  1
  In  In31  1  0.49476035  0.18170622  0.67165535  1
  In  In32  1  0.17244220  0.33833166  0.52519186  1
  In  In33  1  0.48663078  0.70339059  0.86207721  1
  In  In34  1  0.35480420  0.67962580  0.32550232  1
  In  In35  1  0.72128572  0.67823138  0.32744081  1
  In  In36  1  0.15922693  0.83801824  0.66484943  1
  In  In37  1  0.33031846  0.15010831  0.51786606  1
  In  In38  1  0.02643267  0.00961699  0.65239085  1
  In  In39  1  0.83417521  0.15970460  0.02372006  1
  In  In40  1  0.68674435  0.16893989  0.50559688  1
  In  In41  1  -0.02345622  0.66827193  0.66214017  1
  In  In42  1  0.16449200  0.15447156  0.31806330  1
  In  In43  1  0.15285209  0.13370524  -0.01419029  1
  In  In44  1  0.02216349  0.17431195  0.49032827  1
  In  In45  1  0.18853483  0.50105236  0.30763233  1
  In  In46  1  0.68119832  0.34602295  0.33492521  1
  In  In47  1  0.83774415  0.64688770  0.82834844  1
  In  In48  1  0.49298319  0.13876164  0.34158373  1
  In  In49  1  0.31388469  0.18300795  0.80000485  1
  In  In50  1  0.32707107  0.68730836  -0.00484181  1
  In  In51  1  0.36353629  0.30897381  0.33841393  1
  In  In52  1  -0.01803663  0.17800559  0.83366793  1
  In  In53  1  0.66518494  0.16149896  0.17339236  1
  In  In54  1  0.83411536  0.15647347  0.34186145  1
  In  In55  1  0.13977575  0.68759353  0.45154408  1
  In  In56  1  0.34262904  0.49991358  0.13880099  1
  In  In57  1  0.18356705  -0.01603470  0.82137594  1
  In  In58  1  -0.03955761  0.33102797  -0.01767678  1
  In  In59  1  0.32383092  0.15177840  0.17126022  1
  In  In60  1  0.16870767  -0.03616298  0.16377782  1
  In  In61  1  0.83301831  0.66790344  0.17724818  1
  In  In62  1  0.51322542  0.83408560  0.34814421  1
  In  In63  1  0.81891387  0.84360786  0.64664435  1
  In  In64  1  0.16033582  0.31654500  0.15848826  1
  In  In65  1  0.34360705  0.51060409  0.81023888  1
  In  In66  1  0.80711250  -0.00771868  0.84057537  1
  In  In67  1  0.46791246  -0.03108155  0.84606931  1
  In  In68  1  0.84742395  0.49053734  0.64514565  1
  In  In69  1  0.35209080  0.83680478  0.15260392  1
  In  In70  1  0.00036825  -0.01790126  0.02952678  1
  In  In71  1  -0.00824196  0.35185715  0.34271360  1
  Te  Te72  1  0.08563191  0.08165976  0.10774120  1
  Te  Te73  1  0.08816756  0.06232483  0.41076369  1
  Te  Te74  1  0.08576674  0.08832236  0.76625709  1
  Te  Te75  1  0.10293744  0.42753219  0.07486666  1
  Te  Te76  1  0.11160559  0.41707939  0.40768804  1
  Te  Te77  1  0.10903840  0.37807128  0.75558804  1
  Te  Te78  1  0.10447036  0.76015477  0.07902946  1
  Te  Te79  1  0.05249225  0.76750575  0.36230818  1
  Te  Te80  1  0.06789560  0.75480763  0.75841276  1
  Te  Te81  1  0.41619246  0.07773498  0.07470225  1
  Te  Te82  1  0.39639078  0.05527327  0.42029591  1
  Te  Te83  1  0.41809992  0.08061625  0.75249341  1
  Te  Te84  1  0.44404362  0.40658504  0.07977795  1
  Te  Te85  1  0.41761141  0.41974977  0.42302103  1
  Te  Te86  1  0.43361351  0.42099058  0.73892062  1
  Te  Te87  1  0.43539685  0.72440154  0.09298095  1
  Te  Te88  1  0.39236050  0.77799104  0.43870692  1
  Te  Te89  1  0.43339351  0.77298181  0.73598891  1
  Te  Te90  1  0.75176908  0.05554822  0.09868355  1
  Te  Te91  1  0.74908463  0.06856697  0.42176037  1
  Te  Te92  1  0.75381122  0.10002139  0.74705075  1
  Te  Te93  1  0.68765066  0.47544648  0.10065972  1
  Te  Te94  1  0.77325764  0.43241871  0.40962371  1
  Te  Te95  1  0.73727236  0.43505842  0.73562870  1
  Te  Te96  1  0.73551560  0.71908376  0.07534402  1
  Te  Te97  1  0.76284597  0.76042537  0.44106859  1
  Te  Te98  1  0.75845593  0.75313024  0.75137736  1
  Te  Te99  1  0.06569163  0.24950658  0.25366642  1
  Te  Te100  1  0.10116125  0.23362424  0.60132781  1
  Te  Te101  1  0.07738825  0.25172222  0.92694777  1
  Te  Te102  1  0.07028184  0.57401990  0.25166954  1
  Te  Te103  1  0.07138702  0.59760935  0.56187980  1
  Te  Te104  1  0.07834029  0.56381426  0.90769414  1
  Te  Te105  1  0.07203898  0.90354383  0.26469349  1
  Te  Te106  1  0.06772857  0.89864028  0.55983397  1
  Te  Te107  1  0.09639452  0.91790685  0.92567437  1
  Te  Te108  1  0.43802200  0.23085046  0.23246432  1
  Te  Te109  1  0.39415390  0.26471264  0.59232298  1
  Te  Te110  1  0.42441497  0.25183084  0.88603961  1
  Te  Te111  1  0.41968962  0.56419031  0.25130229  1
  Te  Te112  1  0.40555277  0.59221774  0.58381232  1
  Te  Te113  1  0.41071192  0.58133346  0.92550915  1
  Te  Te114  1  0.43186254  0.91867943  0.25139139  1
  Te  Te115  1  0.40057711  0.88485041  0.63140866  1
  Te  Te116  1  0.37459027  0.89042296  0.92793373  1
  Te  Te117  1  0.76177177  0.25084804  0.24622300  1
  Te  Te118  1  0.75176503  0.26838875  0.58816413  1
  Te  Te119  1  0.75759517  0.23014781  0.91347817  1
  Te  Te120  1  0.73542580  0.56764252  0.23140571  1
  Te  Te121  1  0.76500556  0.60335070  0.58509690  1
  Te  Te122  1  0.73620386  0.61868491  0.93287742  1
  Te  Te123  1  0.74048504  0.89084407  0.26711135  1
  Te  Te124  1  0.74282431  0.95775827  0.59493938  1
  Te  Te125  1  0.76757089  0.88030583  0.92441332  1
  Te  Te126  1  0.25722559  0.24299424  0.06475991  1
  Te  Te127  1  0.25130515  0.23764638  0.41202940  1
  Te  Te128  1  0.20907184  0.26360082  0.73433275  1
  Te  Te129  1  0.24258446  0.60728607  0.10054266  1
  Te  Te130  1  0.25346670  0.59658749  0.40457049  1
  Te  Te131  1  0.23129137  0.59777420  0.74971981  1
  Te  Te132  1  0.27114792  0.92336209  0.06308955  1
  Te  Te133  1  0.26574075  0.86855051  0.42176480  1
  Te  Te134  1  0.26996602  0.92741076  0.71210662  1
  Te  Te135  1  0.60770688  0.25035453  0.06615209  1
  Te  Te136  1  0.57855138  0.24786087  0.40613925  1
  Te  Te137  1  0.59671543  0.26458869  0.73424386  1
  Te  Te138  1  0.55943009  0.63326767  0.08582693  1
  Te  Te139  1  0.56298660  0.60450308  0.43209702  1
  Te  Te140  1  0.57091306  0.60331058  0.77152138  1
  Te  Te141  1  0.56771431  0.88487397  0.07482219  1
  Te  Te142  1  0.58030490  0.91170232  0.45327948  1
  Te  Te143  1  0.59051211  0.90959110  0.78043844  1
  Te  Te144  1  0.91456139  0.25634089  0.09780531  1
  Te  Te145  1  0.91098752  0.25527937  0.42777815  1
  Te  Te146  1  0.92942445  0.28055855  0.73589531  1
  Te  Te147  1  0.91625138  0.57707502  0.08244870  1
  Te  Te148  1  0.87353841  0.64094942  0.39568195  1
  Te  Te149  1  0.93260793  0.55442402  0.75286125  1
  Te  Te150  1  0.91738914  0.87552124  0.08331282  1
  Te  Te151  1  0.85107609  0.87714825  0.38636372  1
  Te  Te152  1  0.91885021  0.93944426  0.74424008  1
  Te  Te153  1  0.25562380  0.04993846  0.25805030  1
  Te  Te154  1  0.24042153  0.06598002  0.59690633  1
  Te  Te155  1  0.26628882  0.08100559  0.90497754  1
  Te  Te156  1  0.27047206  0.38971823  0.23574842  1
  Te  Te157  1  0.25324247  0.44161598  0.58774328  1
  Te  Te158  1  0.25590684  0.41396741  0.89575760  1
  Te  Te159  1  0.25846164  0.77500480  0.25627415  1
  Te  Te160  1  0.22440378  0.73955315  0.57143106  1
  Te  Te161  1  0.27200299  0.77925166  0.88834259  1
  Te  Te162  1  0.60129917  0.06222854  0.26821967  1
  Te  Te163  1  0.55963571  0.09375232  0.56769313  1
  Te  Te164  1  0.58291443  0.06305315  0.92698952  1
  Te  Te165  1  0.58661144  0.40380440  0.23761509  1
  Te  Te166  1  0.60064636  0.43460815  0.56250104  1
  Te  Te167  1  0.59967157  0.40444809  0.91442950  1
  Te  Te168  1  0.58380378  0.72809441  0.27027367  1
  Te  Te169  1  0.60360092  0.78534002  0.58470555  1
  Te  Te170  1  0.58610385  0.80468501  0.89569159  1
  Te  Te171  1  0.92096833  0.06796045  0.25298214  1
  Te  Te172  1  0.92522506  0.08284335  0.56568398  1
  Te  Te173  1  0.91936889  0.07031860  0.92863972  1
  Te  Te174  1  0.89454089  0.43470242  0.27000858  1
  Te  Te175  1  0.94017226  0.42544690  0.55250551  1
  Te  Te176  1  0.85702711  0.42462430  0.93639237  1
  Te  Te177  1  0.92526912  0.73154463  0.27824471  1
  Te  Te178  1  0.92658107  0.77399917  0.57459213  1
  Te  Te179  1  0.92731854  0.73235384  0.91841472  1
