# generated using pymatgen
data_In2Te3
_symmetry_space_group_name_H-M   'P 1'
_cell_length_a   18.97793989
_cell_length_b   18.99258085
_cell_length_c   18.97488081
_cell_angle_alpha   90.16028447
_cell_angle_beta   90.23028345
_cell_angle_gamma   90.01336962
_symmetry_Int_Tables_number   1
_chemical_formula_structural   In2Te3
_chemical_formula_sum   'In72 Te108'
_cell_volume   6839.22492538
_cell_formula_units_Z   36
loop_
 _symmetry_equiv_pos_site_id
 _symmetry_equiv_pos_as_xyz
  1  'x, y, z'
loop_
 _atom_site_type_symbol
 _atom_site_label
 _atom_site_symmetry_multiplicity
 _atom_site_fract_x
 _atom_site_fract_y
 _atom_site_fract_z
 _atom_site_occupancy
  In  In0  1  0.82640337  0.15127706  0.67043437  1
  In  In1  1  0.31836864  0.15789784  0.16099812  1
  In  In2  1  0.50940926  0.82158591  0.63386188  1
  In  In3  1  0.34374619  0.84659815  0.14542607  1
  In  In4  1  0.79751937  0.68444734  0.67849590  1
  In  In5  1  0.52066146  0.68676462  0.83851171  1
  In  In6  1  -0.00844500  -0.01075720  0.32928017  1
  In  In7  1  -0.00510795  0.51210096  0.84165189  1
  In  In8  1  0.15766566  0.34638690  0.49841133  1
  In  In9  1  0.51879563  0.82828397  -0.01063683  1
  In  In10  1  0.32287896  0.47080668  0.84973849  1
  In  In11  1  0.81985807  0.80711096  0.32986229  1
  In  In12  1  0.13657478  0.65955369  0.52002098  1
  In  In13  1  0.30233660  0.65346378  0.67128844  1
  In  In14  1  0.50755347  0.17543289  0.01163630  1
  In  In15  1  0.15230578  0.02026496  0.84775334  1
  In  In16  1  0.84167395  0.34544024  0.16591780  1
  In  In17  1  0.01931353  0.35409389  -0.00727744  1
  In  In18  1  0.48480127  0.17670479  0.63617750  1
  In  In19  1  -0.00201821  0.16732591  0.83707038  1
  In  In20  1  0.50493573  -0.00567982  0.83241419  1
  In  In21  1  0.83504926  -0.01128858  0.50923496  1
  In  In22  1  0.14173691  -0.03229010  0.51959568  1
  In  In23  1  0.16992555  0.00344708  0.17896342  1
  In  In24  1  0.73165394  -0.03332711  0.01185633  1
  In  In25  1  0.50533769  0.34615961  0.14356488  1
  In  In26  1  0.15935257  0.83288137  0.00179528  1
  In  In27  1  -0.04814410  0.35964648  0.35537475  1
  In  In28  1  0.00320120  0.16621840  0.18433822  1
  In  In29  1  0.64714756  -0.00437473  0.34934243  1
  In  In30  1  0.51464370  0.36569724  0.83851384  1
  In  In31  1  0.70848273  0.54347767  0.86160266  1
  In  In32  1  -0.02179975  -0.02703582  0.00828222  1
  In  In33  1  0.15073707  0.48388176  0.34640355  1
  In  In34  1  0.49260609  0.00049551  0.18397925  1
  In  In35  1  0.50428775  0.16572532  0.34644458  1
  In  In36  1  0.29936456  0.23327146  0.82965249  1
  In  In37  1  0.01559746  0.18933570  0.50291714  1
  In  In38  1  0.51039421  0.50332690  0.67973614  1
  In  In39  1  0.70242133  0.34301296  0.32250925  1
  In  In40  1  0.84923056  0.65052291  0.15063261  1
  In  In41  1  0.84002199  0.15951550  -0.00962773  1
  In  In42  1  0.32887558  0.50648084  0.49142148  1
  In  In43  1  0.82997244  0.31719653  0.82488594  1
  In  In44  1  0.16343125  0.31702443  0.16482689  1
  In  In45  1  0.16489933  0.15171319  0.30231663  1
  In  In46  1  0.34301359  0.33421613  0.34536735  1
  In  In47  1  0.16842215  0.17261162  -0.00450959  1
  In  In48  1  0.54085488  0.64288328  0.46718101  1
  In  In49  1  0.66587919  0.80963774  0.46921749  1
  In  In50  1  0.32951854  0.65599384  -0.00856913  1
  In  In51  1  0.64416155  0.17693266  0.83535874  1
  In  In52  1  0.67712540  0.49567172  0.16170727  1
  In  In53  1  -0.00409925  0.65334578  0.33882040  1
  In  In54  1  0.10598555  0.66705492  0.85737148  1
  In  In55  1  0.31664549  0.01053323  0.68192002  1
  In  In56  1  0.49604648  0.35141163  0.50822713  1
  In  In57  1  0.81667806  0.51713930  0.33631095  1
  In  In58  1  0.32824674  0.84713823  0.81489949  1
  In  In59  1  -0.07202040  0.78226709  0.79081794  1
  In  In60  1  0.12410343  0.51672272  0.67573385  1
  In  In61  1  0.67582244  -0.01391822  0.68171678  1
  In  In62  1  0.17181322  0.65850949  0.13388143  1
  In  In63  1  0.67607462  0.16312303  0.52034630  1
  In  In64  1  0.15303663  0.83522907  0.33100653  1
  In  In65  1  0.52416020  0.65796588  0.19152119  1
  In  In66  1  0.34573922  0.66434065  0.31194008  1
  In  In67  1  0.67434348  0.35504575  0.64116104  1
  In  In68  1  0.33211770  0.15103589  0.49901130  1
  In  In69  1  0.50514318  0.51532871  0.01656277  1
  In  In70  1  0.32634275  0.82003141  0.50143496  1
  In  In71  1  0.66722964  0.82561521  0.17886723  1
  Te  Te72  1  0.07942611  0.07735688  0.07267939  1
  Te  Te73  1  0.08770656  0.07593386  0.41025383  1
  Te  Te74  1  0.07128557  0.08154125  0.74340843  1
  Te  Te75  1  0.08194366  0.42254607  0.10568113  1
  Te  Te76  1  0.04683418  0.43652122  0.44652704  1
  Te  Te77  1  0.04842920  0.41331729  0.74484703  1
  Te  Te78  1  0.06927953  0.74831438  0.07937296  1
  Te  Te79  1  0.06657008  0.75760858  0.42620623  1
  Te  Te80  1  0.06524771  0.74282265  0.74090127  1
  Te  Te81  1  0.41359583  0.07618692  0.07776323  1
  Te  Te82  1  0.43203936  0.07091452  0.42970187  1
  Te  Te83  1  0.42517089  0.09254402  0.74898170  1
  Te  Te84  1  0.40782077  0.41673996  0.06124429  1
  Te  Te85  1  0.43318144  0.44214504  0.40261612  1
  Te  Te86  1  0.40771370  0.40900743  0.73845099  1
  Te  Te87  1  0.42623140  0.73741496  0.07729906  1
  Te  Te88  1  0.42323595  0.72945795  0.42543122  1
  Te  Te89  1  0.41327686  0.74721143  0.73770152  1
  Te  Te90  1  0.76568812  0.08437495  0.09075458  1
  Te  Te91  1  0.75266532  0.08152989  0.41996290  1
  Te  Te92  1  0.74680296  0.08001945  0.77708021  1
  Te  Te93  1  0.77463847  0.43500560  0.07221392  1
  Te  Te94  1  0.78007370  0.40776459  0.42901728  1
  Te  Te95  1  0.72583137  0.41627617  0.77096894  1
  Te  Te96  1  0.75942178  0.75232658  0.08900791  1
  Te  Te97  1  0.78563424  0.72383475  0.44808753  1
  Te  Te98  1  0.76993177  0.79496797  0.77795714  1
  Te  Te99  1  0.06940013  0.27050721  0.27839463  1
  Te  Te100  1  0.10487761  0.25574621  0.60553352  1
  Te  Te101  1  0.09654793  0.26551354  0.89603623  1
  Te  Te102  1  0.09627056  0.58531300  0.24853748  1
  Te  Te103  1  0.02955800  0.59334839  0.59287676  1
  Te  Te104  1  0.10098146  0.54815069  0.94071021  1
  Te  Te105  1  0.06724986  0.90440832  0.22633534  1
  Te  Te106  1  0.02858079  0.90696443  0.58964565  1
  Te  Te107  1  0.06776476  0.90612489  0.90582568  1
  Te  Te108  1  0.41513273  0.24578972  0.24415330  1
  Te  Te109  1  0.38538872  0.27374849  0.57493206  1
  Te  Te110  1  0.43689010  0.25582778  0.90331519  1
  Te  Te111  1  0.41925175  0.56628990  0.23420285  1
  Te  Te112  1  0.41216061  0.58617347  0.59172722  1
  Te  Te113  1  0.42515857  0.58116788  0.89215126  1
  Te  Te114  1  0.42475925  0.89366292  0.25824823  1
  Te  Te115  1  0.40110808  0.91764536  0.59132651  1
  Te  Te116  1  0.41142972  0.91531472  0.92096021  1
  Te  Te117  1  0.77236372  0.24383708  0.24320434  1
  Te  Te118  1  0.77531540  0.26288916  0.57793771  1
  Te  Te119  1  0.73711892  0.25363199  0.92692123  1
  Te  Te120  1  0.73269242  0.61345670  0.25424448  1
  Te  Te121  1  0.77222289  0.55659507  0.60744815  1
  Te  Te122  1  0.81805300  0.62416528  0.92781286  1
  Te  Te123  1  0.74904506  0.92259790  0.26218099  1
  Te  Te124  1  0.73669604  0.89748468  0.57684983  1
  Te  Te125  1  0.79308283  0.88720886  0.90314479  1
  Te  Te126  1  0.26713613  0.26416555  0.06817384  1
  Te  Te127  1  0.23913215  0.24461915  0.41133240  1
  Te  Te128  1  0.21984740  0.22732100  0.70903894  1
  Te  Te129  1  0.25656196  0.55737158  0.06945159  1
  Te  Te130  1  0.23808899  0.60004264  0.41252835  1
  Te  Te131  1  0.23305867  0.57282039  0.77723528  1
  Te  Te132  1  0.24906770  0.93587519  0.06786703  1
  Te  Te133  1  0.24554382  0.91778012  0.41839753  1
  Te  Te134  1  0.21650314  0.91820403  0.74568602  1
  Te  Te135  1  0.60381925  0.26044655  0.08084921  1
  Te  Te136  1  0.58928442  0.25807316  0.43292064  1
  Te  Te137  1  0.58148462  0.25906831  0.72224472  1
  Te  Te138  1  0.60907043  0.60528170  0.07871553  1
  Te  Te139  1  0.63689115  0.58876702  0.37432716  1
  Te  Te140  1  0.60630541  0.59249960  0.75641307  1
  Te  Te141  1  0.58597045  0.92433228  0.08577785  1
  Te  Te142  1  0.56473341  0.90828948  0.43182955  1
  Te  Te143  1  0.57979360  0.89119974  0.75149406  1
  Te  Te144  1  0.94089594  0.24555910  0.07033652  1
  Te  Te145  1  0.91353953  0.22820795  0.40572786  1
  Te  Te146  1  0.92583218  0.25012115  0.73114831  1
  Te  Te147  1  0.93292759  0.60142101  0.03595623  1
  Te  Te148  1  0.89493899  0.60085404  0.43357645  1
  Te  Te149  1  0.89904939  0.58811989  0.74314883  1
  Te  Te150  1  0.86072313  0.89195465  0.05371485  1
  Te  Te151  1  0.91199857  0.89700575  0.41676668  1
  Te  Te152  1  0.89617198  0.90584616  0.70788070  1
  Te  Te153  1  0.28016970  0.05895652  0.26818141  1
  Te  Te154  1  0.22703692  0.08032580  0.58179311  1
  Te  Te155  1  0.26586804  0.10000293  0.90668384  1
  Te  Te156  1  0.24909948  0.41159461  0.25629466  1
  Te  Te157  1  0.23161361  0.44462307  0.58710910  1
  Te  Te158  1  0.23921484  0.35892635  0.88942498  1
  Te  Te159  1  0.24718500  0.76005580  0.23658185  1
  Te  Te160  1  0.22541918  0.75947419  0.59601436  1
  Te  Te161  1  0.24832734  0.75034187  0.90396731  1
  Te  Te162  1  0.59212613  0.09679641  0.24545567  1
  Te  Te163  1  0.58330058  0.06859678  0.59194462  1
  Te  Te164  1  0.59084954  0.07130051  0.93021163  1
  Te  Te165  1  0.58834677  0.41406620  0.25271987  1
  Te  Te166  1  0.59401725  0.45544084  0.56132116  1
  Te  Te167  1  0.60565959  0.44389781  0.92865183  1
  Te  Te168  1  0.56829249  0.77141274  0.27291744  1
  Te  Te169  1  0.60445745  0.71725248  0.58234046  1
  Te  Te170  1  0.62146772  0.74777153  0.92442276  1
  Te  Te171  1  0.91138791  0.06354363  0.23093048  1
  Te  Te172  1  0.92791158  0.08737172  0.57820183  1
  Te  Te173  1  0.91309736  0.06092226  0.90185571  1
  Te  Te174  1  0.91774460  0.45246729  0.24184808  1
  Te  Te175  1  0.85933952  0.45821148  0.67849886  1
  Te  Te176  1  0.90260904  0.41300892  0.91715243  1
  Te  Te177  1  0.92614000  0.74650979  0.24112876  1
  Te  Te178  1  0.93371358  0.78713936  0.62587806  1
  Te  Te179  1  0.94174870  0.71847585  0.93358571  1
