# generated using pymatgen
data_In2Te3
_symmetry_space_group_name_H-M   'P 1'
_cell_length_a   18.90790409
_cell_length_b   18.89848160
_cell_length_c   18.89867647
_cell_angle_alpha   89.97230674
_cell_angle_beta   90.01895848
_cell_angle_gamma   90.01109181
_symmetry_Int_Tables_number   1
_chemical_formula_structural   In2Te3
_chemical_formula_sum   'In72 Te108'
_cell_volume   6753.07558319
_cell_formula_units_Z   36
loop_
 _symmetry_equiv_pos_site_id
 _symmetry_equiv_pos_as_xyz
  1  'x, y, z'
loop_
 _atom_site_type_symbol
 _atom_site_label
 _atom_site_symmetry_multiplicity
 _atom_site_fract_x
 _atom_site_fract_y
 _atom_site_fract_z
 _atom_site_occupancy
  In  In0  1  0.47835429  0.49457164  0.00367715  1
  In  In1  1  0.82279420  0.84783916  0.01014209  1
  In  In2  1  0.33527441  0.35034621  0.67067079  1
  In  In3  1  0.47532067  0.33618983  0.46570013  1
  In  In4  1  0.64714916  0.32158073  0.63841654  1
  In  In5  1  0.32724381  0.34729781  0.01124961  1
  In  In6  1  0.63172887  0.83182407  0.48886233  1
  In  In7  1  0.84176015  -0.00143202  0.49371785  1
  In  In8  1  0.19146379  0.16839126  0.30514109  1
  In  In9  1  0.81558795  0.49068118  0.64762884  1
  In  In10  1  0.16022217  0.47814203  0.63955121  1
  In  In11  1  0.33943981  0.69714530  0.04594481  1
  In  In12  1  0.84911454  0.32513090  0.17074261  1
  In  In13  1  0.20333693  0.68742292  0.36939684  1
  In  In14  1  0.04939792  0.52836958  0.17292076  1
  In  In15  1  0.00840785  -0.01695460  0.67944792  1
  In  In16  1  0.85797597  0.15807214  0.35142464  1
  In  In17  1  0.02513439  0.18465833  0.48515575  1
  In  In18  1  0.01958493  -0.02709143  0.03768643  1
  In  In19  1  0.63275387  0.68833607  -0.01986068  1
  In  In20  1  0.36584927  0.83430302  0.88235596  1
  In  In21  1  0.80176077  0.01551349  0.85084129  1
  In  In22  1  0.19035864  0.53928725  0.01448029  1
  In  In23  1  0.34547233  0.66617689  0.64004143  1
  In  In24  1  0.82467725  0.37841040  0.83919721  1
  In  In25  1  0.83943197  -0.02365878  0.18261932  1
  In  In26  1  0.65124568  0.33910410  0.30867664  1
  In  In27  1  0.48705658  0.82082728  0.32669700  1
  In  In28  1  0.15733589  0.85904901  0.66790545  1
  In  In29  1  0.35390453  -0.00647933  0.32711240  1
  In  In30  1  0.80152959  0.80644870  0.65754555  1
  In  In31  1  0.17299940  0.32930333  0.84273294  1
  In  In32  1  0.85985006  0.13825961  0.70477463  1
  In  In33  1  0.19548321  0.33827305  0.17828688  1
  In  In34  1  0.61827860  0.53946368  0.82393840  1
  In  In35  1  0.83584203  0.66599071  0.49453567  1
  In  In36  1  0.33006864  0.82474667  0.47671456  1
  In  In37  1  0.83197153  0.48458786  0.32311486  1
  In  In38  1  0.82684325  0.29675782  0.48432671  1
  In  In39  1  0.81194945  0.67032791  0.84258457  1
  In  In40  1  0.64333308  0.51240569  0.49470674  1
  In  In41  1  0.64674456  0.15425591  0.16044718  1
  In  In42  1  0.85619757  0.16838739  0.01252336  1
  In  In43  1  0.19324881  -0.00899978  0.49856217  1
  In  In44  1  0.49833350  0.16030186  0.65687165  1
  In  In45  1  0.34077103  -0.00537749  0.66997397  1
  In  In46  1  0.51323287  -0.07133320  0.86084916  1
  In  In47  1  0.33470234  0.16613815  0.85505735  1
  In  In48  1  -0.02161339  0.65104494  0.66491501  1
  In  In49  1  0.20735076  0.33417465  0.46410171  1
  In  In50  1  0.66318648  0.16078470  0.82428871  1
  In  In51  1  0.01655111  0.51122089  0.86543829  1
  In  In52  1  0.00857643  -0.01601358  0.31554221  1
  In  In53  1  0.66113774  0.65291370  0.34388422  1
  In  In54  1  0.48162329  0.82916758  0.65748812  1
  In  In55  1  0.03846186  0.50412697  0.47462057  1
  In  In56  1  0.65118805  0.30934551  -0.00501616  1
  In  In57  1  0.48819981  0.16878120  0.30880183  1
  In  In58  1  0.85036281  0.69223634  0.20984202  1
  In  In59  1  -0.00498824  0.32084918  0.64849136  1
  In  In60  1  0.47669533  0.16613362  0.02499063  1
  In  In61  1  0.36750678  0.52148393  0.82134983  1
  In  In62  1  0.84906916  0.52755724  0.03017539  1
  In  In63  1  0.18657526  0.66572545  0.83598323  1
  In  In64  1  0.65999073  0.82400847  0.16789939  1
  In  In65  1  0.67646096  0.15047996  0.50925532  1
  In  In66  1  0.02132834  0.15963957  0.84803797  1
  In  In67  1  0.64255883  0.48876040  0.14670245  1
  In  In68  1  0.65341056  -0.02168826  0.00870916  1
  In  In69  1  0.18625550  -0.01686971  0.16679497  1
  In  In70  1  -0.01373133  0.83634390  0.83148773  1
  In  In71  1  0.18342499  0.01416373  0.85393609  1
  Te  Te72  1  0.09234947  0.07959490  0.10347536  1
  Te  Te73  1  0.09720824  0.07934057  0.40366204  1
  Te  Te74  1  0.10004829  0.08551646  0.74141076  1
  Te  Te75  1  0.11085610  0.42758104  0.07882102  1
  Te  Te76  1  0.11684605  0.42018105  0.38151191  1
  Te  Te77  1  0.07125603  0.42195193  0.75265140  1
  Te  Te78  1  0.14436044  0.77792395  0.13078375  1
  Te  Te79  1  0.06104609  0.73433948  0.39126864  1
  Te  Te80  1  0.07749721  0.74333140  0.75030390  1
  Te  Te81  1  0.40387528  0.05302172  0.08038560  1
  Te  Te82  1  0.40699431  0.10201394  0.41488635  1
  Te  Te83  1  0.42412171  0.07987513  0.76524039  1
  Te  Te84  1  0.40370537  0.42544934  0.11130253  1
  Te  Te85  1  0.39312712  0.40362082  0.36169119  1
  Te  Te86  1  0.43594099  0.40776976  0.76098547  1
  Te  Te87  1  0.42829394  0.80255492  0.10086761  1
  Te  Te88  1  0.41770993  0.72161245  0.41608379  1
  Te  Te89  1  0.39642133  0.74887079  0.75597427  1
  Te  Te90  1  0.75889384  0.07145640  0.07989346  1
  Te  Te91  1  0.74352100  0.07116654  0.39842518  1
  Te  Te92  1  0.72750235  0.06376178  0.72743353  1
  Te  Te93  1  0.74875437  0.39952563  0.07978633  1
  Te  Te94  1  0.74471808  0.41173180  0.42706693  1
  Te  Te95  1  0.71316273  0.42612633  0.74034646  1
  Te  Te96  1  0.74850392  0.73413203  0.08008162  1
  Te  Te97  1  0.74596771  0.75564192  0.41202350  1
  Te  Te98  1  0.71664879  0.72796956  0.74782593  1
  Te  Te99  1  0.09217331  0.26220436  0.25271610  1
  Te  Te100  1  0.11468578  0.26722013  0.57537158  1
  Te  Te101  1  0.08715198  0.25600126  0.93595317  1
  Te  Te102  1  0.09399121  0.61533459  0.28486918  1
  Te  Te103  1  0.09316237  0.60160783  0.57738038  1
  Te  Te104  1  0.08278014  0.62227258  0.94264523  1
  Te  Te105  1  0.09456303  0.88625406  0.24140578  1
  Te  Te106  1  0.06960482  0.91654906  0.55772248  1
  Te  Te107  1  0.08724034  0.91005440  0.91631346  1
  Te  Te108  1  0.44200637  0.27287122  0.21663356  1
  Te  Te109  1  0.40943047  0.25363641  0.57690500  1
  Te  Te110  1  0.42466242  0.26736508  0.92432092  1
  Te  Te111  1  0.34010022  0.55739709  0.31541574  1
  Te  Te112  1  0.44403661  0.56697492  0.59572698  1
  Te  Te113  1  0.40918937  0.61045025  0.93428643  1
  Te  Te114  1  0.38569799  0.88001479  0.23062979  1
  Te  Te115  1  0.41300118  0.92310486  0.55703372  1
  Te  Te116  1  0.39772404  0.96527310  0.95181819  1
  Te  Te117  1  0.75125836  0.23578852  0.24935583  1
  Te  Te118  1  0.77453180  0.24090801  0.61482381  1
  Te  Te119  1  0.76353355  0.24248945  0.90813041  1
  Te  Te120  1  0.74750707  0.57325313  0.23327912  1
  Te  Te121  1  0.73055500  0.59902883  0.58502134  1
  Te  Te122  1  0.73881502  0.57088280  0.93264852  1
  Te  Te123  1  0.73638276  0.90875605  0.26079024  1
  Te  Te124  1  0.74090362  0.91322377  0.56873731  1
  Te  Te125  1  0.72815973  0.89441608  0.90110741  1
  Te  Te126  1  0.25451001  0.24101746  0.08227240  1
  Te  Te127  1  0.28695657  0.22238766  0.40620249  1
  Te  Te128  1  0.25557157  0.24522619  0.74930671  1
  Te  Te129  1  0.27566689  0.58844607  0.12611214  1
  Te  Te130  1  0.29563298  0.60072636  0.44983360  1
  Te  Te131  1  0.24576708  0.57222671  0.73178749  1
  Te  Te132  1  0.22943235  0.88170752  0.06486826  1
  Te  Te133  1  0.24099929  0.90587272  0.38408146  1
  Te  Te134  1  0.25857411  0.90665492  0.77115278  1
  Te  Te135  1  0.55611501  0.27597337  0.11357087  1
  Te  Te136  1  0.59766617  0.24792088  0.41979457  1
  Te  Te137  1  0.57068274  0.25640018  0.75298788  1
  Te  Te138  1  0.56046385  0.59987264  0.08141168  1
  Te  Te139  1  0.54999276  0.56750486  0.39394013  1
  Te  Te140  1  0.52207258  0.59206461  0.72698807  1
  Te  Te141  1  0.55587607  0.90037182  0.08993880  1
  Te  Te142  1  0.56817435  0.92364792  0.39364190  1
  Te  Te143  1  0.57500090  0.91889873  0.73007185  1
  Te  Te144  1  0.94788356  0.25022447  0.09103303  1
  Te  Te145  1  0.94535744  0.27758190  0.39326935  1
  Te  Te146  1  0.92540361  0.26195468  0.77061002  1
  Te  Te147  1  0.94008042  0.62022756  0.10898510  1
  Te  Te148  1  0.92008096  0.57554305  0.40673987  1
  Te  Te149  1  0.90189544  0.56510111  0.76487328  1
  Te  Te150  1  0.93115685  0.87551465  0.11333011  1
  Te  Te151  1  0.90709802  0.90797693  0.39505465  1
  Te  Te152  1  0.88969941  0.91300462  0.74309534  1
  Te  Te153  1  0.28918923  0.08544267  0.22245236  1
  Te  Te154  1  0.24962330  0.08307095  0.59618671  1
  Te  Te155  1  0.23790406  0.10981470  0.95286163  1
  Te  Te156  1  0.25827045  0.42789968  0.28285616  1
  Te  Te157  1  0.27798479  0.43475266  0.55543547  1
  Te  Te158  1  0.25117649  0.44390503  0.90566526  1
  Te  Te159  1  0.24847460  0.72192011  0.23031363  1
  Te  Te160  1  0.23921580  0.76293453  0.58504261  1
  Te  Te161  1  0.24213374  0.76181830  0.93932090  1
  Te  Te162  1  0.55673999  0.06361219  0.23007666  1
  Te  Te163  1  0.57413184  0.06819649  0.57161836  1
  Te  Te164  1  0.58581857  0.09500055  0.93614917  1
  Te  Te165  1  0.56232033  0.44977563  0.26592160  1
  Te  Te166  1  0.55169181  0.41988050  0.57440277  1
  Te  Te167  1  0.58338713  0.42136179  0.91920213  1
  Te  Te168  1  0.57295288  0.72422066  0.24314086  1
  Te  Te169  1  0.55560956  0.73543753  0.56927996  1
  Te  Te170  1  0.54811092  0.78569908  0.90970845  1
  Te  Te171  1  0.92827822  0.08870026  0.23711765  1
  Te  Te172  1  0.93386972  0.09671372  0.57376445  1
  Te  Te173  1  0.92801017  0.05797776  0.92148735  1
  Te  Te174  1  0.93885116  0.43301905  0.23024204  1
  Te  Te175  1  0.92800986  0.42940464  0.56603813  1
  Te  Te176  1  0.92601265  0.42412758  0.95123042  1
  Te  Te177  1  0.93294425  0.76478323  0.30639687  1
  Te  Te178  1  0.92288756  0.76122695  0.57669245  1
  Te  Te179  1  0.90964411  0.74849727  0.92773471  1
