# generated using pymatgen
data_In2Te3
_symmetry_space_group_name_H-M   'P 1'
_cell_length_a   19.02248462
_cell_length_b   19.00594967
_cell_length_c   18.99458880
_cell_angle_alpha   89.95478261
_cell_angle_beta   90.06206559
_cell_angle_gamma   90.12345111
_symmetry_Int_Tables_number   1
_chemical_formula_structural   In2Te3
_chemical_formula_sum   'In72 Te108'
_cell_volume   6867.28885868
_cell_formula_units_Z   36
loop_
 _symmetry_equiv_pos_site_id
 _symmetry_equiv_pos_as_xyz
  1  'x, y, z'
loop_
 _atom_site_type_symbol
 _atom_site_label
 _atom_site_symmetry_multiplicity
 _atom_site_fract_x
 _atom_site_fract_y
 _atom_site_fract_z
 _atom_site_occupancy
  In  In0  1  0.49353490  0.17177415  0.33390796  1
  In  In1  1  0.82591767  0.02516471  0.51229272  1
  In  In2  1  0.02011019  0.17331766  0.17876404  1
  In  In3  1  0.71344401  0.37265324  0.63416473  1
  In  In4  1  -0.01547279  0.20667311  0.50233365  1
  In  In5  1  0.16338364  0.18140160  -0.00597545  1
  In  In6  1  0.84071700  0.20034392  0.66262214  1
  In  In7  1  0.67085859  0.17692730  0.83011697  1
  In  In8  1  0.14195042  0.49305848  -0.01842014  1
  In  In9  1  -0.00065136  0.17341747  0.81018834  1
  In  In10  1  0.85266131  0.00313414  0.18396142  1
  In  In11  1  0.17023528  -0.00500751  0.52527930  1
  In  In12  1  0.66423423  0.00923199  0.68194151  1
  In  In13  1  0.50327700  -0.02532600  0.53584955  1
  In  In14  1  0.32774105  0.17676392  0.48437653  1
  In  In15  1  0.50799438  0.63689754  0.86803635  1
  In  In16  1  0.68037503  0.50761991  0.82951138  1
  In  In17  1  0.01128911  0.00482829  0.35982916  1
  In  In18  1  0.30909227  0.68510377  0.33681569  1
  In  In19  1  0.32504535  0.02011320  -0.00516742  1
  In  In20  1  0.14183736  0.63345381  0.81546205  1
  In  In21  1  0.64368797  0.00406077  -0.01672244  1
  In  In22  1  0.68424173  0.66219453  0.00864211  1
  In  In23  1  0.16188916  0.33400928  0.50730095  1
  In  In24  1  0.31923778  0.83246927  0.49435894  1
  In  In25  1  0.67730825  -0.00418683  0.36358800  1
  In  In26  1  -0.02009219  -0.00749575  0.00251056  1
  In  In27  1  -0.01389536  0.32238160  -0.01721408  1
  In  In28  1  0.54461232  0.35029456  0.49975516  1
  In  In29  1  0.68941762  0.83430466  0.81971623  1
  In  In30  1  0.36459940  0.35353255  0.27809404  1
  In  In31  1  0.16817237  -0.01534799  0.18741753  1
  In  In32  1  0.83370537  0.81493582  0.34013659  1
  In  In33  1  0.69144934  0.34130912  0.01467369  1
  In  In34  1  0.86098405  0.51789417  0.50774584  1
  In  In35  1  0.30833839  0.64128851  -0.03582838  1
  In  In36  1  0.34206641  0.68205733  0.64958534  1
  In  In37  1  0.85796216  0.38673093  0.20968613  1
  In  In38  1  0.51023433  0.33991902  0.83023502  1
  In  In39  1  0.15232621  0.64915109  0.16337015  1
  In  In40  1  0.84966459  0.80935585  0.68317140  1
  In  In41  1  0.64582203  0.67894216  0.33043457  1
  In  In42  1  0.51374759  0.49372742  0.29426838  1
  In  In43  1  0.66165526  0.82588930  0.51296822  1
  In  In44  1  0.31959765  0.00700408  0.32895013  1
  In  In45  1  0.15571280  0.82418602  0.67579602  1
  In  In46  1  0.50982864  0.81347838  0.68095633  1
  In  In47  1  0.14306976  0.32676295  0.16144249  1
  In  In48  1  0.33111047  0.48374210  0.82459386  1
  In  In49  1  0.31639483  0.83431545  0.83932374  1
  In  In50  1  0.68336711  0.50058913  0.16565837  1
  In  In51  1  0.34752661  0.17638823  0.82860327  1
  In  In52  1  0.13919382  0.83290471  0.02534334  1
  In  In53  1  0.15149995  0.17631546  0.31456674  1
  In  In54  1  0.81183268  0.83143200  0.01078929  1
  In  In55  1  0.51851083  0.16704471  0.67966033  1
  In  In56  1  0.34801577  0.50588416  0.48449759  1
  In  In57  1  0.68774080  0.35106827  0.32521057  1
  In  In58  1  -0.00049158  0.63633322  0.62655143  1
  In  In59  1  0.85311637  0.65531531  0.18784668  1
  In  In60  1  0.47841783  -0.00719560  0.16025296  1
  In  In61  1  0.81163481  0.17435627  -0.00866443  1
  In  In62  1  0.01881555  0.80446741  0.47827190  1
  In  In63  1  -0.00019978  0.48389446  0.80621020  1
  In  In64  1  0.14934181  0.49030442  0.34455717  1
  In  In65  1  0.36423871  0.32637520  0.66907328  1
  In  In66  1  0.32641644  0.79572271  0.17506670  1
  In  In67  1  0.50211082  0.65690980  0.17554414  1
  In  In68  1  -0.02325390  0.82116711  0.86369233  1
  In  In69  1  0.49063317  0.83622315  0.00564756  1
  In  In70  1  0.66688780  0.17046127  0.17645951  1
  In  In71  1  0.16630044  0.16912930  0.65635190  1
  Te  Te72  1  0.08688341  0.07112831  0.08389419  1
  Te  Te73  1  0.09850522  0.10679176  0.44102133  1
  Te  Te74  1  0.08227129  0.07947212  0.73466332  1
  Te  Te75  1  0.05323505  0.41671885  0.07990067  1
  Te  Te76  1  0.06587411  0.43940313  0.46049583  1
  Te  Te77  1  0.11491065  0.45337661  0.72110061  1
  Te  Te78  1  0.05016369  0.72624141  0.08093744  1
  Te  Te79  1  0.06881693  0.68202960  0.41600401  1
  Te  Te80  1  0.05430240  0.73689619  0.74686046  1
  Te  Te81  1  0.41922974  0.09558289  0.07645392  1
  Te  Te82  1  0.42066124  0.06384051  0.42671192  1
  Te  Te83  1  0.42167958  0.08162815  0.74469459  1
  Te  Te84  1  0.42777086  0.44491128  0.17755375  1
  Te  Te85  1  0.43169176  0.40037611  0.41024322  1
  Te  Te86  1  0.44376117  0.43674240  0.73331356  1
  Te  Te87  1  0.39997989  0.72670176  0.06025096  1
  Te  Te88  1  0.41046830  0.74694746  0.42082459  1
  Te  Te89  1  0.41591067  0.73358053  0.78450616  1
  Te  Te90  1  0.75364920  0.06916215  0.08801441  1
  Te  Te91  1  0.76527231  0.10369920  0.40617398  1
  Te  Te92  1  0.76687888  0.09287928  0.75074258  1
  Te  Te93  1  0.79317277  0.43666909  0.08385370  1
  Te  Te94  1  0.77424823  0.42141210  0.42191205  1
  Te  Te95  1  0.78881750  0.47258880  0.71969774  1
  Te  Te96  1  0.74681051  0.74531182  0.11655547  1
  Te  Te97  1  0.74753998  0.73176144  0.43191686  1
  Te  Te98  1  0.73301467  0.73149757  0.72601048  1
  Te  Te99  1  0.05097238  0.28352460  0.27889892  1
  Te  Te100  1  0.06723798  0.27499085  0.61057571  1
  Te  Te101  1  0.09145761  0.26519351  0.89153076  1
  Te  Te102  1  0.06481255  0.54921199  0.23356063  1
  Te  Te103  1  0.09902571  0.53169140  0.59607602  1
  Te  Te104  1  0.04330604  0.58790265  0.91896203  1
  Te  Te105  1  0.06028407  0.91476693  0.25491781  1
  Te  Te106  1  0.06411438  0.90487511  0.58321405  1
  Te  Te107  1  0.08241077  0.92147269  0.91746031  1
  Te  Te108  1  0.42157218  0.22993147  0.22279427  1
  Te  Te109  1  0.44005726  0.24544389  0.56300874  1
  Te  Te110  1  0.41026833  0.27633270  0.91436151  1
  Te  Te111  1  0.38707884  0.59097898  0.24894107  1
  Te  Te112  1  0.42760425  0.59358108  0.57189879  1
  Te  Te113  1  0.41654293  0.53850190  0.93874500  1
  Te  Te114  1  0.40082886  0.90241171  0.25462805  1
  Te  Te115  1  0.40062283  0.89360462  0.60858477  1
  Te  Te116  1  0.41283057  0.92616680  0.91323202  1
  Te  Te117  1  0.77591281  0.26301453  0.23743776  1
  Te  Te118  1  0.73855192  0.24470675  0.56828243  1
  Te  Te119  1  0.76137455  0.27940580  0.89465605  1
  Te  Te120  1  0.74845447  0.58215281  0.27168854  1
  Te  Te121  1  0.75055787  0.55881501  0.59893533  1
  Te  Te122  1  0.77090153  0.58998862  0.91567074  1
  Te  Te123  1  0.75386533  0.91575969  0.25973608  1
  Te  Te124  1  0.75068078  0.91800377  0.59551286  1
  Te  Te125  1  0.75672003  0.93418333  0.91240398  1
  Te  Te126  1  0.24597060  0.26642258  0.07800455  1
  Te  Te127  1  0.24663829  0.26645214  0.39611867  1
  Te  Te128  1  0.25278797  0.25984100  0.74342824  1
  Te  Te129  1  0.24103182  0.56398055  0.07438324  1
  Te  Te130  1  0.23466706  0.58689052  0.42556158  1
  Te  Te131  1  0.26049280  0.58650558  0.73722593  1
  Te  Te132  1  0.26066800  0.90504612  0.08295110  1
  Te  Te133  1  0.22630395  0.91769589  0.40794931  1
  Te  Te134  1  0.24125804  0.91808705  0.74733545  1
  Te  Te135  1  0.60179468  0.23486426  0.06256787  1
  Te  Te136  1  0.60259869  0.24889091  0.40292470  1
  Te  Te137  1  0.60768731  0.27962994  0.72822372  1
  Te  Te138  1  0.58315984  0.57433396  0.07940442  1
  Te  Te139  1  0.58007464  0.56798500  0.40068691  1
  Te  Te140  1  0.59438807  0.60291726  0.75676611  1
  Te  Te141  1  0.58870018  0.91292820  0.09095384  1
  Te  Te142  1  0.57032566  0.90370760  0.42042604  1
  Te  Te143  1  0.57591411  0.92070521  0.76579039  1
  Te  Te144  1  0.91653111  0.23441603  0.08475769  1
  Te  Te145  1  0.88699484  0.30520249  0.44813500  1
  Te  Te146  1  0.91424705  0.28301403  0.75932594  1
  Te  Te147  1  0.94188817  0.61586445  0.07931840  1
  Te  Te148  1  0.94613574  0.59560469  0.40523368  1
  Te  Te149  1  0.91218950  0.58192676  0.73344193  1
  Te  Te150  1  0.91845043  0.89507241  0.09988163  1
  Te  Te151  1  0.90768915  0.91864943  0.43147050  1
  Te  Te152  1  0.91334438  0.91004840  0.76620184  1
  Te  Te153  1  0.25368867  0.10145847  0.23100473  1
  Te  Te154  1  0.27499192  0.08299087  0.59036960  1
  Te  Te155  1  0.23537670  0.09018918  0.89862819  1
  Te  Te156  1  0.23299368  0.42129221  0.23988982  1
  Te  Te157  1  0.27502806  0.40803917  0.57626542  1
  Te  Te158  1  0.22190453  0.41058934  0.88986301  1
  Te  Te159  1  0.20413707  0.75921884  0.25523371  1
  Te  Te160  1  0.22577484  0.74020906  0.57226091  1
  Te  Te161  1  0.20952154  0.74448424  0.91536100  1
  Te  Te162  1  0.58323681  0.06822199  0.25501076  1
  Te  Te163  1  0.59534783  0.08802847  0.57295786  1
  Te  Te164  1  0.57095327  0.10508954  0.90837298  1
  Te  Te165  1  0.59369045  0.38781080  0.21343505  1
  Te  Te166  1  0.60840421  0.45965989  0.57516464  1
  Te  Te167  1  0.59825476  0.42138378  0.92426751  1
  Te  Te168  1  0.56510281  0.76663346  0.24511366  1
  Te  Te169  1  0.57515222  0.72933294  0.58218572  1
  Te  Te170  1  0.59474971  0.76039528  0.92359739  1
  Te  Te171  1  0.92718031  0.09870108  0.27489528  1
  Te  Te172  1  0.93220035  0.09573801  0.59136431  1
  Te  Te173  1  0.91531849  0.09532659  0.91482734  1
  Te  Te174  1  0.93273497  0.48457949  0.28979268  1
  Te  Te175  1  0.92826294  0.39555413  0.56068558  1
  Te  Te176  1  0.90755005  0.41174743  0.89658570  1
  Te  Te177  1  0.94067540  0.73255557  0.28172581  1
  Te  Te178  1  0.90930404  0.74043288  0.56293105  1
  Te  Te179  1  0.87088586  0.73281605  0.91701496  1
