# generated using pymatgen
data_In2Te3
_symmetry_space_group_name_H-M   'P 1'
_cell_length_a   18.99070854
_cell_length_b   19.01595361
_cell_length_c   19.04525209
_cell_angle_alpha   89.84489030
_cell_angle_beta   90.01110654
_cell_angle_gamma   89.94814728
_symmetry_Int_Tables_number   1
_chemical_formula_structural   In2Te3
_chemical_formula_sum   'In72 Te108'
_cell_volume   6877.71579642
_cell_formula_units_Z   36
loop_
 _symmetry_equiv_pos_site_id
 _symmetry_equiv_pos_as_xyz
  1  'x, y, z'
loop_
 _atom_site_type_symbol
 _atom_site_label
 _atom_site_symmetry_multiplicity
 _atom_site_fract_x
 _atom_site_fract_y
 _atom_site_fract_z
 _atom_site_occupancy
  In  In0  1  0.02368245  0.17489344  0.80614693  1
  In  In1  1  0.49031341  0.18212273  0.32474556  1
  In  In2  1  0.83815564  -0.01304195  0.50955485  1
  In  In3  1  0.63485265  0.18893643  0.84614905  1
  In  In4  1  0.32933351  0.16312089  0.17915497  1
  In  In5  1  0.83910927  0.80990316  0.01689654  1
  In  In6  1  0.18449961  0.81749479  0.31288731  1
  In  In7  1  0.41214059  0.80804386  0.27839117  1
  In  In8  1  0.36709100  0.01043444  0.68880407  1
  In  In9  1  0.82767634  0.48216707  0.67476356  1
  In  In10  1  0.17916257  -0.00754070  0.51373016  1
  In  In11  1  0.52171753  0.86058469  0.67665607  1
  In  In12  1  0.00570842  0.20467771  0.17013749  1
  In  In13  1  0.65886937  0.68095149  0.68556951  1
  In  In14  1  -0.00965639  0.34254077  0.34879320  1
  In  In15  1  0.65955040  -0.00297414  0.02868751  1
  In  In16  1  0.46218507  0.31150268  0.52815487  1
  In  In17  1  0.64444289  0.52484473  0.86486575  1
  In  In18  1  0.64140757  0.02257313  0.31954574  1
  In  In19  1  0.02708937  -0.01961572  -0.00858607  1
  In  In20  1  0.67326238  0.67490889  0.34542406  1
  In  In21  1  0.50788446  0.65488589  0.15122143  1
  In  In22  1  0.82574741  0.49189600  0.33045594  1
  In  In23  1  -0.01179333  0.51509142  0.81074744  1
  In  In24  1  0.82797063  0.16635790  0.67312084  1
  In  In25  1  0.01978690  0.01436700  0.35014993  1
  In  In26  1  0.19426617  0.00875415  0.85248170  1
  In  In27  1  0.47551392  0.03121732  0.49040197  1
  In  In28  1  0.83867905  0.13877926  -0.00913832  1
  In  In29  1  0.16975791  0.50720554  0.65874201  1
  In  In30  1  0.50346958  0.19311037  0.02615186  1
  In  In31  1  0.48445834  0.50950405  0.00031252  1
  In  In32  1  0.66620651  0.81301972  0.15655680  1
  In  In33  1  -0.00246628  0.81125159  0.46185109  1
  In  In34  1  -0.00689440  0.65720205  0.26620125  1
  In  In35  1  0.19260581  0.13261391  0.00290817  1
  In  In36  1  0.79380730  0.32679703  0.16410464  1
  In  In37  1  0.32670428  0.34224714  0.34048896  1
  In  In38  1  0.17932143  0.35535589  0.18765259  1
  In  In39  1  0.33014331  0.67171171  0.67103037  1
  In  In40  1  0.03493818  0.51679129  0.49426355  1
  In  In41  1  0.80831749  0.80882720  0.67554693  1
  In  In42  1  0.02063583  0.66839591  0.01934253  1
  In  In43  1  0.82791842  0.65277132  0.49576833  1
  In  In44  1  0.23657983  0.34680291  0.80133091  1
  In  In45  1  0.66382014  0.36145282  -0.00328596  1
  In  In46  1  0.61557463  0.82835956  0.88375789  1
  In  In47  1  0.32047942  0.82587161  0.48484513  1
  In  In48  1  0.01150233  0.33269933  -0.03128742  1
  In  In49  1  0.00054205  -0.01561747  0.68118766  1
  In  In50  1  0.53059682  0.47612460  0.30947393  1
  In  In51  1  0.19282463  0.30956415  0.50270241  1
  In  In52  1  0.16879947  0.50870881  0.02087318  1
  In  In53  1  0.65336907  0.87043940  0.50663674  1
  In  In54  1  0.82143040  0.66192492  0.15670621  1
  In  In55  1  0.65959646  0.16235579  0.51438524  1
  In  In56  1  0.81486252  0.00956953  0.17959438  1
  In  In57  1  0.02938585  0.35546564  0.64222966  1
  In  In58  1  0.45886161  0.48527199  0.68493772  1
  In  In59  1  0.84543301  0.35802132  0.84875849  1
  In  In60  1  0.31724904  0.52688322  0.47705072  1
  In  In61  1  0.18625033  0.68185252  0.82917523  1
  In  In62  1  0.66000952  0.30719973  0.66204835  1
  In  In63  1  0.16868219  0.66145809  0.16408723  1
  In  In64  1  0.23095092  -0.04045670  0.15765987  1
  In  In65  1  0.81347703  -0.00367376  0.82419737  1
  In  In66  1  0.65904441  0.47781071  0.48926018  1
  In  In67  1  0.35296865  0.81187176  0.85937755  1
  In  In68  1  -0.00179850  0.81904131  0.16528998  1
  In  In69  1  0.34920160  0.33353896  0.00515736  1
  In  In70  1  0.83558659  0.19009044  0.33983306  1
  In  In71  1  0.16503905  0.83628704  0.67987992  1
  Te  Te72  1  0.06529858  0.09437047  0.07826440  1
  Te  Te73  1  0.09660245  0.09288155  0.44371886  1
  Te  Te74  1  0.10969968  0.07145676  0.73813993  1
  Te  Te75  1  0.07680094  0.40647862  0.08337335  1
  Te  Te76  1  0.10623127  0.40957057  0.42038345  1
  Te  Te77  1  0.09197776  0.40945919  0.76823276  1
  Te  Te78  1  0.11132784  0.77413139  0.07658545  1
  Te  Te79  1  0.10667441  0.72413995  0.40360634  1
  Te  Te80  1  0.07938044  0.73701328  0.74430555  1
  Te  Te81  1  0.43329941  0.08775959  0.10477654  1
  Te  Te82  1  0.38789568  0.09694196  0.39118466  1
  Te  Te83  1  0.46275106  0.11317952  0.72977297  1
  Te  Te84  1  0.41540090  0.42396689  0.09791881  1
  Te  Te85  1  0.42797668  0.41893474  0.42516157  1
  Te  Te86  1  0.37801547  0.37754450  0.74538894  1
  Te  Te87  1  0.46539934  0.76729791  0.05764110  1
  Te  Te88  1  0.41065370  0.74173975  0.40779138  1
  Te  Te89  1  0.43158217  0.75563228  0.74339987  1
  Te  Te90  1  0.73590767  0.11006305  0.09854151  1
  Te  Te91  1  0.74665922  0.07452916  0.41888904  1
  Te  Te92  1  0.72423577  0.09771251  0.75694631  1
  Te  Te93  1  0.75888844  0.43794564  0.07626409  1
  Te  Te94  1  0.75576864  0.39803416  0.41741069  1
  Te  Te95  1  0.72949391  0.40146961  0.75792558  1
  Te  Te96  1  0.72484538  0.71760079  0.05345197  1
  Te  Te97  1  0.74667276  0.76810228  0.43809335  1
  Te  Te98  1  0.72348176  0.76191270  0.79355109  1
  Te  Te99  1  0.09701669  0.25957932  0.27378981  1
  Te  Te100  1  0.09682670  0.23889377  0.59004496  1
  Te  Te101  1  0.11137569  0.23481276  0.91192131  1
  Te  Te102  1  0.10131114  0.56103303  0.24898111  1
  Te  Te103  1  0.06752066  0.59986432  0.60938485  1
  Te  Te104  1  0.08996327  0.58108743  0.90822216  1
  Te  Te105  1  0.07964270  0.91228051  0.25187231  1
  Te  Te106  1  0.06512246  0.90130425  0.56605578  1
  Te  Te107  1  0.10527067  0.90165512  0.89950384  1
  Te  Te108  1  0.41263782  0.27639452  0.23499143  1
  Te  Te109  1  0.37843859  0.20450376  0.58896776  1
  Te  Te110  1  0.41090135  0.23272403  0.91717152  1
  Te  Te111  1  0.43508589  0.56608248  0.24476980  1
  Te  Te112  1  0.41602846  0.58639990  0.58062322  1
  Te  Te113  1  0.41938818  0.60833241  0.91080346  1
  Te  Te114  1  0.37194951  0.92509800  0.20001647  1
  Te  Te115  1  0.41299488  0.91027942  0.57562940  1
  Te  Te116  1  0.41624923  0.90073875  0.95808376  1
  Te  Te117  1  0.72119076  0.25227281  0.27001658  1
  Te  Te118  1  0.76653281  0.25687755  0.56809516  1
  Te  Te119  1  0.75797681  0.24728496  0.91659535  1
  Te  Te120  1  0.73362188  0.57808613  0.24716193  1
  Te  Te121  1  0.73493115  0.57862849  0.59030606  1
  Te  Te122  1  0.78159252  0.56912605  0.87589807  1
  Te  Te123  1  0.72807643  0.91470068  0.25558511  1
  Te  Te124  1  0.74298295  0.93069349  0.61262360  1
  Te  Te125  1  0.75676230  0.91805816  0.94113270  1
  Te  Te126  1  0.23755968  0.25526574  0.08640467  1
  Te  Te127  1  0.27508975  0.22389379  0.41343220  1
  Te  Te128  1  0.28040098  0.24996563  0.70079478  1
  Te  Te129  1  0.27130961  0.59484897  0.08045108  1
  Te  Te130  1  0.21355848  0.61109743  0.42168768  1
  Te  Te131  1  0.26232043  0.57022190  0.75963566  1
  Te  Te132  1  0.27933037  0.92152451  0.02579923  1
  Te  Te133  1  0.24991607  0.92644241  0.39754191  1
  Te  Te134  1  0.27416849  0.90546877  0.75761896  1
  Te  Te135  1  0.57863388  0.29895533  0.10289798  1
  Te  Te136  1  0.56757440  0.25270213  0.43580839  1
  Te  Te137  1  0.54731373  0.24473166  0.73702724  1
  Te  Te138  1  0.59727589  0.56379428  0.07828538  1
  Te  Te139  1  0.57960507  0.58196831  0.41776837  1
  Te  Te140  1  0.56735028  0.57751211  0.74665483  1
  Te  Te141  1  0.56511364  0.89921472  0.08949618  1
  Te  Te142  1  0.55755913  0.93145055  0.40676404  1
  Te  Te143  1  0.57978044  0.93230018  0.78868303  1
  Te  Te144  1  0.91223838  0.25607886  0.06160212  1
  Te  Te145  1  0.93031891  0.24181173  0.43575786  1
  Te  Te146  1  0.91623449  0.26889691  0.74595406  1
  Te  Te147  1  0.95058937  0.59133815  0.12793619  1
  Te  Te148  1  0.92561405  0.58772255  0.39901127  1
  Te  Te149  1  0.87601252  0.59903932  0.75500654  1
  Te  Te150  1  0.91200686  0.92882163  0.09006705  1
  Te  Te151  1  0.91123685  0.91857342  0.39655850  1
  Te  Te152  1  0.90646116  0.89616884  0.75902924  1
  Te  Te153  1  0.21385809  0.08627610  0.22642811  1
  Te  Te154  1  0.27585176  0.07740371  0.58997750  1
  Te  Te155  1  0.29508893  0.10663861  0.89948965  1
  Te  Te156  1  0.26436152  0.44872723  0.25955052  1
  Te  Te157  1  0.26216279  0.42522806  0.57445939  1
  Te  Te158  1  0.25795477  0.42667161  0.92735633  1
  Te  Te159  1  0.28156466  0.74001941  0.22983889  1
  Te  Te160  1  0.23443707  0.74551679  0.58071231  1
  Te  Te161  1  0.28732746  0.70170699  0.93918146  1
  Te  Te162  1  0.55608160  0.09444280  0.22342953  1
  Te  Te163  1  0.57130799  0.07535365  0.59375740  1
  Te  Te164  1  0.57574196  0.08524055  0.93832592  1
  Te  Te165  1  0.60918327  0.37709725  0.23537241  1
  Te  Te166  1  0.56903950  0.41234699  0.59528262  1
  Te  Te167  1  0.55793974  0.40828105  0.90151203  1
  Te  Te168  1  0.57360291  0.75197952  0.26179072  1
  Te  Te169  1  0.58153188  0.75805376  0.58015331  1
  Te  Te170  1  0.53161926  0.71389688  0.93192659  1
  Te  Te171  1  0.92131570  0.09627042  0.24717316  1
  Te  Te172  1  0.92293668  0.08044240  0.59232174  1
  Te  Te173  1  0.93263407  0.07893980  0.88705734  1
  Te  Te174  1  0.90560675  0.40228746  0.23903944  1
  Te  Te175  1  0.92465178  0.43483203  0.56956243  1
  Te  Te176  1  0.92126397  0.45498942  0.93494515  1
  Te  Te177  1  0.88552239  0.76317732  0.24975098  1
  Te  Te178  1  0.90836145  0.75305988  0.57551174  1
  Te  Te179  1  0.92894137  0.73771595  0.92942065  1
