# generated using pymatgen
data_In2Te3
_symmetry_space_group_name_H-M   'P 1'
_cell_length_a   18.81917216
_cell_length_b   18.81216600
_cell_length_c   18.81668325
_cell_angle_alpha   90.01173985
_cell_angle_beta   89.96131491
_cell_angle_gamma   89.95156303
_symmetry_Int_Tables_number   1
_chemical_formula_structural   In2Te3
_chemical_formula_sum   'In72 Te108'
_cell_volume   6661.65486398
_cell_formula_units_Z   36
loop_
 _symmetry_equiv_pos_site_id
 _symmetry_equiv_pos_as_xyz
  1  'x, y, z'
loop_
 _atom_site_type_symbol
 _atom_site_label
 _atom_site_symmetry_multiplicity
 _atom_site_fract_x
 _atom_site_fract_y
 _atom_site_fract_z
 _atom_site_occupancy
  In  In0  1  0.65446110  0.65969335  0.64852962  1
  In  In1  1  0.67428382  0.00937252  0.65153959  1
  In  In2  1  0.67272514  0.81755985  0.15680378  1
  In  In3  1  0.84198131  0.53623073  0.02630501  1
  In  In4  1  0.66809059  0.00428878  -0.01086901  1
  In  In5  1  0.84488199  -0.01092155  0.81082630  1
  In  In6  1  0.33906937  0.17639057  0.49429019  1
  In  In7  1  0.67557997  0.35852891  0.00385694  1
  In  In8  1  0.82326252  -0.01576205  0.49009810  1
  In  In9  1  0.31362611  0.68689730  -0.01829453  1
  In  In10  1  -0.00726656  0.36159564  0.34271444  1
  In  In11  1  0.17699243  0.49802929  0.66503582  1
  In  In12  1  0.49357930  0.64916144  0.20204035  1
  In  In13  1  0.02817819  0.36125451  -0.00527679  1
  In  In14  1  0.66706884  0.37082270  0.34226065  1
  In  In15  1  0.66297932  0.82081506  0.83319388  1
  In  In16  1  0.65496092  -0.01176100  0.33598115  1
  In  In17  1  0.15135342  0.81144866  0.67308810  1
  In  In18  1  0.01211292  0.79526185  0.15923874  1
  In  In19  1  0.50255458  0.49898055  0.66677307  1
  In  In20  1  0.29181480  0.80226868  0.15092183  1
  In  In21  1  0.18770128  -0.00112802  0.18645716  1
  In  In22  1  0.00900210  0.66924922  0.67659953  1
  In  In23  1  0.47729528  0.82035233  0.33381670  1
  In  In24  1  0.51173255  0.80281078  -0.01708254  1
  In  In25  1  0.83745694  0.36152559  0.18357005  1
  In  In26  1  0.01849874  0.31655007  0.66292989  1
  In  In27  1  -0.02278325  0.18040946  0.17400354  1
  In  In28  1  0.49794202  0.80232772  0.65331604  1
  In  In29  1  -0.00872791  -0.02076975  0.67880014  1
  In  In30  1  0.01940273  0.81242513  0.49852215  1
  In  In31  1  0.32178923  0.00631243  0.33217196  1
  In  In32  1  0.80067403  0.35090527  0.49699177  1
  In  In33  1  0.49702590  0.19111801  0.34245965  1
  In  In34  1  0.65850779  0.34723250  0.66408294  1
  In  In35  1  0.84998100  0.80783907  0.33552129  1
  In  In36  1  0.49386339  -0.00848915  0.85203439  1
  In  In37  1  0.15985307  0.16571336  0.00275731  1
  In  In38  1  0.17082773  0.37931560  0.84475933  1
  In  In39  1  0.83116862  0.67618979  0.85319128  1
  In  In40  1  0.34308514  -0.04125585  0.01820226  1
  In  In41  1  0.18298138  -0.01511134  0.80871595  1
  In  In42  1  0.83158183  0.34713724  0.82533026  1
  In  In43  1  -0.02021124  0.50113164  0.50121143  1
  In  In44  1  0.83026193  0.17376939  0.33164775  1
  In  In45  1  0.83844511  0.86772997  0.66439433  1
  In  In46  1  0.16547266  0.16896768  0.65656646  1
  In  In47  1  0.49282279  0.52081734  0.00265949  1
  In  In48  1  0.33323215  0.36464697  0.64582049  1
  In  In49  1  0.51076709  0.34612795  0.17831380  1
  In  In50  1  0.34074336  0.65604772  0.65463988  1
  In  In51  1  0.81424728  0.65656471  0.48341586  1
  In  In52  1  0.16286193  0.81001320  0.33070772  1
  In  In53  1  0.01475227  -0.02308506  -0.00890304  1
  In  In54  1  0.83164510  0.15982688  -0.00687736  1
  In  In55  1  0.48670493  0.19772601  -0.00334882  1
  In  In56  1  0.50405110  -0.00212851  0.19526543  1
  In  In57  1  0.32652305  0.13378603  0.19113242  1
  In  In58  1  0.30024511  0.33978735  -0.01874113  1
  In  In59  1  0.82622571  0.53169092  0.66395816  1
  In  In60  1  0.16266055  0.36544427  0.16800855  1
  In  In61  1  0.82634237  0.18364946  0.66747176  1
  In  In62  1  0.15316600  0.66810413  0.17295700  1
  In  In63  1  0.01853818  0.15247272  0.49558976  1
  In  In64  1  0.83550196  0.78360506  0.01102412  1
  In  In65  1  0.51778346  0.17262111  0.66528914  1
  In  In66  1  0.33818195  0.81765747  0.50646077  1
  In  In67  1  0.35094386  0.37557015  0.37125692  1
  In  In68  1  0.32646148  0.17815084  0.84877362  1
  In  In69  1  0.32422738  0.00051920  0.65489099  1
  In  In70  1  0.85127459  0.01617864  0.17128259  1
  In  In71  1  0.34635372  0.50710953  0.18336811  1
  Te  Te72  1  0.07287721  0.08333422  0.09762058  1
  Te  Te73  1  0.09510607  0.07259872  0.40251087  1
  Te  Te74  1  0.08136931  0.08310443  0.75038553  1
  Te  Te75  1  0.10863750  0.46678470  0.06911196  1
  Te  Te76  1  0.08969422  0.44007717  0.42174469  1
  Te  Te77  1  0.06364562  0.43462262  0.74537919  1
  Te  Te78  1  0.08454086  0.72215511  0.04983462  1
  Te  Te79  1  0.06627341  0.71507383  0.39410901  1
  Te  Te80  1  0.11677228  0.70431436  0.78072265  1
  Te  Te81  1  0.42278924  0.08076636  0.07606521  1
  Te  Te82  1  0.42660081  0.07645126  0.41677098  1
  Te  Te83  1  0.40671711  0.08302526  0.75602484  1
  Te  Te84  1  0.40628522  0.40583804  0.08227967  1
  Te  Te85  1  0.45119389  0.44133211  0.46000429  1
  Te  Te86  1  0.39970354  0.43730272  0.75428473  1
  Te  Te87  1  0.42616454  0.74506189  0.09684364  1
  Te  Te88  1  0.43066498  0.71834877  0.43736461  1
  Te  Te89  1  0.43277661  0.71901734  0.75613351  1
  Te  Te90  1  0.74132967  0.08943035  0.09433670  1
  Te  Te91  1  0.73859444  0.08907818  0.41949726  1
  Te  Te92  1  0.74397180  0.09230404  0.75888117  1
  Te  Te93  1  0.74155832  0.44999838  0.10819353  1
  Te  Te94  1  0.79609297  0.44878959  0.37908214  1
  Te  Te95  1  0.73788979  0.44357411  0.75304595  1
  Te  Te96  1  0.73099309  0.70372631  0.08138272  1
  Te  Te97  1  0.73577855  0.76142514  0.41555153  1
  Te  Te98  1  0.75635879  0.74964919  0.73220521  1
  Te  Te99  1  0.07467692  0.26932266  0.24971399  1
  Te  Te100  1  0.10738694  0.26440487  0.55129475  1
  Te  Te101  1  0.09153193  0.25503181  0.90300169  1
  Te  Te102  1  0.05875676  0.57131107  0.23658024  1
  Te  Te103  1  0.08481905  0.58597377  0.57611897  1
  Te  Te104  1  0.10995286  0.50258701  0.91688419  1
  Te  Te105  1  0.07948117  0.90313497  0.24386895  1
  Te  Te106  1  0.09179607  0.91934221  0.58110030  1
  Te  Te107  1  0.09630623  0.89743785  0.89441474  1
  Te  Te108  1  0.40164263  0.26155514  0.24643961  1
  Te  Te109  1  0.42801111  0.26383132  0.58059865  1
  Te  Te110  1  0.42019213  0.28913067  0.89454447  1
  Te  Te111  1  0.41728681  0.56503192  0.30641854  1
  Te  Te112  1  0.40844134  0.55833096  0.55995288  1
  Te  Te113  1  0.41151973  0.60375799  0.90754124  1
  Te  Te114  1  0.38676237  0.90411565  0.23118193  1
  Te  Te115  1  0.42840825  0.91831831  0.57956434  1
  Te  Te116  1  0.40320850  0.87933877  0.90380406  1
  Te  Te117  1  0.74147933  0.26355549  0.24975810  1
  Te  Te118  1  0.72501220  0.24147411  0.57112753  1
  Te  Te119  1  0.74507432  0.25300604  0.91000725  1
  Te  Te120  1  0.74593581  0.56511183  0.28990119  1
  Te  Te121  1  0.72339450  0.55752660  0.55494543  1
  Te  Te122  1  0.74767643  0.57247116  0.91690233  1
  Te  Te123  1  0.75816413  0.91708482  0.24507103  1
  Te  Te124  1  0.72482427  0.89407145  0.56457703  1
  Te  Te125  1  0.76321895  0.90568738  0.92057627  1
  Te  Te126  1  0.24453951  0.24974130  0.09767259  1
  Te  Te127  1  0.26108543  0.26310630  0.40327445  1
  Te  Te128  1  0.24676419  0.26038461  0.74698261  1
  Te  Te129  1  0.26053422  0.59159321  0.09044222  1
  Te  Te130  1  0.29973477  0.61708090  0.39393240  1
  Te  Te131  1  0.24091356  0.60072839  0.75403618  1
  Te  Te132  1  0.21246442  0.90249791  0.06908623  1
  Te  Te133  1  0.24681011  0.90271366  0.41758840  1
  Te  Te134  1  0.27203561  0.88306875  0.73700565  1
  Te  Te135  1  0.59335599  0.25521120  0.08846463  1
  Te  Te136  1  0.57938664  0.28189624  0.42437480  1
  Te  Te137  1  0.58279314  0.26333883  0.75906703  1
  Te  Te138  1  0.58264698  0.59146311  0.09825567  1
  Te  Te139  1  0.62549792  0.54826676  0.36999190  1
  Te  Te140  1  0.57462286  0.59594957  0.75469608  1
  Te  Te141  1  0.57651937  0.91614342  0.07802340  1
  Te  Te142  1  0.55642376  0.91442299  0.41594781  1
  Te  Te143  1  0.58142188  0.91910584  0.74896869  1
  Te  Te144  1  0.90722126  0.26983391  0.07169305  1
  Te  Te145  1  0.91255577  0.25669186  0.43266850  1
  Te  Te146  1  0.92837831  0.24354968  0.76363420  1
  Te  Te147  1  0.93490796  0.59054835  0.13211660  1
  Te  Te148  1  0.93564041  0.61182738  0.40851960  1
  Te  Te149  1  0.92345649  0.58240667  0.76823590  1
  Te  Te150  1  0.91105436  0.90736942  0.08138793  1
  Te  Te151  1  0.93199471  0.90890341  0.41516999  1
  Te  Te152  1  0.94164410  0.87328459  0.77773144  1
  Te  Te153  1  0.20697258  0.10806638  0.29554262  1
  Te  Te154  1  0.23822915  0.07840494  0.55732401  1
  Te  Te155  1  0.25381288  0.06836210  0.92912048  1
  Te  Te156  1  0.24308777  0.43827737  0.27376224  1
  Te  Te157  1  0.24270252  0.43064889  0.54919976  1
  Te  Te158  1  0.27006449  0.47166329  0.91488796  1
  Te  Te159  1  0.27297374  0.71374884  0.27893187  1
  Te  Te160  1  0.23223895  0.72960554  0.57102282  1
  Te  Te161  1  0.20242010  0.75288990  0.91228827  1
  Te  Te162  1  0.59057633  0.10502568  0.25427714  1
  Te  Te163  1  0.57849639  0.08219155  0.56753307  1
  Te  Te164  1  0.57887508  0.10147537  0.91287793  1
  Te  Te165  1  0.58321145  0.45763641  0.24761883  1
  Te  Te166  1  0.58172322  0.42520057  0.55965237  1
  Te  Te167  1  0.57887819  0.43117726  0.92048163  1
  Te  Te168  1  0.59460265  0.74500263  0.26657526  1
  Te  Te169  1  0.56300464  0.72045131  0.54716614  1
  Te  Te170  1  0.60582840  0.71205084  0.91496009  1
  Te  Te171  1  0.93821945  0.07739132  0.28113564  1
  Te  Te172  1  0.90677156  0.07794736  0.58705589  1
  Te  Te173  1  0.92777907  0.07443079  0.91096364  1
  Te  Te174  1  0.95564253  0.45071411  0.22233968  1
  Te  Te175  1  0.90058867  0.40363454  0.60243845  1
  Te  Te176  1  0.90558367  0.42806696  0.93173335  1
  Te  Te177  1  0.89176233  0.72418852  0.21809461  1
  Te  Te178  1  0.91039584  0.74861453  0.58642581  1
  Te  Te179  1  0.94710519  0.71422335  0.94125489  1
