# generated using pymatgen
data_In2Te3
_symmetry_space_group_name_H-M   'P 1'
_cell_length_a   18.98096455
_cell_length_b   18.96518754
_cell_length_c   18.95932877
_cell_angle_alpha   90.10865685
_cell_angle_beta   89.77345822
_cell_angle_gamma   90.15928183
_symmetry_Int_Tables_number   1
_chemical_formula_structural   In2Te3
_chemical_formula_sum   'In72 Te108'
_cell_volume   6824.84091377
_cell_formula_units_Z   36
loop_
 _symmetry_equiv_pos_site_id
 _symmetry_equiv_pos_as_xyz
  1  'x, y, z'
loop_
 _atom_site_type_symbol
 _atom_site_label
 _atom_site_symmetry_multiplicity
 _atom_site_fract_x
 _atom_site_fract_y
 _atom_site_fract_z
 _atom_site_occupancy
  In  In0  1  0.33999459  0.81556111  0.13459332  1
  In  In1  1  0.80570351  0.65441609  0.83347585  1
  In  In2  1  0.15940462  0.31944687  0.84727912  1
  In  In3  1  0.65734747  0.16831753  0.80649656  1
  In  In4  1  0.15565304  0.66758885  0.50372245  1
  In  In5  1  0.33819955  0.48891240  0.49276874  1
  In  In6  1  0.52008734  0.17511014  0.66532987  1
  In  In7  1  0.29819021  0.01277187  0.63511212  1
  In  In8  1  0.70629913  -0.02381600  0.67284344  1
  In  In9  1  0.46165914  0.34853145  0.13390005  1
  In  In10  1  0.02604939  0.01206058  0.30395942  1
  In  In11  1  0.65987869  0.85120657  0.16882156  1
  In  In12  1  0.17028442  0.03002532  0.46106939  1
  In  In13  1  0.48274493  0.83875333  0.33194762  1
  In  In14  1  0.65318322  0.33332240  -0.00470054  1
  In  In15  1  0.33556928  0.17598709  0.85323557  1
  In  In16  1  0.86165364  -0.00398525  0.49729620  1
  In  In17  1  0.50543056  0.65438019  0.14470834  1
  In  In18  1  0.32378506  0.01030686  0.00537655  1
  In  In19  1  0.83148128  0.83175348  0.00881052  1
  In  In20  1  -0.00175720  0.66684481  0.33901656  1
  In  In21  1  0.82843305  -0.00801744  0.17773743  1
  In  In22  1  0.47136825  0.82711852  0.67981137  1
  In  In23  1  0.16787427  -0.01881320  0.84667674  1
  In  In24  1  0.80406903  0.36347467  0.50674702  1
  In  In25  1  -0.02276491  0.34852140  0.64842094  1
  In  In26  1  0.66880785  0.48583809  0.83571922  1
  In  In27  1  0.49674334  0.05206841  0.48305743  1
  In  In28  1  0.69595178  0.81370532  0.84367438  1
  In  In29  1  0.20020456  0.32505684  0.15740899  1
  In  In30  1  0.31804432  0.80697108  0.86049612  1
  In  In31  1  0.17356253  0.69663687  0.84687853  1
  In  In32  1  0.83100651  0.32186256  0.85622863  1
  In  In33  1  0.69618005  0.66255585  0.31852387  1
  In  In34  1  0.68371162  0.18636003  0.49644814  1
  In  In35  1  0.67319866  0.64250734  0.00071364  1
  In  In36  1  0.32553548  0.87539465  0.48080969  1
  In  In37  1  0.35210586  0.66721067  0.33700553  1
  In  In38  1  0.55181796  0.36681487  0.51334834  1
  In  In39  1  0.85416712  0.64516691  0.18075544  1
  In  In40  1  0.49001110  0.18522615  0.30344875  1
  In  In41  1  0.35996307  0.34495988  0.67579114  1
  In  In42  1  0.83693925  0.18491073  0.64250968  1
  In  In43  1  0.18377922  0.47857411  0.65484298  1
  In  In44  1  0.66443734  0.00154960  0.01218645  1
  In  In45  1  0.65740332  0.00847475  0.34359473  1
  In  In46  1  0.00164319  0.66031222  0.01828088  1
  In  In47  1  0.51365433  0.63917286  0.52616909  1
  In  In48  1  0.74775728  0.23930349  0.15782446  1
  In  In49  1  0.14587479  0.38156078  0.35518018  1
  In  In50  1  0.32554853  0.51287897  0.84436466  1
  In  In51  1  0.52898625  0.49545419  0.30582857  1
  In  In52  1  0.66549540  0.79654907  0.48766115  1
  In  In53  1  -0.02468466  0.48246493  0.84746356  1
  In  In54  1  0.01553972  0.01370760  0.01391780  1
  In  In55  1  0.48358647  0.01433873  0.13168410  1
  In  In56  1  0.00640801  0.83672757  0.49743131  1
  In  In57  1  0.47744078  -0.00502230  0.81175333  1
  In  In58  1  0.14389082  0.18949055  0.63946661  1
  In  In59  1  0.33693005  0.69114885  0.67535257  1
  In  In60  1  0.00028857  0.47866871  0.19518814  1
  In  In61  1  0.02013766  0.64724317  0.67224728  1
  In  In62  1  -0.01561504  0.17465431  0.15016568  1
  In  In63  1  0.18012798  0.49494133  -0.00695646  1
  In  In64  1  0.14457033  0.84125840  0.67122604  1
  In  In65  1  0.82243323  0.63596029  0.52043192  1
  In  In66  1  -0.02383937  -0.00676875  0.70618703  1
  In  In67  1  0.16610454  0.17926541  0.31084485  1
  In  In68  1  0.48878794  0.16460917  -0.00305752  1
  In  In69  1  0.17462227  0.64668486  0.16526290  1
  In  In70  1  0.81723482  0.48990968  0.33767561  1
  In  In71  1  0.01690082  0.15598665  0.84951008  1
  Te  Te72  1  0.10514922  0.09243138  0.10656468  1
  Te  Te73  1  0.06012918  0.11611737  0.40824765  1
  Te  Te74  1  0.10527735  0.07811344  0.73780138  1
  Te  Te75  1  0.09780041  0.41740933  0.09186388  1
  Te  Te76  1  0.03065182  0.38675926  0.44364713  1
  Te  Te77  1  0.08423199  0.41426326  0.75237028  1
  Te  Te78  1  0.07414999  0.74259432  0.11534456  1
  Te  Te79  1  0.09974999  0.76357271  0.40161133  1
  Te  Te80  1  0.06031538  0.76183240  0.76578360  1
  Te  Te81  1  0.37616570  0.12452605  0.10202307  1
  Te  Te82  1  0.39799971  0.08934818  0.37934768  1
  Te  Te83  1  0.39838724  0.09525423  0.73107034  1
  Te  Te84  1  0.36522351  0.43647522  0.06487186  1
  Te  Te85  1  0.44883702  0.42234002  0.41666431  1
  Te  Te86  1  0.42395970  0.45060907  0.75402284  1
  Te  Te87  1  0.41560382  0.72014224  0.04419027  1
  Te  Te88  1  0.42087585  0.75094510  0.44516196  1
  Te  Te89  1  0.43261241  0.72645320  0.78628116  1
  Te  Te90  1  0.74599121  0.09052911  0.09970717  1
  Te  Te91  1  0.76483158  0.08462685  0.41782802  1
  Te  Te92  1  0.77263822  0.08885772  0.74584178  1
  Te  Te93  1  0.76140488  0.37317776  0.08981693  1
  Te  Te94  1  0.70765377  0.43365855  0.42010274  1
  Te  Te95  1  0.76492718  0.40478692  0.75622778  1
  Te  Te96  1  0.74653335  0.74558411  0.10193172  1
  Te  Te97  1  0.78443767  0.73917174  0.41301277  1
  Te  Te98  1  0.78252135  0.76439604  0.73219966  1
  Te  Te99  1  0.07154440  0.26790351  0.23283759  1
  Te  Te100  1  0.06056918  0.27733421  0.54585150  1
  Te  Te101  1  0.07706546  0.24948059  0.94668473  1
  Te  Te102  1  0.09404046  0.57002809  0.27050522  1
  Te  Te103  1  0.08196122  0.55186759  0.56927664  1
  Te  Te104  1  0.08468168  0.57829004  0.90773916  1
  Te  Te105  1  0.11725598  0.96842475  0.19623929  1
  Te  Te106  1  0.09802036  0.93707353  0.56518083  1
  Te  Te107  1  0.06677349  0.90900202  0.92188018  1
  Te  Te108  1  0.39516670  0.28687752  0.25353900  1
  Te  Te109  1  0.44493044  0.26837260  0.57437499  1
  Te  Te110  1  0.44642141  0.26302239  0.89500853  1
  Te  Te111  1  0.41729090  0.57255675  0.23890289  1
  Te  Te112  1  0.40263298  0.57289234  0.60286541  1
  Te  Te113  1  0.37983635  0.61593749  0.93229711  1
  Te  Te114  1  0.41193126  0.91731776  0.22761603  1
  Te  Te115  1  0.42368065  0.93766913  0.58104184  1
  Te  Te116  1  0.40859782  0.91628522  0.92062564  1
  Te  Te117  1  0.78809181  0.27785103  0.29815349  1
  Te  Te118  1  0.72149700  0.27447289  0.61188277  1
  Te  Te119  1  0.73613964  0.22412226  0.92164236  1
  Te  Te120  1  0.73888897  0.55586504  0.22168546  1
  Te  Te121  1  0.71252356  0.57659387  0.60201320  1
  Te  Te122  1  0.77031971  0.54793808  0.93500049  1
  Te  Te123  1  0.74890834  0.90630425  0.27724368  1
  Te  Te124  1  0.76146901  0.89811930  0.55584957  1
  Te  Te125  1  0.76047536  0.93060723  0.91883579  1
  Te  Te126  1  0.28682692  0.24648062  0.06951590  1
  Te  Te127  1  0.24400442  0.27735701  0.39177980  1
  Te  Te128  1  0.24758809  0.25049173  0.74145348  1
  Te  Te129  1  0.27484210  0.56138957  0.08935284  1
  Te  Te130  1  0.25091491  0.58510331  0.41621438  1
  Te  Te131  1  0.22955731  0.60016401  0.73716623  1
  Te  Te132  1  0.24212940  0.92270398  0.09425396  1
  Te  Te133  1  0.24179762  0.93152725  0.37381210  1
  Te  Te134  1  0.26595887  0.90626484  0.74760483  1
  Te  Te135  1  0.57704870  0.23962926  0.09090349  1
  Te  Te136  1  0.58220694  0.25104234  0.40978623  1
  Te  Te137  1  0.56140645  0.27364471  0.76811618  1
  Te  Te138  1  0.57694258  0.54978942  0.06750980  1
  Te  Te139  1  0.59405569  0.59113749  0.40946371  1
  Te  Te140  1  0.62056091  0.57917936  0.72921419  1
  Te  Te141  1  0.56404812  0.90018719  0.06447771  1
  Te  Te142  1  0.57524309  0.91245808  0.42960393  1
  Te  Te143  1  0.58724419  0.90922939  0.75028438  1
  Te  Te144  1  0.88106753  0.26176635  0.08760094  1
  Te  Te145  1  0.85481707  0.24630646  0.43180003  1
  Te  Te146  1  0.93344453  0.24480687  0.75053804  1
  Te  Te147  1  0.92198859  0.54996273  0.08536463  1
  Te  Te148  1  0.91699841  0.56821038  0.42151833  1
  Te  Te149  1  0.90988644  0.57720565  0.75015547  1
  Te  Te150  1  0.92484972  0.91294035  0.09531478  1
  Te  Te151  1  0.93744725  0.91893633  0.39141115  1
  Te  Te152  1  0.88033545  0.88947443  0.73242058  1
  Te  Te153  1  0.26750757  0.07427405  0.29049521  1
  Te  Te154  1  0.25191832  0.12764287  0.54994120  1
  Te  Te155  1  0.22890247  0.09715632  0.92520436  1
  Te  Te156  1  0.26446382  0.40447880  0.26689549  1
  Te  Te157  1  0.25655633  0.38328240  0.56495779  1
  Te  Te158  1  0.27039694  0.39211089  0.92287665  1
  Te  Te159  1  0.26203457  0.74647915  0.24595577  1
  Te  Te160  1  0.24784508  0.77026733  0.57393017  1
  Te  Te161  1  0.21964181  0.77065384  0.96415538  1
  Te  Te162  1  0.57684688  0.07638026  0.23778061  1
  Te  Te163  1  0.60770627  0.07375840  0.59115828  1
  Te  Te164  1  0.57490349  0.07041483  0.90310120  1
  Te  Te165  1  0.57845235  0.39373065  0.21316619  1
  Te  Te166  1  0.59623119  0.46991950  0.61327268  1
  Te  Te167  1  0.56896699  0.44122923  0.93803864  1
  Te  Te168  1  0.57707906  0.74569667  0.25567919  1
  Te  Te169  1  0.58208362  0.74898111  0.60562664  1
  Te  Te170  1  0.59805090  0.73504292  0.91695880  1
  Te  Te171  1  0.90849802  0.09481598  0.25449431  1
  Te  Te172  1  0.93972548  0.08501200  0.59117883  1
  Te  Te173  1  0.91911961  0.07823480  0.92470268  1
  Te  Te174  1  0.90275321  0.38957432  0.26587252  1
  Te  Te175  1  0.87374345  0.44446334  0.61038062  1
  Te  Te176  1  0.94095551  0.37499102  0.94005080  1
  Te  Te177  1  0.93195520  0.75323645  0.23996790  1
  Te  Te178  1  0.93555485  0.72837086  0.57553163  1
  Te  Te179  1  0.90623823  0.73076946  0.92467770  1
