# generated using pymatgen
data_In2Te3
_symmetry_space_group_name_H-M   'P 1'
_cell_length_a   18.75720064
_cell_length_b   18.75815622
_cell_length_c   18.76595454
_cell_angle_alpha   90.04076197
_cell_angle_beta   89.98827351
_cell_angle_gamma   90.00523408
_symmetry_Int_Tables_number   1
_chemical_formula_structural   In2Te3
_chemical_formula_sum   'In72 Te108'
_cell_volume   6602.80864996
_cell_formula_units_Z   36
loop_
 _symmetry_equiv_pos_site_id
 _symmetry_equiv_pos_as_xyz
  1  'x, y, z'
loop_
 _atom_site_type_symbol
 _atom_site_label
 _atom_site_symmetry_multiplicity
 _atom_site_fract_x
 _atom_site_fract_y
 _atom_site_fract_z
 _atom_site_occupancy
  In  In0  1  0.35353026  0.48454800  0.47314295  1
  In  In1  1  0.32609396  0.68250348  -0.01476552  1
  In  In2  1  0.33371153  0.65325639  0.65945821  1
  In  In3  1  0.17875616  0.16562426  0.33304842  1
  In  In4  1  0.51358174  0.83056430  0.65886092  1
  In  In5  1  0.01411351  0.53329390  0.17845806  1
  In  In6  1  -0.00399467  0.84250344  0.50705317  1
  In  In7  1  0.68508220  0.69017133  -0.00621869  1
  In  In8  1  0.31483152  0.00307536  0.33623591  1
  In  In9  1  0.17858435  0.82944959  0.31887861  1
  In  In10  1  0.17120357  -0.00538746  0.51425490  1
  In  In11  1  0.16439552  0.50610312  0.67775644  1
  In  In12  1  0.80515177  0.33894652  0.83336294  1
  In  In13  1  0.18009884  0.00699839  0.15945812  1
  In  In14  1  0.81785682  -0.02199506  0.50559775  1
  In  In15  1  0.01604984  0.15736056  0.49510861  1
  In  In16  1  0.00745118  0.63269279  0.34648674  1
  In  In17  1  0.48637709  0.48890187  0.00983787  1
  In  In18  1  0.02237656  0.69265458  -0.00334310  1
  In  In19  1  0.82724411  0.17569286  0.33570520  1
  In  In20  1  0.48405355  0.66904501  0.17275632  1
  In  In21  1  0.18739353  0.15793981  0.67178277  1
  In  In22  1  0.00356584  0.31220796  -0.00247761  1
  In  In23  1  0.00993688  0.15977618  0.15953670  1
  In  In24  1  0.51605604  0.64942012  0.83623372  1
  In  In25  1  0.66441601  0.67121223  0.35175983  1
  In  In26  1  0.65613742  -0.00526600  -0.01034830  1
  In  In27  1  0.34535969  0.00590152  0.01680036  1
  In  In28  1  0.84142353  0.51038820  0.34320358  1
  In  In29  1  0.83343872  0.69324834  0.14850198  1
  In  In30  1  0.00897187  0.18393089  0.85537022  1
  In  In31  1  0.01982216  0.68306878  0.68054659  1
  In  In32  1  0.50412387  -0.01727851  0.49888497  1
  In  In33  1  0.83541970  0.14506771  -0.00995956  1
  In  In34  1  0.32738439  0.83504103  0.16250003  1
  In  In35  1  -0.00632762  0.35192842  0.65581472  1
  In  In36  1  0.47659517  0.33889607  0.83746659  1
  In  In37  1  0.82822213  -0.00904747  0.17131063  1
  In  In38  1  0.33647755  0.85032379  0.84436852  1
  In  In39  1  0.81973261  0.82819272  0.33937008  1
  In  In40  1  0.34441908  0.14818347  0.83402029  1
  In  In41  1  0.50086448  0.82020210  0.34617754  1
  In  In42  1  0.84938509  0.01395610  0.82657263  1
  In  In43  1  0.14566891  0.36182035  0.46632825  1
  In  In44  1  0.17924836  0.49474495  -0.00795565  1
  In  In45  1  0.18472784  0.65706031  0.51013768  1
  In  In46  1  0.81247922  0.83570155  0.67354113  1
  In  In47  1  0.15845011  -0.02945006  0.84213312  1
  In  In48  1  0.34610584  0.49418439  0.17125535  1
  In  In49  1  0.83222080  0.31883075  0.50542433  1
  In  In50  1  0.80578009  0.48225253  0.01469729  1
  In  In51  1  0.64036295  0.49930468  0.18828811  1
  In  In52  1  0.49174184  0.16889860  0.67540793  1
  In  In53  1  0.67890289  0.16493877  0.49554645  1
  In  In54  1  0.51207921  0.01191498  0.15177413  1
  In  In55  1  0.65226140  0.32716446  0.32422279  1
  In  In56  1  0.49785092  0.67201884  0.50461357  1
  In  In57  1  0.85682221  0.68253908  0.83100896  1
  In  In58  1  0.32379834  0.32754292  -0.00469280  1
  In  In59  1  0.82709656  0.35092454  0.19683547  1
  In  In60  1  0.79820532  0.18442606  0.66558424  1
  In  In61  1  0.34322775  0.34544489  0.67384359  1
  In  In62  1  0.19061486  0.33783064  0.16811574  1
  In  In63  1  -0.00759142  -0.00832940  0.65374393  1
  In  In64  1  -0.00320381  0.51051695  0.81926299  1
  In  In65  1  0.64957788  0.14615140  0.83407574  1
  In  In66  1  0.33070770  0.18201027  0.51092646  1
  In  In67  1  0.65789900  0.84405649  0.82155532  1
  In  In68  1  0.66072978  0.51294438  0.53433020  1
  In  In69  1  0.00596038  0.83701929  0.15253660  1
  In  In70  1  0.48910380  0.18081654  0.30089985  1
  In  In71  1  0.65120088  0.49598127  0.80935475  1
  Te  Te72  1  0.08696941  0.07631813  0.06609877  1
  Te  Te73  1  0.08994197  0.06149563  0.40291763  1
  Te  Te74  1  0.07360594  0.08553585  0.74583037  1
  Te  Te75  1  0.07498053  0.42059882  0.08280810  1
  Te  Te76  1  0.04138441  0.43538927  0.39640980  1
  Te  Te77  1  0.08809552  0.40084089  0.76414527  1
  Te  Te78  1  0.10860481  0.74171464  0.10504263  1
  Te  Te79  1  0.08490789  0.75361151  0.42028191  1
  Te  Te80  1  0.08930162  0.76210792  0.78492461  1
  Te  Te81  1  0.41810643  0.11134905  0.09423957  1
  Te  Te82  1  0.41301572  0.09075257  0.41609888  1
  Te  Te83  1  0.42564082  0.05699295  0.74781647  1
  Te  Te84  1  0.42487521  0.38115576  0.09832658  1
  Te  Te85  1  0.42137217  0.38577455  0.38181324  1
  Te  Te86  1  0.42475489  0.44442245  0.74786281  1
  Te  Te87  1  0.42578813  0.76357831  0.06815082  1
  Te  Te88  1  0.39978691  0.73744736  0.41497328  1
  Te  Te89  1  0.42009764  0.74306936  0.75581555  1
  Te  Te90  1  0.73651216  0.08448133  0.08653917  1
  Te  Te91  1  0.74358441  0.06521210  0.40154550  1
  Te  Te92  1  0.73691105  0.06524743  0.73597226  1
  Te  Te93  1  0.70799663  0.38612873  0.09372412  1
  Te  Te94  1  0.74614493  0.41153989  0.41115659  1
  Te  Te95  1  0.75975986  0.43166628  0.72850443  1
  Te  Te96  1  0.74215974  0.79208957  0.08634410  1
  Te  Te97  1  0.75111960  0.74672065  0.44440338  1
  Te  Te98  1  0.73404512  0.73000286  0.75118211  1
  Te  Te99  1  0.08595858  0.25454333  0.25134441  1
  Te  Te100  1  0.09849297  0.25109259  0.58378259  1
  Te  Te101  1  0.11938217  0.25284749  0.92661775  1
  Te  Te102  1  0.12284615  0.59322957  0.26082857  1
  Te  Te103  1  0.07189726  0.57907283  0.58068221  1
  Te  Te104  1  0.09201278  0.59012029  0.90623106  1
  Te  Te105  1  0.08524271  0.92785942  0.24930176  1
  Te  Te106  1  0.10084620  0.89443259  0.60649957  1
  Te  Te107  1  0.07442816  0.86446822  0.90283245  1
  Te  Te108  1  0.39664695  0.28967609  0.26348116  1
  Te  Te109  1  0.43544691  0.27316009  0.57551764  1
  Te  Te110  1  0.42889870  0.23063953  0.93213450  1
  Te  Te111  1  0.41932143  0.58029383  0.26926475  1
  Te  Te112  1  0.42816024  0.55882062  0.58318325  1
  Te  Te113  1  0.40585892  0.57367088  0.91110956  1
  Te  Te114  1  0.41566975  0.92307143  0.25324762  1
  Te  Te115  1  0.41172496  0.89286171  0.57015305  1
  Te  Te116  1  0.43423266  0.93512687  0.92040482  1
  Te  Te117  1  0.73103673  0.23336496  0.23211793  1
  Te  Te118  1  0.70476837  0.28878984  0.59636591  1
  Te  Te119  1  0.73314190  0.24266495  0.92665921  1
  Te  Te120  1  0.75886713  0.58568629  0.23567730  1
  Te  Te121  1  0.79058097  0.55552836  0.58631651  1
  Te  Te122  1  0.75037507  0.58021421  0.90726288  1
  Te  Te123  1  0.73301257  0.91072154  0.25310561  1
  Te  Te124  1  0.71687243  0.91109903  0.58914968  1
  Te  Te125  1  0.76103995  0.91824287  0.90756062  1
  Te  Te126  1  0.23727833  0.23453755  0.07390018  1
  Te  Te127  1  0.25675610  0.27133166  0.41057426  1
  Te  Te128  1  0.25782145  0.25571566  0.76437123  1
  Te  Te129  1  0.25757362  0.58789948  0.08398079  1
  Te  Te130  1  0.24427361  0.56390396  0.41095256  1
  Te  Te131  1  0.24347198  0.59547893  0.76296460  1
  Te  Te132  1  0.23681456  0.90358001  0.06226633  1
  Te  Te133  1  0.25885820  0.89888834  0.43155878  1
  Te  Te134  1  0.25829993  0.92667527  0.74322018  1
  Te  Te135  1  0.60329138  0.29242775  0.03703113  1
  Te  Te136  1  0.57135945  0.24098038  0.42033318  1
  Te  Te137  1  0.58295614  0.26093741  0.75793335  1
  Te  Te138  1  0.58878209  0.58808095  0.07287671  1
  Te  Te139  1  0.57943629  0.56525291  0.41741205  1
  Te  Te140  1  0.58426342  0.59153625  0.71780877  1
  Te  Te141  1  0.58512177  0.90246726  0.08302982  1
  Te  Te142  1  0.59887467  0.90913793  0.41196472  1
  Te  Te143  1  0.56275457  0.93572275  0.75401841  1
  Te  Te144  1  0.89583014  0.25354312  0.09083078  1
  Te  Te145  1  0.93488286  0.25538236  0.41043292  1
  Te  Te146  1  0.91220134  0.24842865  0.74931884  1
  Te  Te147  1  0.91347270  0.58003476  0.07183589  1
  Te  Te148  1  0.89478447  0.60888840  0.44148611  1
  Te  Te149  1  0.90247352  0.58136930  0.72547972  1
  Te  Te150  1  0.91723910  0.92377456  0.07324003  1
  Te  Te151  1  0.92134428  0.92723028  0.40574647  1
  Te  Te152  1  0.92438563  0.90030333  0.75520441  1
  Te  Te153  1  0.27400235  0.10563783  0.22998956  1
  Te  Te154  1  0.28106086  0.06426315  0.59605129  1
  Te  Te155  1  0.24313669  0.07349324  0.91964430  1
  Te  Te156  1  0.23886581  0.44057036  0.26222435  1
  Te  Te157  1  0.24417011  0.41722215  0.57783465  1
  Te  Te158  1  0.26795744  0.42383978  0.89768409  1
  Te  Te159  1  0.27392502  0.73462776  0.25745394  1
  Te  Te160  1  0.24569498  0.75676460  0.59928375  1
  Te  Te161  1  0.22871006  0.75643627  0.89716690  1
  Te  Te162  1  0.59021954  0.08413640  0.25590230  1
  Te  Te163  1  0.58411334  0.08477705  0.58426309  1
  Te  Te164  1  0.55124905  0.07622936  0.92093508  1
  Te  Te165  1  0.54258090  0.41126421  0.26256605  1
  Te  Te166  1  0.59251408  0.39299349  0.58370064  1
  Te  Te167  1  0.59169182  0.41020377  0.92553079  1
  Te  Te168  1  0.59358345  0.74986527  0.24252667  1
  Te  Te169  1  0.60520306  0.75062740  0.57079282  1
  Te  Te170  1  0.57263027  0.76307308  0.92067802  1
  Te  Te171  1  0.92016567  0.08316855  0.25613347  1
  Te  Te172  1  0.90022016  0.09752247  0.57745965  1
  Te  Te173  1  0.95126330  0.06349285  0.93170304  1
  Te  Te174  1  0.94971365  0.41901452  0.26782577  1
  Te  Te175  1  0.90660221  0.43452132  0.56753772  1
  Te  Te176  1  0.91484562  0.41550041  0.91351965  1
  Te  Te177  1  0.92768468  0.74368301  0.25864423  1
  Te  Te178  1  0.91224554  0.75017059  0.59360984  1
  Te  Te179  1  0.90372549  0.76429150  0.94444013  1
