# generated using pymatgen
data_In2Te3
_symmetry_space_group_name_H-M   'P 1'
_cell_length_a   18.88573601
_cell_length_b   18.88225707
_cell_length_c   18.87941567
_cell_angle_alpha   90.00035721
_cell_angle_beta   90.02500161
_cell_angle_gamma   90.03145570
_symmetry_Int_Tables_number   1
_chemical_formula_structural   In2Te3
_chemical_formula_sum   'In72 Te108'
_cell_volume   6732.49845438
_cell_formula_units_Z   36
loop_
 _symmetry_equiv_pos_site_id
 _symmetry_equiv_pos_as_xyz
  1  'x, y, z'
loop_
 _atom_site_type_symbol
 _atom_site_label
 _atom_site_symmetry_multiplicity
 _atom_site_fract_x
 _atom_site_fract_y
 _atom_site_fract_z
 _atom_site_occupancy
  In  In0  1  0.03465869  -0.01787928  -0.00502209  1
  In  In1  1  0.32227345  0.81868068  0.83924052  1
  In  In2  1  0.15618874  0.30695689  0.86044695  1
  In  In3  1  0.50500978  0.16765033  0.04668134  1
  In  In4  1  0.31289231  0.68709973  0.31145266  1
  In  In5  1  0.32622747  0.51723552  0.15330937  1
  In  In6  1  0.17878551  0.84122567  0.67659853  1
  In  In7  1  0.66690841  0.34252361  0.66750521  1
  In  In8  1  0.50088942  -0.00294374  0.16792886  1
  In  In9  1  0.16839496  0.66166659  0.85372845  1
  In  In10  1  0.84040274  0.85200681  0.64211418  1
  In  In11  1  0.34196594  0.13054908  0.86114908  1
  In  In12  1  0.66228412  0.32007748  0.32878049  1
  In  In13  1  0.49665175  0.83696819  0.33131739  1
  In  In14  1  0.82008767  0.34484528  0.16239280  1
  In  In15  1  0.82085567  -0.01043788  0.18982459  1
  In  In16  1  0.16188486  0.33004584  0.51254490  1
  In  In17  1  0.01965871  0.18006574  0.84263639  1
  In  In18  1  0.15369173  -0.01870555  0.48869621  1
  In  In19  1  0.16271932  0.49902871  0.33467828  1
  In  In20  1  0.49125015  0.67250294  0.17597017  1
  In  In21  1  0.50870409  0.35203494  0.86372140  1
  In  In22  1  0.82340460  0.15874174  0.00758482  1
  In  In23  1  0.17392091  0.33479841  0.15906422  1
  In  In24  1  0.16697919  0.14605423  0.67986745  1
  In  In25  1  0.82098909  0.50557827  0.65583112  1
  In  In26  1  -0.02664405  0.84889138  0.45076582  1
  In  In27  1  0.69323826  0.15024813  0.83400018  1
  In  In28  1  0.48940401  0.00066112  0.48820153  1
  In  In29  1  -0.01031745  0.14282456  0.14465183  1
  In  In30  1  0.51607164  0.46662761  0.32919730  1
  In  In31  1  0.49096173  0.83368455  0.68511375  1
  In  In32  1  0.29854194  -0.02458023  -0.01676815  1
  In  In33  1  -0.01896777  0.01117612  0.65330980  1
  In  In34  1  0.64675240  0.00004509  0.00247016  1
  In  In35  1  -0.01727713  0.52201017  0.16609873  1
  In  In36  1  0.83275085  0.53351593  0.33946140  1
  In  In37  1  0.49425031  -0.01906267  0.83445231  1
  In  In38  1  0.84400594  0.82303801  0.01224169  1
  In  In39  1  0.83755645  0.34411392  0.49733229  1
  In  In40  1  0.49829330  0.51681732  0.00073040  1
  In  In41  1  0.16767513  0.12622347  0.32007247  1
  In  In42  1  0.35751711  0.51151466  0.84826581  1
  In  In43  1  0.82498524  0.33259164  0.83869106  1
  In  In44  1  0.01878992  0.51015382  0.83648530  1
  In  In45  1  0.83905113  -0.00093054  0.81984390  1
  In  In46  1  -0.01906491  0.31894568  0.67644450  1
  In  In47  1  0.32373797  0.32594731  0.03293871  1
  In  In48  1  0.31510619  0.33363500  0.65467820  1
  In  In49  1  0.68340110  0.17363710  0.48231688  1
  In  In50  1  0.51422430  0.66295832  0.50915905  1
  In  In51  1  0.67655240  0.67466498  0.00764720  1
  In  In52  1  0.86100120  0.69575115  0.84974815  1
  In  In53  1  0.14066234  0.52597923  0.67033268  1
  In  In54  1  0.32290789  0.83538989  0.15360759  1
  In  In55  1  0.30496954  0.14811819  0.47859175  1
  In  In56  1  0.69356722  0.83748797  0.47586426  1
  In  In57  1  0.35794895  0.51755867  0.47797692  1
  In  In58  1  0.17276503  0.51146278  0.01184442  1
  In  In59  1  0.66356648  0.66985384  0.31614311  1
  In  In60  1  0.34660196  0.26410022  0.27649307  1
  In  In61  1  0.52335904  0.32320475  0.51100735  1
  In  In62  1  0.84764792  0.15648827  0.32331076  1
  In  In63  1  0.00962599  0.68579545  0.31430294  1
  In  In64  1  -0.00053416  0.68580914  0.64494103  1
  In  In65  1  -0.00336596  0.30960917  0.34254142  1
  In  In66  1  0.50063292  0.15881297  0.66985700  1
  In  In67  1  0.65344750  0.82711901  0.83503928  1
  In  In68  1  0.30344821  0.83818703  0.49400859  1
  In  In69  1  0.85270713  0.50605887  -0.00543394  1
  In  In70  1  0.66802144  0.65598988  0.67013830  1
  In  In71  1  0.51319782  0.51151196  0.67043979  1
  Te  Te72  1  0.10005165  0.04601826  0.11404477  1
  Te  Te73  1  0.06851480  0.08382902  0.42149185  1
  Te  Te74  1  0.07599702  0.06071723  0.76451013  1
  Te  Te75  1  0.07470243  0.42248587  0.08591681  1
  Te  Te76  1  0.07115847  0.41477739  0.42398573  1
  Te  Te77  1  0.09758961  0.39938165  0.74599468  1
  Te  Te78  1  0.06000325  0.78993697  0.15701961  1
  Te  Te79  1  0.09321144  0.77136289  0.40680952  1
  Te  Te80  1  0.08730490  0.74461755  0.75292306  1
  Te  Te81  1  0.40661642  0.05780450  0.06242108  1
  Te  Te82  1  0.40750279  0.08258448  0.39627952  1
  Te  Te83  1  0.40568483  0.06353900  0.74008240  1
  Te  Te84  1  0.42489269  0.41824733  0.09531453  1
  Te  Te85  1  0.41807837  0.39130142  0.41929749  1
  Te  Te86  1  0.41812725  0.40650446  0.74060066  1
  Te  Te87  1  0.40278458  0.73642491  0.07667341  1
  Te  Te88  1  0.41783721  0.74072385  0.41820902  1
  Te  Te89  1  0.41736193  0.73468543  0.76249348  1
  Te  Te90  1  0.73239222  0.07978000  0.10020607  1
  Te  Te91  1  0.74976500  0.07062711  0.39718245  1
  Te  Te92  1  0.75503838  0.07515556  0.72542957  1
  Te  Te93  1  0.74917139  0.42803874  0.06514378  1
  Te  Te94  1  0.74742954  0.42111401  0.40645035  1
  Te  Te95  1  0.73994985  0.43468804  0.76349383  1
  Te  Te96  1  0.75717105  0.75124115  0.10596128  1
  Te  Te97  1  0.77207661  0.74699934  0.38628113  1
  Te  Te98  1  0.76278741  0.76000687  0.74841915  1
  Te  Te99  1  0.07917967  0.23725419  0.23843189  1
  Te  Te100  1  0.07728062  0.23333740  0.59338417  1
  Te  Te101  1  0.09220420  0.22533262  0.96432019  1
  Te  Te102  1  0.10221635  0.58905608  0.22997440  1
  Te  Te103  1  0.07720918  0.59489893  0.55852834  1
  Te  Te104  1  0.06440457  0.60047575  0.94866161  1
  Te  Te105  1  0.04368598  0.87135731  0.28155290  1
  Te  Te106  1  0.06282409  0.90017955  0.57967247  1
  Te  Te107  1  0.09912450  0.86883196  0.92742741  1
  Te  Te108  1  0.47668146  0.22660770  0.19874436  1
  Te  Te109  1  0.40474957  0.23789679  0.57594286  1
  Te  Te110  1  0.40927901  0.25491052  0.92559859  1
  Te  Te111  1  0.41751028  0.57508030  0.27090741  1
  Te  Te112  1  0.40968762  0.59679881  0.59741892  1
  Te  Te113  1  0.40121496  0.61424602  0.94349187  1
  Te  Te114  1  0.39842698  0.92178335  0.25471482  1
  Te  Te115  1  0.40972855  0.90918121  0.58005777  1
  Te  Te116  1  0.42034291  0.89653794  0.93251060  1
  Te  Te117  1  0.74912997  0.23319589  0.23801147  1
  Te  Te118  1  0.75950486  0.25124702  0.59092113  1
  Te  Te119  1  0.73265557  0.25737647  0.93422113  1
  Te  Te120  1  0.75441431  0.58954066  0.23012260  1
  Te  Te121  1  0.75090923  0.59648625  0.56532244  1
  Te  Te122  1  0.76339021  0.59721734  0.90630460  1
  Te  Te123  1  0.78959717  0.88136301  0.28993722  1
  Te  Te124  1  0.76152835  0.94337239  0.55764874  1
  Te  Te125  1  0.75033745  0.92089283  0.91921299  1
  Te  Te126  1  0.24804739  0.21811107  0.09984106  1
  Te  Te127  1  0.23197447  0.25640947  0.39966345  1
  Te  Te128  1  0.25978378  0.23952382  0.76085325  1
  Te  Te129  1  0.24524509  0.61787855  0.08387903  1
  Te  Te130  1  0.24430013  0.59905829  0.41654368  1
  Te  Te131  1  0.25288315  0.57994561  0.75714520  1
  Te  Te132  1  0.21974232  0.93309706  0.10352455  1
  Te  Te133  1  0.25231451  0.92971234  0.39160705  1
  Te  Te134  1  0.25702039  0.92797968  0.76497040  1
  Te  Te135  1  0.58784845  0.27437555  0.10017348  1
  Te  Te136  1  0.56506397  0.22662632  0.40144978  1
  Te  Te137  1  0.58034622  0.25530634  0.75720176  1
  Te  Te138  1  0.58977875  0.58602936  0.10098343  1
  Te  Te139  1  0.58922381  0.57582447  0.41087506  1
  Te  Te140  1  0.57499283  0.60079731  0.76858394  1
  Te  Te141  1  0.58231387  0.90133292  0.08909936  1
  Te  Te142  1  0.59395310  0.92844499  0.40157806  1
  Te  Te143  1  0.59891759  0.93031364  0.73654466  1
  Te  Te144  1  0.91531374  0.25737877  0.07839603  1
  Te  Te145  1  0.92051028  0.22606681  0.44571846  1
  Te  Te146  1  0.89803295  0.22433137  0.75949474  1
  Te  Te147  1  0.90193901  0.61346337  0.08464983  1
  Te  Te148  1  0.94793314  0.58884525  0.40935102  1
  Te  Te149  1  0.92163450  0.58684763  0.74802491  1
  Te  Te150  1  0.91426120  0.93834213  0.08073134  1
  Te  Te151  1  0.86053603  0.94206790  0.41274887  1
  Te  Te152  1  0.93163735  0.90040502  0.75336717  1
  Te  Te153  1  0.29308595  0.12736488  0.23976452  1
  Te  Te154  1  0.24752990  0.05922317  0.58623686  1
  Te  Te155  1  0.21683849  0.08116350  0.91807505  1
  Te  Te156  1  0.26321065  0.41387815  0.25445488  1
  Te  Te157  1  0.25024351  0.44205250  0.57044517  1
  Te  Te158  1  0.25406531  0.41843074  0.91756877  1
  Te  Te159  1  0.21507652  0.76746691  0.23516770  1
  Te  Te160  1  0.24661707  0.74406878  0.58982900  1
  Te  Te161  1  0.22116307  0.77080959  0.94335353  1
  Te  Te162  1  0.56404331  0.10802325  0.23997138  1
  Te  Te163  1  0.58674660  0.08730826  0.57039775  1
  Te  Te164  1  0.57071063  0.09616356  0.90682457  1
  Te  Te165  1  0.59913604  0.40526579  0.22351220  1
  Te  Te166  1  0.60159087  0.43887105  0.56991065  1
  Te  Te167  1  0.60367466  0.43944214  0.93002424  1
  Te  Te168  1  0.59090639  0.77437271  0.23116230  1
  Te  Te169  1  0.59520527  0.77049215  0.58018113  1
  Te  Te170  1  0.57555525  0.75249736  0.93256622  1
  Te  Te171  1  0.94190837  0.05672546  0.26000181  1
  Te  Te172  1  0.93723026  0.10020487  0.54739942  1
  Te  Te173  1  0.92175865  0.07825551  0.92333138  1
  Te  Te174  1  0.91937960  0.41191828  0.26052488  1
  Te  Te175  1  0.93089624  0.42844828  0.58346014  1
  Te  Te176  1  0.93846777  0.40454222  0.91023401  1
  Te  Te177  1  0.92538478  0.77697488  0.22736606  1
  Te  Te178  1  0.90035840  0.74861887  0.54986085  1
  Te  Te179  1  0.95946256  0.77517304  0.92909772  1
