# generated using pymatgen
data_In2Te3
_symmetry_space_group_name_H-M   'P 1'
_cell_length_a   18.97550317
_cell_length_b   18.95683867
_cell_length_c   18.96428593
_cell_angle_alpha   90.25061677
_cell_angle_beta   90.07158271
_cell_angle_gamma   89.94172983
_symmetry_Int_Tables_number   1
_chemical_formula_structural   In2Te3
_chemical_formula_sum   'In72 Te108'
_cell_volume   6821.67451575
_cell_formula_units_Z   36
loop_
 _symmetry_equiv_pos_site_id
 _symmetry_equiv_pos_as_xyz
  1  'x, y, z'
loop_
 _atom_site_type_symbol
 _atom_site_label
 _atom_site_symmetry_multiplicity
 _atom_site_fract_x
 _atom_site_fract_y
 _atom_site_fract_z
 _atom_site_occupancy
  In  In0  1  0.66184525  0.17050463  0.50717495  1
  In  In1  1  0.82213440  0.36103869  0.51500138  1
  In  In2  1  0.13003543  0.79685374  0.35651130  1
  In  In3  1  0.35219375  0.81630241  0.79469239  1
  In  In4  1  0.50153565  0.15279691  0.00680760  1
  In  In5  1  0.32096934  0.13891430  0.54495305  1
  In  In6  1  0.68127500  0.70024721  -0.01892643  1
  In  In7  1  0.49775982  0.81877549  -0.00979406  1
  In  In8  1  0.65777679  0.17348980  0.84277249  1
  In  In9  1  0.17313760  0.14680744  0.37206224  1
  In  In10  1  0.49695167  0.00721850  0.17565706  1
  In  In11  1  0.19373179  0.32313853  0.84009123  1
  In  In12  1  0.30251443  -0.02037653  -0.01181407  1
  In  In13  1  0.83867924  0.35090572  0.14477484  1
  In  In14  1  -0.01442699  0.14176989  0.84521349  1
  In  In15  1  0.30905120  0.79130618  0.52291530  1
  In  In16  1  0.17383227  0.50159072  0.67662113  1
  In  In17  1  0.52345032  -0.03442472  0.79552540  1
  In  In18  1  -0.00362283  0.19777835  0.12944904  1
  In  In19  1  0.16522276  0.17049392  0.01344074  1
  In  In20  1  0.83547233  0.51686391  -0.01109308  1
  In  In21  1  0.67823603  0.82711972  0.17079517  1
  In  In22  1  0.02465943  0.50051693  0.83402935  1
  In  In23  1  -0.01535895  0.32360763  0.64014146  1
  In  In24  1  -0.05878068  0.62943204  0.51070441  1
  In  In25  1  0.51725609  0.82998527  0.36088879  1
  In  In26  1  0.15564691  -0.01267470  0.20343985  1
  In  In27  1  0.51293347  -0.01180882  0.54596616  1
  In  In28  1  0.84038726  0.68440109  0.81649470  1
  In  In29  1  0.50624552  0.18497749  0.35130295  1
  In  In30  1  0.50769077  0.31554140  0.52169464  1
  In  In31  1  -0.00621479  0.32385477  0.29780060  1
  In  In32  1  -0.03361449  -0.00514785  0.00033003  1
  In  In33  1  0.16656531  0.67257319  0.16517227  1
  In  In34  1  0.35906191  0.34378200  0.32939831  1
  In  In35  1  -0.02518328  0.33774283  0.01111657  1
  In  In36  1  0.17444301  0.50163310  0.33936780  1
  In  In37  1  0.29519157  0.17275573  0.16675324  1
  In  In38  1  0.81406125  0.81049555  0.33756233  1
  In  In39  1  0.83494191  -0.00579561  0.51650493  1
  In  In40  1  0.15584349  0.82384900  0.00911734  1
  In  In41  1  0.68415521  -0.05492964  -0.04034362  1
  In  In42  1  0.15757190  0.67121979  0.82252686  1
  In  In43  1  0.36252561  -0.03031972  0.36851742  1
  In  In44  1  0.49382763  0.68017515  0.16426697  1
  In  In45  1  0.33626567  0.38132082  -0.01534211  1
  In  In46  1  0.32181711  0.51142727  0.49736996  1
  In  In47  1  0.00297896  -0.02462790  0.65875995  1
  In  In48  1  0.51647557  0.32713480  0.81733958  1
  In  In49  1  -0.00455530  0.52091775  0.16022301  1
  In  In50  1  0.51697852  0.49967346  -0.02503164  1
  In  In51  1  0.81021800  0.48157326  0.68510780  1
  In  In52  1  0.01871991  0.15566597  0.46921060  1
  In  In53  1  0.00544723  0.82471994  0.81461511  1
  In  In54  1  0.36167751  0.16829509  0.81771667  1
  In  In55  1  0.82221096  -0.00153057  0.15670353  1
  In  In56  1  0.50989026  0.34507939  0.14053386  1
  In  In57  1  0.50164523  0.49972323  0.69011232  1
  In  In58  1  0.51774665  0.65248880  0.51995220  1
  In  In59  1  0.13330746  0.35866011  0.18199143  1
  In  In60  1  0.50650457  0.52133399  0.31649671  1
  In  In61  1  0.32853351  0.65235931  -0.00970537  1
  In  In62  1  0.16772353  0.34127655  0.50365208  1
  In  In63  1  -0.01351183  -0.00607877  0.33388201  1
  In  In64  1  0.82627945  0.16889488  0.32124699  1
  In  In65  1  0.66470205  0.16364698  0.15320052  1
  In  In66  1  0.81986500  0.15387560  0.68496215  1
  In  In67  1  0.17617692  -0.01854135  0.80769900  1
  In  In68  1  0.68214229  0.53108273  0.17435615  1
  In  In69  1  0.66981931  0.84452148  0.51513674  1
  In  In70  1  0.68361802  0.50975041  0.51573343  1
  In  In71  1  0.03220314  0.66784210  0.67379565  1
  Te  Te72  1  0.08422512  0.06547069  0.08648224  1
  Te  Te73  1  0.09820931  0.02808488  0.43205094  1
  Te  Te74  1  0.07977505  0.08009783  0.74452350  1
  Te  Te75  1  0.08017128  0.43339126  0.06405915  1
  Te  Te76  1  0.07618648  0.40389232  0.40241569  1
  Te  Te77  1  0.08474872  0.39046809  0.73998095  1
  Te  Te78  1  0.06393370  0.75292890  0.09536576  1
  Te  Te79  1  0.03178788  0.73910590  0.45100189  1
  Te  Te80  1  0.12724099  0.78433407  0.71948430  1
  Te  Te81  1  0.39323617  0.07318649  0.08036262  1
  Te  Te82  1  0.42688518  0.09076738  0.43911142  1
  Te  Te83  1  0.41578755  0.05353256  0.74024437  1
  Te  Te84  1  0.42127147  0.45450712  0.08642793  1
  Te  Te85  1  0.43809859  0.42637229  0.42803300  1
  Te  Te86  1  0.41095803  0.41052696  0.76296613  1
  Te  Te87  1  0.39353925  0.75774029  0.07967896  1
  Te  Te88  1  0.42456416  0.73743895  0.43230345  1
  Te  Te89  1  0.46791996  0.73229119  0.75501346  1
  Te  Te90  1  0.72393522  0.05908424  0.06053338  1
  Te  Te91  1  0.75482322  0.08434358  0.42287403  1
  Te  Te92  1  0.75127347  0.07210206  0.78560635  1
  Te  Te93  1  0.73669090  0.43384778  0.07087395  1
  Te  Te94  1  0.75444706  0.43360768  0.40955304  1
  Te  Te95  1  0.72515081  0.39433241  0.76680653  1
  Te  Te96  1  0.77403711  0.76851408  0.07475429  1
  Te  Te97  1  0.75603839  0.73992786  0.45512725  1
  Te  Te98  1  0.74516511  0.78335247  0.75958337  1
  Te  Te99  1  0.10546896  0.22448723  0.25050926  1
  Te  Te100  1  0.09385105  0.23299075  0.57788362  1
  Te  Te101  1  0.07266156  0.25021802  0.92153125  1
  Te  Te102  1  0.07678567  0.59064102  0.26675570  1
  Te  Te103  1  0.11037480  0.58627621  0.57200440  1
  Te  Te104  1  0.06925665  0.60958418  0.92429888  1
  Te  Te105  1  0.05426698  0.88785521  0.25048335  1
  Te  Te106  1  0.11499238  0.93163563  0.57613211  1
  Te  Te107  1  0.08057590  0.92706753  0.91380491  1
  Te  Te108  1  0.42906790  0.24539536  0.22921565  1
  Te  Te109  1  0.40507904  0.24610822  0.59860975  1
  Te  Te110  1  0.41052514  0.25305418  0.93734926  1
  Te  Te111  1  0.40531679  0.59809833  0.24643523  1
  Te  Te112  1  0.40751192  0.58477207  0.59767048  1
  Te  Te113  1  0.43848188  0.60208957  0.90176289  1
  Te  Te114  1  0.42828571  0.89702918  0.25231583  1
  Te  Te115  1  0.41510986  0.88659118  0.58271423  1
  Te  Te116  1  0.41402571  0.91764048  0.90698722  1
  Te  Te117  1  0.74843841  0.26226633  0.23411485  1
  Te  Te118  1  0.75033062  0.25819693  0.59642078  1
  Te  Te119  1  0.74320204  0.28817024  0.87579341  1
  Te  Te120  1  0.76864959  0.62062811  0.25317023  1
  Te  Te121  1  0.73706106  0.59194346  0.62548330  1
  Te  Te122  1  0.74577948  0.59367982  0.89289079  1
  Te  Te123  1  0.74398823  0.92801826  0.26386669  1
  Te  Te124  1  0.73539989  0.94130741  0.61227873  1
  Te  Te125  1  0.78503175  0.87270306  0.87426595  1
  Te  Te126  1  0.24587944  0.28389936  0.07532098  1
  Te  Te127  1  0.27064171  0.25759842  0.41724294  1
  Te  Te128  1  0.24997442  0.22895038  0.74411030  1
  Te  Te129  1  0.23832347  0.57801954  0.07634448  1
  Te  Te130  1  0.25445532  0.60369783  0.40753344  1
  Te  Te131  1  0.25883424  0.57650133  0.77158804  1
  Te  Te132  1  0.24367311  0.90832873  0.10590624  1
  Te  Te133  1  0.25078030  0.88118451  0.41209695  1
  Te  Te134  1  0.29052211  0.93492417  0.72295775  1
  Te  Te135  1  0.60011196  0.25886712  0.05373794  1
  Te  Te136  1  0.60918786  0.27636046  0.41131181  1
  Te  Te137  1  0.57011743  0.21880255  0.73139148  1
  Te  Te138  1  0.59129080  0.60504176  0.07110205  1
  Te  Te139  1  0.60205229  0.59056565  0.41044850  1
  Te  Te140  1  0.55567908  0.60729496  0.77780684  1
  Te  Te141  1  0.57661023  0.90998996  0.08603295  1
  Te  Te142  1  0.59376057  0.94292197  0.42581456  1
  Te  Te143  1  0.62117731  0.89122814  0.71171975  1
  Te  Te144  1  0.87208549  0.23271923  0.05188732  1
  Te  Te145  1  0.91351017  0.25478644  0.41322139  1
  Te  Te146  1  0.91885999  0.24767405  0.75292895  1
  Te  Te147  1  0.90088333  0.60442661  0.08628731  1
  Te  Te148  1  0.85043577  0.60888210  0.39369277  1
  Te  Te149  1  0.92821081  0.57368444  0.74169105  1
  Te  Te150  1  0.90315490  0.89571703  0.08792608  1
  Te  Te151  1  0.90750002  0.90192266  0.42300520  1
  Te  Te152  1  0.90619138  0.91433318  0.75218385  1
  Te  Te153  1  0.27104688  0.06466220  0.27760744  1
  Te  Te154  1  0.23568954  0.03014059  0.58851373  1
  Te  Te155  1  0.24164875  0.09242887  0.90691066  1
  Te  Te156  1  0.26139761  0.41985504  0.24442422  1
  Te  Te157  1  0.26564203  0.40971103  0.59488945  1
  Te  Te158  1  0.24430566  0.45170666  0.89317476  1
  Te  Te159  1  0.23648426  0.75927567  0.26253659  1
  Te  Te160  1  0.21176469  0.71731481  0.60539247  1
  Te  Te161  1  0.25312015  0.76912717  0.90405557  1
  Te  Te162  1  0.58917269  0.09088470  0.26258622  1
  Te  Te163  1  0.58485487  0.09997840  0.61201575  1
  Te  Te164  1  0.57160468  0.05492212  0.91633827  1
  Te  Te165  1  0.59346833  0.42289867  0.23977795  1
  Te  Te166  1  0.59016563  0.41760511  0.59735711  1
  Te  Te167  1  0.61067257  0.41672066  0.89227138  1
  Te  Te168  1  0.59313513  0.74243802  0.26211466  1
  Te  Te169  1  0.57292450  0.76724191  0.59912379  1
  Te  Te170  1  0.58408003  0.76082091  0.88389063  1
  Te  Te171  1  0.92653907  0.09308446  0.23598537  1
  Te  Te172  1  0.92647337  0.09740378  0.58016942  1
  Te  Te173  1  0.87556378  0.06790864  0.90912092  1
  Te  Te174  1  0.90519411  0.43648264  0.25059008  1
  Te  Te175  1  0.93068976  0.44622312  0.57289885  1
  Te  Te176  1  0.91334905  0.42045794  0.90026867  1
  Te  Te177  1  0.89917917  0.70497450  0.27559445  1
  Te  Te178  1  0.93928977  0.75411041  0.59293237  1
  Te  Te179  1  0.94919690  0.72613540  0.90889871  1
