# generated using pymatgen
data_In2Te3
_symmetry_space_group_name_H-M   'P 1'
_cell_length_a   18.79256691
_cell_length_b   18.78865526
_cell_length_c   18.78927313
_cell_angle_alpha   89.97999750
_cell_angle_beta   90.00593140
_cell_angle_gamma   89.97239829
_symmetry_Int_Tables_number   1
_chemical_formula_structural   In2Te3
_chemical_formula_sum   'In72 Te108'
_cell_volume   6634.24802159
_cell_formula_units_Z   36
loop_
 _symmetry_equiv_pos_site_id
 _symmetry_equiv_pos_as_xyz
  1  'x, y, z'
loop_
 _atom_site_type_symbol
 _atom_site_label
 _atom_site_symmetry_multiplicity
 _atom_site_fract_x
 _atom_site_fract_y
 _atom_site_fract_z
 _atom_site_occupancy
  In  In0  1  0.66946151  -0.00911272  0.34145450  1
  In  In1  1  0.17418049  0.49813674  0.65746784  1
  In  In2  1  0.68021723  0.51466297  0.81670181  1
  In  In3  1  0.52054079  0.53868930  0.35513176  1
  In  In4  1  0.32785597  0.01107789  0.66741328  1
  In  In5  1  0.49894287  0.65579408  0.17177705  1
  In  In6  1  0.02699176  0.01602873  0.67637332  1
  In  In7  1  0.02766952  0.18477917  0.17806222  1
  In  In8  1  0.30399507  0.34442499  -0.00250215  1
  In  In9  1  0.85743053  0.36085649  0.16597520  1
  In  In10  1  0.32105962  0.32820266  0.34527928  1
  In  In11  1  0.68260726  0.80275020  0.48790529  1
  In  In12  1  0.80733450  -0.00518952  0.17936820  1
  In  In13  1  0.01315613  0.81238292  0.16704132  1
  In  In14  1  0.66077357  0.17405709  0.16883373  1
  In  In15  1  0.02208568  0.17096826  0.51800453  1
  In  In16  1  0.84808554  0.17636159  0.32786685  1
  In  In17  1  0.52893711  -0.02470205  0.51870706  1
  In  In18  1  0.66330359  0.14156194  0.49808831  1
  In  In19  1  0.47112262  0.15291407  -0.01353087  1
  In  In20  1  0.65992150  0.37677503  0.33822873  1
  In  In21  1  0.00168814  0.83045516  0.82958518  1
  In  In22  1  0.34013067  0.65896575  -0.00954667  1
  In  In23  1  0.46908761  -0.02203405  0.19574042  1
  In  In24  1  0.17639624  0.34444160  0.17867707  1
  In  In25  1  0.82006544  0.65402450  0.18448760  1
  In  In26  1  0.16869028  0.17421161  -0.03373292  1
  In  In27  1  0.83623793  0.81668976  0.65450886  1
  In  In28  1  0.68610775  0.33042490  0.02334280  1
  In  In29  1  0.16798700  0.50422538  -0.01416341  1
  In  In30  1  0.31936259  -0.00836702  0.32723900  1
  In  In31  1  0.66564144  -0.04004497  -0.01879078  1
  In  In32  1  0.67747959  0.18141510  0.83382290  1
  In  In33  1  0.33509380  0.77824752  0.48278049  1
  In  In34  1  0.82015471  0.53416357  0.64054177  1
  In  In35  1  0.65171130  0.36056795  0.68050273  1
  In  In36  1  0.83373301  0.49046087  -0.01382933  1
  In  In37  1  0.50512815  0.33052149  0.20363823  1
  In  In38  1  0.01398062  0.33163803  0.67112108  1
  In  In39  1  0.30511519  -0.00347807  0.00986752  1
  In  In40  1  0.00068922  0.33094330  -0.01650289  1
  In  In41  1  0.51559510  0.80990750  0.01180326  1
  In  In42  1  0.01156263  0.67556799  -0.01287331  1
  In  In43  1  0.47136369  0.00094370  0.81954107  1
  In  In44  1  0.50602520  0.50991571  0.00999703  1
  In  In45  1  0.84855522  0.16634815  0.65540891  1
  In  In46  1  0.48748678  0.35886454  0.83047108  1
  In  In47  1  0.31191732  0.50040704  0.82932449  1
  In  In48  1  0.15155165  -0.00443139  0.49410095  1
  In  In49  1  0.47589878  0.17868798  0.34953829  1
  In  In50  1  -0.01532211  -0.03054251  0.35991028  1
  In  In51  1  0.02761058  0.49328190  0.47347875  1
  In  In52  1  0.49340709  0.50684949  0.65172665  1
  In  In53  1  0.33009380  0.17403070  0.49515391  1
  In  In54  1  0.49304528  0.33615446  0.51853017  1
  In  In55  1  0.68895677  0.81262836  0.84036850  1
  In  In56  1  0.35442272  0.50931127  0.19236496  1
  In  In57  1  0.49652167  0.82500977  0.66086024  1
  In  In58  1  -0.01004404  0.66787572  0.64747366  1
  In  In59  1  -0.01542944  0.00864570  -0.02523267  1
  In  In60  1  0.67472799  0.82099755  0.19881345  1
  In  In61  1  0.65845477  -0.00151310  0.65505182  1
  In  In62  1  0.83773471  0.82642933  -0.00205201  1
  In  In63  1  0.81652845  0.35021803  0.50360749  1
  In  In64  1  0.31333137  0.51841112  0.48646547  1
  In  In65  1  0.02144178  0.67560150  0.35463375  1
  In  In66  1  0.16112319  0.83985269  0.00131177  1
  In  In67  1  0.16960940  0.00502752  0.17616443  1
  In  In68  1  0.83905824  0.15715336  -0.02793326  1
  In  In69  1  0.33434118  0.83309818  0.82572663  1
  In  In70  1  -0.00131672  0.51356082  0.19664972  1
  In  In71  1  0.17634061  0.82111565  0.63855015  1
  Te  Te72  1  0.08334554  0.07999518  0.07037664  1
  Te  Te73  1  0.07550155  0.08675983  0.39911465  1
  Te  Te74  1  0.10525811  0.12810244  0.74820478  1
  Te  Te75  1  0.07646859  0.41973607  0.08758877  1
  Te  Te76  1  0.09994191  0.40265069  0.38239400  1
  Te  Te77  1  0.08560489  0.43030688  0.75747920  1
  Te  Te78  1  0.11214698  0.72499888  0.09170906  1
  Te  Te79  1  0.12418718  0.75500080  0.43398612  1
  Te  Te80  1  0.08947426  0.74465368  0.74153531  1
  Te  Te81  1  0.40048844  0.07687341  0.09932088  1
  Te  Te82  1  0.42414821  0.06090176  0.43041667  1
  Te  Te83  1  0.40129647  0.11231101  0.75104925  1
  Te  Te84  1  0.41202371  0.41233870  0.08524224  1
  Te  Te85  1  0.43120220  0.41789444  0.40495587  1
  Te  Te86  1  0.39287473  0.41707867  0.72748779  1
  Te  Te87  1  0.40345857  0.74929874  0.09602273  1
  Te  Te88  1  0.44301817  0.72379075  0.39798163  1
  Te  Te89  1  0.42336446  0.73903296  0.75644764  1
  Te  Te90  1  0.74316210  0.08407320  0.06882720  1
  Te  Te91  1  0.77355314  0.07399500  0.41671762  1
  Te  Te92  1  0.75081908  0.08247208  0.74284849  1
  Te  Te93  1  0.74520233  0.44323045  0.10635755  1
  Te  Te94  1  0.77241350  0.45065673  0.40050074  1
  Te  Te95  1  0.77451498  0.42093202  0.74182982  1
  Te  Te96  1  0.74280226  0.74586495  0.08391695  1
  Te  Te97  1  0.74200253  0.69353884  0.39611682  1
  Te  Te98  1  0.74540287  0.72954127  0.73206463  1
  Te  Te99  1  0.07445011  0.28600923  0.27791609  1
  Te  Te100  1  0.11487717  0.26839092  0.58149293  1
  Te  Te101  1  0.05863277  0.23277693  0.88430188  1
  Te  Te102  1  0.10705381  0.59712858  0.25539584  1
  Te  Te103  1  0.09729093  0.59548325  0.56540713  1
  Te  Te104  1  0.08646783  0.58713678  0.89585587  1
  Te  Te105  1  0.08589393  0.90788795  0.26155673  1
  Te  Te106  1  0.06270361  0.90345055  0.57692516  1
  Te  Te107  1  0.09382289  0.93169952  0.90004120  1
  Te  Te108  1  0.39066035  0.23799025  0.23823848  1
  Te  Te109  1  0.39681002  0.25870949  0.59722562  1
  Te  Te110  1  0.39748385  0.26151364  0.90815947  1
  Te  Te111  1  0.39329450  0.61677080  0.29416362  1
  Te  Te112  1  0.41625465  0.59672139  0.55975407  1
  Te  Te113  1  0.42802037  0.57678480  0.89692095  1
  Te  Te114  1  0.39655616  0.87628682  0.27289556  1
  Te  Te115  1  0.39906724  0.90680184  0.57563822  1
  Te  Te116  1  0.42201426  0.91589237  0.93713950  1
  Te  Te117  1  0.74748485  0.26738326  0.25461292  1
  Te  Te118  1  0.73348091  0.24973473  0.58791629  1
  Te  Te119  1  0.77087214  0.27830116  0.90730482  1
  Te  Te120  1  0.73590363  0.58632640  0.28477177  1
  Te  Te121  1  0.73142268  0.62423092  0.55814574  1
  Te  Te122  1  0.74863874  0.59210942  0.92210473  1
  Te  Te123  1  0.77666048  0.89264419  0.28808116  1
  Te  Te124  1  0.74971700  0.91626359  0.56744779  1
  Te  Te125  1  0.78255064  0.92489622  0.89348887  1
  Te  Te126  1  0.24009143  0.23852912  0.08697639  1
  Te  Te127  1  0.22332118  0.25259442  0.42651151  1
  Te  Te128  1  0.23987196  0.18712353  0.77590383  1
  Te  Te129  1  0.25990840  0.57255892  0.08787025  1
  Te  Te130  1  0.21550213  0.62056950  0.42386225  1
  Te  Te131  1  0.25717461  0.60020558  0.73258074  1
  Te  Te132  1  0.25335974  0.89475740  0.11070740  1
  Te  Te133  1  0.25082410  0.89940930  0.42967397  1
  Te  Te134  1  0.23559781  0.91669925  0.74462927  1
  Te  Te135  1  0.56074184  0.25411764  0.07335205  1
  Te  Te136  1  0.59578982  0.25127385  0.41198968  1
  Te  Te137  1  0.57039114  0.25443598  0.75213970  1
  Te  Te138  1  0.59962505  0.60054053  0.07845741  1
  Te  Te139  1  0.61617735  0.60087159  0.45369556  1
  Te  Te140  1  0.58033756  0.58929382  0.73839043  1
  Te  Te141  1  0.58695357  0.92183288  0.10679719  1
  Te  Te142  1  0.57737016  0.88850444  0.40542948  1
  Te  Te143  1  0.58425282  0.91485735  0.76177038  1
  Te  Te144  1  0.90915022  0.24113470  0.08653310  1
  Te  Te145  1  0.91710853  0.25559500  0.43744857  1
  Te  Te146  1  0.91594644  0.25377714  0.75215561  1
  Te  Te147  1  0.92369109  0.59012798  0.08327257  1
  Te  Te148  1  0.92518499  0.59278504  0.43195286  1
  Te  Te149  1  0.90923895  0.58996333  0.74387110  1
  Te  Te150  1  0.92490564  0.91396168  0.08815276  1
  Te  Te151  1  0.91592900  0.86735890  0.44063577  1
  Te  Te152  1  0.92153743  0.91801266  0.73430496  1
  Te  Te153  1  0.23858905  0.09891969  0.26608006  1
  Te  Te154  1  0.23129187  0.09134221  0.58149913  1
  Te  Te155  1  0.26527164  0.08270135  0.89246105  1
  Te  Te156  1  0.24400894  0.44319969  0.27572036  1
  Te  Te157  1  0.25067861  0.40957962  0.56443684  1
  Te  Te158  1  0.21491182  0.39418175  0.88488481  1
  Te  Te159  1  0.20554566  0.72271582  0.30972137  1
  Te  Te160  1  0.28144308  0.71605326  0.60931329  1
  Te  Te161  1  0.24225837  0.74511869  0.91092327  1
  Te  Te162  1  0.57417866  0.08299977  0.26302873  1
  Te  Te163  1  0.55757197  0.10143815  0.60083343  1
  Te  Te164  1  0.58706481  0.08166781  0.91455376  1
  Te  Te165  1  0.58041694  0.45676872  0.23469707  1
  Te  Te166  1  0.60173829  0.43434946  0.55931712  1
  Te  Te167  1  0.59805442  0.41329089  0.92118038  1
  Te  Te168  1  0.57081871  0.74279801  0.27041712  1
  Te  Te169  1  0.58634619  0.73600332  0.58150305  1
  Te  Te170  1  0.58665195  0.73144836  0.91050068  1
  Te  Te171  1  0.92414514  0.07699742  0.23842166  1
  Te  Te172  1  0.92422937  0.06604169  0.57077278  1
  Te  Te173  1  0.92053259  0.08933621  0.86914793  1
  Te  Te174  1  0.91895832  0.42439315  0.28401343  1
  Te  Te175  1  0.92469569  0.42863676  0.58073812  1
  Te  Te176  1  0.94136105  0.43754908  0.90027441  1
  Te  Te177  1  0.91583607  0.74472355  0.26104397  1
  Te  Te178  1  0.91086879  0.74582329  0.54090154  1
  Te  Te179  1  0.90270625  0.73404203  0.89594852  1
