# generated using pymatgen
data_In2Te3
_symmetry_space_group_name_H-M   'P 1'
_cell_length_a   18.77661958
_cell_length_b   18.77585495
_cell_length_c   18.77938054
_cell_angle_alpha   90.07735079
_cell_angle_beta   89.88692849
_cell_angle_gamma   90.00260657
_symmetry_Int_Tables_number   1
_chemical_formula_structural   In2Te3
_chemical_formula_sum   'In72 Te108'
_cell_volume   6620.59695164
_cell_formula_units_Z   36
loop_
 _symmetry_equiv_pos_site_id
 _symmetry_equiv_pos_as_xyz
  1  'x, y, z'
loop_
 _atom_site_type_symbol
 _atom_site_label
 _atom_site_symmetry_multiplicity
 _atom_site_fract_x
 _atom_site_fract_y
 _atom_site_fract_z
 _atom_site_occupancy
  In  In0  1  0.32458444  0.18127544  0.84103917  1
  In  In1  1  0.15959172  0.33919924  0.17906974  1
  In  In2  1  0.52922385  -0.01872541  0.80488301  1
  In  In3  1  0.51230273  0.31459483  0.48194913  1
  In  In4  1  0.47892368  0.49463593  0.33098928  1
  In  In5  1  0.82888148  0.66171559  0.81707637  1
  In  In6  1  0.81121935  0.87432916  0.32544076  1
  In  In7  1  0.49270114  0.50050089  0.66251110  1
  In  In8  1  0.66018399  0.00754187  0.00793023  1
  In  In9  1  0.00788870  0.65843320  0.32222428  1
  In  In10  1  0.35160370  0.34357685  0.00495263  1
  In  In11  1  0.01242382  0.66275134  -0.03774643  1
  In  In12  1  0.29762916  0.32429423  0.37072616  1
  In  In13  1  -0.00480997  0.18009041  0.18621669  1
  In  In14  1  0.81080400  0.33604426  0.51164369  1
  In  In15  1  0.84582596  0.83025092  0.65171024  1
  In  In16  1  0.66124946  0.84367397  0.50501159  1
  In  In17  1  0.64717246  0.67275317  -0.03316766  1
  In  In18  1  0.33898838  0.64926060  -0.00095126  1
  In  In19  1  0.01132997  0.33145907  -0.03567368  1
  In  In20  1  0.81967749  0.15350902  0.33817190  1
  In  In21  1  0.34039351  0.84154316  0.81889302  1
  In  In22  1  0.65336817  0.34739304  -0.02784961  1
  In  In23  1  0.17468552  0.66077876  0.54204887  1
  In  In24  1  0.34266923  0.00139616  0.35768430  1
  In  In25  1  0.00624266  0.86164275  0.14027419  1
  In  In26  1  0.84198211  0.67745413  0.17448002  1
  In  In27  1  0.65640916  0.49039524  0.17878259  1
  In  In28  1  0.14524394  0.66298279  0.79080730  1
  In  In29  1  0.16285964  0.84909196  0.34631190  1
  In  In30  1  0.65652174  0.66820937  0.36240401  1
  In  In31  1  0.14338356  0.02463979  0.79343030  1
  In  In32  1  0.84854473  0.47800390  -0.01988945  1
  In  In33  1  0.82564513  0.00091711  0.81554995  1
  In  In34  1  0.15580264  0.19505291  -0.00937299  1
  In  In35  1  0.14365323  0.00485220  0.51030291  1
  In  In36  1  0.36464573  0.81751249  0.18202304  1
  In  In37  1  0.18753755  0.00884652  0.17499916  1
  In  In38  1  0.35091651  0.01908102  0.00229167  1
  In  In39  1  0.83940662  0.01557832  0.51684197  1
  In  In40  1  0.17943433  0.84436213  -0.02600286  1
  In  In41  1  0.67720689  0.66485240  0.65919837  1
  In  In42  1  -0.01552474  0.82801905  0.51837131  1
  In  In43  1  0.82262219  0.30244631  0.18054097  1
  In  In44  1  0.83517573  0.16531585  0.67034098  1
  In  In45  1  0.83411727  0.49628876  0.67353383  1
  In  In46  1  0.80458787  0.16953124  -0.01347828  1
  In  In47  1  0.02522859  0.35422014  0.36784592  1
  In  In48  1  0.34538127  0.15650255  0.19162335  1
  In  In49  1  0.32753700  0.00216831  0.65142220  1
  In  In50  1  0.16976555  0.33638297  0.80540635  1
  In  In51  1  0.33667100  0.66094697  0.34826090  1
  In  In52  1  0.50708696  0.66070743  0.15328674  1
  In  In53  1  0.31134929  0.34749959  0.64464413  1
  In  In54  1  -0.00118798  0.16344317  0.50827128  1
  In  In55  1  0.84452954  0.83316995  -0.00830054  1
  In  In56  1  0.50519347  0.17275198  0.66946953  1
  In  In57  1  0.49870366  0.00948730  0.51557612  1
  In  In58  1  0.50177454  0.31253804  0.16500390  1
  In  In59  1  0.83540254  0.48267712  0.35666746  1
  In  In60  1  0.67188708  0.32239138  0.67425656  1
  In  In61  1  0.50144890  0.16589684  -0.00476006  1
  In  In62  1  0.17079110  0.64496826  0.15746221  1
  In  In63  1  0.32305263  0.50288264  0.81254685  1
  In  In64  1  -0.00640043  -0.00562291  -0.00176665  1
  In  In65  1  0.01141181  0.31865418  0.66070375  1
  In  In66  1  0.49866607  0.83462472  0.35057928  1
  In  In67  1  0.48930495  0.66935109  0.81674834  1
  In  In68  1  0.67746079  0.86014883  0.16300532  1
  In  In69  1  0.01151542  0.50296376  0.16927242  1
  In  In70  1  0.85039946  0.66522535  0.52927853  1
  In  In71  1  0.48584680  0.65677048  0.50661059  1
  Te  Te72  1  0.08817709  0.08406213  0.08480328  1
  Te  Te73  1  0.06155995  0.07334861  0.40848790  1
  Te  Te74  1  0.06080772  0.12991367  0.73473300  1
  Te  Te75  1  0.08810577  0.41748679  0.06858563  1
  Te  Te76  1  0.11884835  0.43683746  0.44881718  1
  Te  Te77  1  0.09097487  0.43234041  0.72363842  1
  Te  Te78  1  0.08429307  0.74859533  0.07686401  1
  Te  Te79  1  0.08638550  0.74260008  0.42835875  1
  Te  Te80  1  0.08301014  0.76945073  0.70866953  1
  Te  Te81  1  0.44578561  0.07717346  0.10702754  1
  Te  Te82  1  0.43026390  0.10477333  0.42172734  1
  Te  Te83  1  0.40768262  0.07685742  0.76432045  1
  Te  Te84  1  0.42365368  0.42365987  0.10472540  1
  Te  Te85  1  0.40446137  0.41515698  0.43768598  1
  Te  Te86  1  0.41356481  0.39862458  0.74556865  1
  Te  Te87  1  0.43274318  0.75545465  0.05945169  1
  Te  Te88  1  0.39842380  0.76593076  0.44000879  1
  Te  Te89  1  0.40004518  0.74327596  0.71979383  1
  Te  Te90  1  0.73976745  0.09707628  0.09660288  1
  Te  Te91  1  0.73254546  0.08381572  0.43739466  1
  Te  Te92  1  0.72977362  0.08976126  0.74525264  1
  Te  Te93  1  0.76088632  0.41470575  0.09237137  1
  Te  Te94  1  0.72672462  0.39721239  0.40574924  1
  Te  Te95  1  0.74598612  0.41689746  0.76281397  1
  Te  Te96  1  0.74311657  0.73947204  0.07520327  1
  Te  Te97  1  0.76973474  0.75663190  0.42571195  1
  Te  Te98  1  0.73851471  0.76886227  0.75423061  1
  Te  Te99  1  0.09441626  0.24668904  0.28151228  1
  Te  Te100  1  0.10670636  0.25897867  0.55585721  1
  Te  Te101  1  0.07047652  0.22369022  0.86705214  1
  Te  Te102  1  0.11182696  0.55881309  0.26989847  1
  Te  Te103  1  0.09175110  0.54097778  0.58301111  1
  Te  Te104  1  0.10777472  0.57051835  0.90145983  1
  Te  Te105  1  0.07719007  0.93522144  0.25356516  1
  Te  Te106  1  0.08752411  0.89780663  0.60214420  1
  Te  Te107  1  0.07673925  0.91934483  0.89383332  1
  Te  Te108  1  0.41686540  0.25569508  0.28199287  1
  Te  Te109  1  0.41141759  0.24992458  0.57814593  1
  Te  Te110  1  0.43520502  0.26714353  0.90235486  1
  Te  Te111  1  0.40165109  0.58377541  0.23285034  1
  Te  Te112  1  0.39035327  0.57239945  0.58257097  1
  Te  Te113  1  0.43056241  0.55846901  0.91273535  1
  Te  Te114  1  0.43382789  0.93338877  0.25244353  1
  Te  Te115  1  0.42588209  0.90782709  0.59442955  1
  Te  Te116  1  0.42840714  0.92416176  0.91316727  1
  Te  Te117  1  0.71593938  0.23176592  0.25905072  1
  Te  Te118  1  0.73098284  0.22315694  0.57187583  1
  Te  Te119  1  0.75697176  0.27468961  0.89498767  1
  Te  Te120  1  0.75534308  0.58508958  0.26005291  1
  Te  Te121  1  0.74397014  0.56417555  0.56547500  1
  Te  Te122  1  0.74772457  0.57131941  0.90955389  1
  Te  Te123  1  0.72083061  0.96777957  0.25537924  1
  Te  Te124  1  0.74204894  0.93048742  0.60023894  1
  Te  Te125  1  0.74429846  0.91603411  0.91534022  1
  Te  Te126  1  0.26526328  0.24048375  0.09055229  1
  Te  Te127  1  0.22970617  0.22891158  0.46105055  1
  Te  Te128  1  0.24408015  0.23122244  0.72300889  1
  Te  Te129  1  0.25263170  0.55615229  0.07438324  1
  Te  Te130  1  0.25019952  0.58143428  0.43617993  1
  Te  Te131  1  0.25700993  0.59428885  0.71169224  1
  Te  Te132  1  0.26572334  0.90757843  0.09041214  1
  Te  Te133  1  0.25639878  0.91165038  0.44638311  1
  Te  Te134  1  0.23369782  0.91536861  0.73768314  1
  Te  Te135  1  0.60544489  0.24509472  0.07461562  1
  Te  Te136  1  0.58285398  0.18990807  0.42471412  1
  Te  Te137  1  0.57772315  0.25552539  0.76850229  1
  Te  Te138  1  0.58639604  0.56489613  0.06458227  1
  Te  Te139  1  0.57844322  0.56013097  0.43144862  1
  Te  Te140  1  0.59233711  0.57661963  0.75067337  1
  Te  Te141  1  0.57006870  0.91182269  0.07809128  1
  Te  Te142  1  0.59399599  0.93685577  0.40640530  1
  Te  Te143  1  0.59718867  0.86414073  0.74760529  1
  Te  Te144  1  0.92668631  0.25580476  0.07024272  1
  Te  Te145  1  0.91270315  0.25835744  0.41461999  1
  Te  Te146  1  0.90064993  0.27221582  0.74958119  1
  Te  Te147  1  0.91976039  0.58972439  0.07529255  1
  Te  Te148  1  0.93072901  0.57866576  0.42768159  1
  Te  Te149  1  0.93220143  0.57636167  0.75327480  1
  Te  Te150  1  0.88517891  0.93991880  0.09464659  1
  Te  Te151  1  0.91921737  0.92676312  0.42101016  1
  Te  Te152  1  0.92431829  0.91482987  0.74450304  1
  Te  Te153  1  0.24268473  0.09553057  0.28716214  1
  Te  Te154  1  0.25055005  0.09691978  0.56340379  1
  Te  Te155  1  0.23640008  0.07320581  0.91709364  1
  Te  Te156  1  0.26218937  0.41064070  0.25589849  1
  Te  Te157  1  0.21025655  0.43494420  0.57732237  1
  Te  Te158  1  0.24892711  0.41086657  0.91243312  1
  Te  Te159  1  0.24111575  0.75414899  0.25152349  1
  Te  Te160  1  0.27424417  0.73578060  0.62393903  1
  Te  Te161  1  0.25528363  0.73378818  0.89883102  1
  Te  Te162  1  0.56138170  0.16357348  0.28086438  1
  Te  Te163  1  0.59521620  0.06910159  0.61317274  1
  Te  Te164  1  0.59029188  0.08814316  0.89798023  1
  Te  Te165  1  0.58234328  0.39822156  0.27186025  1
  Te  Te166  1  0.58379260  0.40707525  0.58071687  1
  Te  Te167  1  0.55291593  0.44524655  0.93427270  1
  Te  Te168  1  0.58822032  0.74942330  0.25032317  1
  Te  Te169  1  0.57222783  0.75243661  0.58942826  1
  Te  Te170  1  0.57365771  0.77449653  0.88584577  1
  Te  Te171  1  0.91313525  0.07746071  0.25105121  1
  Te  Te172  1  0.94472972  0.06760554  0.61701071  1
  Te  Te173  1  0.91088698  0.08827762  0.91150401  1
  Te  Te174  1  0.92333271  0.40601968  0.24819074  1
  Te  Te175  1  0.92107684  0.41513620  0.57583458  1
  Te  Te176  1  0.93430276  0.42083202  0.87445480  1
  Te  Te177  1  0.92477217  0.77299121  0.25982681  1
  Te  Te178  1  0.95707321  0.71380337  0.62944693  1
  Te  Te179  1  0.92811449  0.76220159  0.88589012  1
