# generated using pymatgen
data_In2Te3
_symmetry_space_group_name_H-M   'P 1'
_cell_length_a   18.93264928
_cell_length_b   18.92383633
_cell_length_c   18.92948806
_cell_angle_alpha   89.99396242
_cell_angle_beta   90.07895412
_cell_angle_gamma   90.09428623
_symmetry_Int_Tables_number   1
_chemical_formula_structural   In2Te3
_chemical_formula_sum   'In72 Te108'
_cell_volume   6782.01021078
_cell_formula_units_Z   36
loop_
 _symmetry_equiv_pos_site_id
 _symmetry_equiv_pos_as_xyz
  1  'x, y, z'
loop_
 _atom_site_type_symbol
 _atom_site_label
 _atom_site_symmetry_multiplicity
 _atom_site_fract_x
 _atom_site_fract_y
 _atom_site_fract_z
 _atom_site_occupancy
  In  In0  1  -0.01926311  0.83693778  0.16374596  1
  In  In1  1  0.63294470  0.50321122  0.83061274  1
  In  In2  1  0.49292804  0.32828870  0.52040763  1
  In  In3  1  0.50511549  0.67195613  0.50012508  1
  In  In4  1  0.13127768  0.61249981  0.14871087  1
  In  In5  1  0.48316775  0.19849570  0.35758759  1
  In  In6  1  0.02660105  0.17995815  0.86265886  1
  In  In7  1  0.67539313  0.65302844  -0.00957473  1
  In  In8  1  0.82065635  0.81702926  0.31122603  1
  In  In9  1  0.18378444  0.82275811  0.34564784  1
  In  In10  1  0.85798128  0.01779646  0.15046812  1
  In  In11  1  0.66967038  0.83810342  0.49577669  1
  In  In12  1  0.67031496  0.31905823  0.31916494  1
  In  In13  1  0.86301539  0.63600413  0.16670808  1
  In  In14  1  0.84362492  0.18091982  0.35028575  1
  In  In15  1  0.68811913  0.15104472  0.18214497  1
  In  In16  1  0.47156993  0.03236580  0.16179892  1
  In  In17  1  0.34551684  0.83924887  0.14896829  1
  In  In18  1  0.49923434  0.35474451  0.15060332  1
  In  In19  1  0.33998831  0.01476858  -0.01010905  1
  In  In20  1  0.67747797  0.14128958  0.53349743  1
  In  In21  1  0.20931520  0.34875235  0.87449146  1
  In  In22  1  0.83733965  -0.02062985  0.50987361  1
  In  In23  1  0.15858817  0.35390114  0.51079385  1
  In  In24  1  0.01430360  0.81267213  0.49857756  1
  In  In25  1  0.00818272  0.23549366  0.14385038  1
  In  In26  1  0.01535331  0.00824663  0.33099777  1
  In  In27  1  0.15822591  0.19353808  0.32288894  1
  In  In28  1  0.82673662  0.49661350  0.65086425  1
  In  In29  1  0.01323042  0.00337915  0.00850794  1
  In  In30  1  0.32611891  0.50860968  0.13777179  1
  In  In31  1  0.18408009  0.02750603  0.17448032  1
  In  In32  1  0.66458076  -0.01268728  -0.01496527  1
  In  In33  1  0.00170546  0.49621655  0.47114671  1
  In  In34  1  0.31132596  0.64730207  0.31534539  1
  In  In35  1  0.32064838  0.17393745  0.83990520  1
  In  In36  1  0.50707357  0.15995325  0.68882407  1
  In  In37  1  0.62761584  -0.02375177  0.70769554  1
  In  In38  1  0.67415401  0.48564527  0.15992683  1
  In  In39  1  0.66412063  0.50366962  0.50171774  1
  In  In40  1  0.81660552  -0.00733700  0.83347174  1
  In  In41  1  -0.02159242  0.81671502  0.84273625  1
  In  In42  1  0.51877867  0.82792094  -0.00180712  1
  In  In43  1  0.33394059  0.16280729  0.52282869  1
  In  In44  1  0.33752991  0.68369348  0.68609099  1
  In  In45  1  0.32201915  0.50251506  0.49652771  1
  In  In46  1  0.18770235  0.00884180  0.82720409  1
  In  In47  1  0.82396957  0.65254503  0.83531789  1
  In  In48  1  0.18494232  0.66152230  0.82214870  1
  In  In49  1  0.32417303  0.82541624  0.51208543  1
  In  In50  1  0.00391070  -0.00425822  0.68640461  1
  In  In51  1  0.47093268  0.51521905  -0.01211768  1
  In  In52  1  0.48888554  0.68566665  0.17146754  1
  In  In53  1  0.85639371  0.49260259  0.31765771  1
  In  In54  1  -0.02074593  0.66436671  0.65330953  1
  In  In55  1  0.64572388  0.63766716  0.69162425  1
  In  In56  1  0.32733007  0.36178893  0.32795142  1
  In  In57  1  0.65374017  -0.02554807  0.33268423  1
  In  In58  1  0.84629380  0.30583898  0.48660691  1
  In  In59  1  0.48606606  0.83932637  0.31210616  1
  In  In60  1  0.17241483  0.84336626  0.66011576  1
  In  In61  1  0.68482107  0.32146262  -0.00333301  1
  In  In62  1  0.65130079  0.32334381  0.65377236  1
  In  In63  1  0.16397051  0.80640161  -0.01123291  1
  In  In64  1  0.49586129  0.18118069  -0.01527169  1
  In  In65  1  0.82797247  0.32331631  0.83840864  1
  In  In66  1  0.34465777  -0.00890432  0.65942995  1
  In  In67  1  -0.01440124  0.17180766  0.49005980  1
  In  In68  1  0.66534517  0.80929214  0.14541620  1
  In  In69  1  0.00679700  0.49322887  0.87660570  1
  In  In70  1  0.18079183  0.51702339  0.67243619  1
  In  In71  1  0.00960360  0.33143104  0.69449278  1
  Te  Te72  1  0.08172901  0.10557880  0.09551442  1
  Te  Te73  1  0.09759219  0.09260655  0.42376004  1
  Te  Te74  1  0.09464300  0.09977825  0.74999659  1
  Te  Te75  1  0.06985343  0.47758435  0.10506649  1
  Te  Te76  1  0.10489063  0.42548951  0.39257041  1
  Te  Te77  1  0.09876094  0.42944960  0.76889947  1
  Te  Te78  1  0.06670434  0.73993856  0.08389728  1
  Te  Te79  1  0.09078789  0.72894776  0.40736748  1
  Te  Te80  1  0.07777533  0.74837049  0.74182406  1
  Te  Te81  1  0.38620204  0.12697752  0.08193107  1
  Te  Te82  1  0.42614464  0.08923046  0.43472452  1
  Te  Te83  1  0.41133107  0.07410943  0.76773277  1
  Te  Te84  1  0.39483758  0.39443949  0.04974073  1
  Te  Te85  1  0.43043594  0.42516106  0.42214978  1
  Te  Te86  1  0.51593212  0.44096774  0.75332593  1
  Te  Te87  1  0.40811425  0.73803923  0.05552090  1
  Te  Te88  1  0.40153861  0.74360113  0.39692009  1
  Te  Te89  1  0.43723069  0.78631444  0.72682352  1
  Te  Te90  1  0.75680825  0.08901765  0.06316272  1
  Te  Te91  1  0.75028314  0.07297064  0.40993042  1
  Te  Te92  1  0.73071620  0.07400306  0.74615314  1
  Te  Te93  1  0.76796111  0.40087509  0.08829336  1
  Te  Te94  1  0.75705368  0.40927955  0.41739214  1
  Te  Te95  1  0.74076182  0.41754986  0.74672408  1
  Te  Te96  1  0.77284581  0.73016342  0.08034167  1
  Te  Te97  1  0.74276336  0.74432135  0.41051685  1
  Te  Te98  1  0.73349978  0.73655306  0.75712376  1
  Te  Te99  1  0.12852150  0.28894447  0.21185964  1
  Te  Te100  1  0.07857762  0.24980054  0.58620833  1
  Te  Te101  1  0.07710799  0.29143763  0.95472717  1
  Te  Te102  1  0.05070234  0.54279058  0.25579325  1
  Te  Te103  1  0.07847652  0.57712640  0.57850846  1
  Te  Te104  1  0.10426692  0.59247502  0.92467935  1
  Te  Te105  1  0.09018850  0.91544890  0.23628164  1
  Te  Te106  1  0.08074168  0.92741315  0.57311006  1
  Te  Te107  1  0.08465629  0.91475189  0.90052171  1
  Te  Te108  1  0.41298953  0.26686344  0.24349180  1
  Te  Te109  1  0.40900204  0.25535023  0.62063553  1
  Te  Te110  1  0.42370323  0.26713099  0.89029115  1
  Te  Te111  1  0.41960410  0.57113459  0.24224808  1
  Te  Te112  1  0.40755237  0.59249901  0.58468729  1
  Te  Te113  1  0.40925517  0.59893565  0.88439632  1
  Te  Te114  1  0.38961056  0.94101399  0.25344406  1
  Te  Te115  1  0.43093865  0.88553568  0.59709708  1
  Te  Te116  1  0.43610533  0.92599601  0.91954493  1
  Te  Te117  1  0.78068251  0.26143012  0.23405130  1
  Te  Te118  1  0.76885917  0.24065889  0.60133268  1
  Te  Te119  1  0.72887602  0.22792102  0.89232372  1
  Te  Te120  1  0.74938545  0.58020128  0.25187785  1
  Te  Te121  1  0.74996268  0.60258367  0.57992860  1
  Te  Te122  1  0.75541153  0.54720103  0.92003740  1
  Te  Te123  1  0.75301490  0.92770976  0.22571581  1
  Te  Te124  1  0.73384754  0.92407091  0.60307388  1
  Te  Te125  1  0.74716258  0.89060080  0.91433357  1
  Te  Te126  1  0.21704748  0.28272282  0.01098400  1
  Te  Te127  1  0.26011779  0.26656105  0.42806900  1
  Te  Te128  1  0.23106616  0.25947977  0.76039429  1
  Te  Te129  1  0.24616234  0.59968531  0.05054176  1
  Te  Te130  1  0.22684891  0.56359027  0.40172516  1
  Te  Te131  1  0.28973233  0.55583359  0.77204335  1
  Te  Te132  1  0.24022451  0.92081869  0.06864902  1
  Te  Te133  1  0.25071857  0.92109620  0.42898289  1
  Te  Te134  1  0.26763521  0.89884382  0.76348114  1
  Te  Te135  1  0.58970801  0.24107744  0.10341435  1
  Te  Te136  1  0.60823583  0.25169451  0.44271283  1
  Te  Te137  1  0.58756069  0.25628495  0.76778828  1
  Te  Te138  1  0.57514910  0.58520094  0.08696607  1
  Te  Te139  1  0.57870857  0.58098043  0.41133731  1
  Te  Te140  1  0.51868692  0.59534806  0.77430303  1
  Te  Te141  1  0.56816174  0.92637280  0.11079640  1
  Te  Te142  1  0.55387553  0.91336456  0.42646168  1
  Te  Te143  1  0.54333373  0.88421400  0.78763301  1
  Te  Te144  1  0.92054722  0.25759245  0.02952504  1
  Te  Te145  1  0.95583028  0.27899807  0.38420328  1
  Te  Te146  1  0.92052645  0.23016506  0.76152831  1
  Te  Te147  1  0.92932971  0.53789417  0.07839544  1
  Te  Te148  1  0.89697258  0.58529070  0.42399185  1
  Te  Te149  1  0.92535692  0.55683257  0.75195787  1
  Te  Te150  1  0.90311502  0.90832730  0.05487817  1
  Te  Te151  1  0.91264460  0.91548838  0.39370863  1
  Te  Te152  1  0.90267806  0.89892184  0.74131845  1
  Te  Te153  1  0.26252120  0.10497543  0.26930809  1
  Te  Te154  1  0.24290895  0.07617352  0.59814495  1
  Te  Te155  1  0.22464329  0.10084987  0.94011452  1
  Te  Te156  1  0.24232405  0.41716609  0.21990365  1
  Te  Te157  1  0.26474115  0.41070193  0.60359681  1
  Te  Te158  1  0.24463943  0.44582373  0.98519150  1
  Te  Te159  1  0.24684019  0.75008090  0.22372813  1
  Te  Te160  1  0.23318601  0.72729689  0.58347515  1
  Te  Te161  1  0.26571913  0.76458399  0.89262340  1
  Te  Te162  1  0.57407950  0.09346480  0.26849817  1
  Te  Te163  1  0.56450341  0.06178126  0.58906073  1
  Te  Te164  1  0.56697729  0.07206558  0.91689170  1
  Te  Te165  1  0.57755831  0.42278612  0.26207719  1
  Te  Te166  1  0.56371656  0.44462364  0.60188063  1
  Te  Te167  1  0.57674332  0.41409334  0.94197598  1
  Te  Te168  1  0.59532907  0.74492937  0.26311766  1
  Te  Te169  1  0.59455945  0.74771453  0.59445061  1
  Te  Te170  1  0.59664924  0.74404544  0.90485555  1
  Te  Te171  1  0.93569882  0.10663167  0.24623718  1
  Te  Te172  1  0.91570867  0.08003824  0.59001019  1
  Te  Te173  1  0.92530989  0.07599293  0.90956013  1
  Te  Te174  1  0.94619869  0.43739927  0.20967187  1
  Te  Te175  1  0.92527632  0.40345070  0.58273841  1
  Te  Te176  1  0.91716827  0.38903328  0.94164361  1
  Te  Te177  1  0.93526600  0.73076559  0.26228668  1
  Te  Te178  1  0.90261932  0.76471890  0.57977038  1
  Te  Te179  1  0.92185470  0.71298736  0.92744393  1
