# generated using pymatgen
data_In2Te3
_symmetry_space_group_name_H-M   'P 1'
_cell_length_a   18.77993455
_cell_length_b   18.77768564
_cell_length_c   18.77493714
_cell_angle_alpha   90.04143208
_cell_angle_beta   89.83825409
_cell_angle_gamma   90.04788656
_symmetry_Int_Tables_number   1
_chemical_formula_structural   In2Te3
_chemical_formula_sum   'In72 Te108'
_cell_volume   6620.83302612
_cell_formula_units_Z   36
loop_
 _symmetry_equiv_pos_site_id
 _symmetry_equiv_pos_as_xyz
  1  'x, y, z'
loop_
 _atom_site_type_symbol
 _atom_site_label
 _atom_site_symmetry_multiplicity
 _atom_site_fract_x
 _atom_site_fract_y
 _atom_site_fract_z
 _atom_site_occupancy
  In  In0  1  0.31424804  0.50132251  0.82232345  1
  In  In1  1  0.32648227  0.01217457  0.34101141  1
  In  In2  1  0.49972646  0.17792423  -0.01074589  1
  In  In3  1  0.70247664  0.69598791  0.01816459  1
  In  In4  1  0.84783959  0.66640518  0.84500245  1
  In  In5  1  0.49247868  0.53303358  0.65489137  1
  In  In6  1  0.84433434  0.48788066  0.65916958  1
  In  In7  1  0.32489391  0.15464634  0.16948420  1
  In  In8  1  0.34983106  0.35856290  0.35791534  1
  In  In9  1  0.68974747  0.33831679  -0.01408932  1
  In  In10  1  0.66967385  0.84444075  0.52073697  1
  In  In11  1  0.70802738  0.17203962  0.17078961  1
  In  In12  1  0.14425908  0.65546626  0.17758116  1
  In  In13  1  0.30482218  0.52538608  0.18251587  1
  In  In14  1  0.00289569  -0.02092821  0.01989965  1
  In  In15  1  0.49385582  0.33119090  0.17595783  1
  In  In16  1  -0.00461798  0.83478230  0.46953736  1
  In  In17  1  0.29844931  0.67154443  -0.02370813  1
  In  In18  1  0.69217639  0.01732962  0.02433432  1
  In  In19  1  0.83279729  0.50652701  0.01682742  1
  In  In20  1  0.49998983  0.48215584  0.37790216  1
  In  In21  1  0.15950971  0.19559669  0.65396393  1
  In  In22  1  0.89572708  0.34063440  0.16948540  1
  In  In23  1  0.83806096  -0.00782230  0.82244012  1
  In  In24  1  0.68252982  0.19335326  0.83682739  1
  In  In25  1  0.68311046  0.64215232  0.34775508  1
  In  In26  1  0.00047623  0.18745917  0.51213042  1
  In  In27  1  0.13282937  0.47484816  0.34680526  1
  In  In28  1  0.14723809  0.68256067  0.50033293  1
  In  In29  1  0.48897276  0.50599614  -0.00504020  1
  In  In30  1  0.83406893  0.16445195  0.67997824  1
  In  In31  1  0.33605512  0.83080559  0.51347238  1
  In  In32  1  0.32118011  0.84924613  0.14246621  1
  In  In33  1  0.17411115  0.49119516  0.64151556  1
  In  In34  1  0.83941184  0.83209023  0.64154816  1
  In  In35  1  0.86896285  0.64617606  0.48368619  1
  In  In36  1  0.15871898  0.32444547  0.82796765  1
  In  In37  1  0.48104902  0.35802445  0.82673901  1
  In  In38  1  0.51369746  0.68024379  0.18107622  1
  In  In39  1  0.69336147  0.52573129  0.18032194  1
  In  In40  1  0.34528204  0.18182967  0.47899432  1
  In  In41  1  -0.01336956  -0.00308804  0.65482058  1
  In  In42  1  0.14386440  0.79480310  0.68962714  1
  In  In43  1  0.11393949  0.35159749  0.15555260  1
  In  In44  1  0.16319009  0.18219162  0.31355323  1
  In  In45  1  0.67147955  0.65448567  0.66842190  1
  In  In46  1  0.31399204  -0.00381203  -0.01139167  1
  In  In47  1  0.51800102  0.13833505  0.63860231  1
  In  In48  1  0.84026815  0.83369322  0.32164883  1
  In  In49  1  0.33767137  -0.01080810  0.65897111  1
  In  In50  1  0.15465556  0.13564882  0.01157430  1
  In  In51  1  0.67725999  0.33801377  0.66883204  1
  In  In52  1  0.84150633  0.34523080  0.48931989  1
  In  In53  1  0.53064386  0.14145495  0.32554359  1
  In  In54  1  0.32523556  0.66129808  0.33893186  1
  In  In55  1  -0.00663596  0.51165869  0.83778957  1
  In  In56  1  -0.02083917  0.00111736  0.30495117  1
  In  In57  1  0.68809271  0.33527720  0.32783418  1
  In  In58  1  0.47616763  0.80897606  0.68691647  1
  In  In59  1  0.31347970  0.33750655  -0.01418674  1
  In  In60  1  -0.00351263  0.18405902  0.82879849  1
  In  In61  1  0.00388107  0.82361899  0.17559070  1
  In  In62  1  0.65397615  0.84436206  0.83995420  1
  In  In63  1  0.15308612  -0.01429283  0.84698015  1
  In  In64  1  0.50208651  0.83298219  0.00082837  1
  In  In65  1  0.84565191  0.33496829  0.84452516  1
  In  In66  1  0.49944619  0.83276479  0.34788251  1
  In  In67  1  0.49690289  -0.01183265  0.82302108  1
  In  In68  1  0.17042082  -0.00824936  0.48347694  1
  In  In69  1  -0.00170128  0.65710914  -0.00241137  1
  In  In70  1  0.49977355  0.33895668  0.49794133  1
  In  In71  1  0.52929359  0.01513849  0.18204505  1
  Te  Te72  1  0.05549745  0.08634504  0.10823803  1
  Te  Te73  1  0.07879197  0.09065493  0.41412914  1
  Te  Te74  1  0.08181370  0.08486526  0.73784899  1
  Te  Te75  1  0.03851856  0.43674243  0.06526863  1
  Te  Te76  1  0.05568328  0.39392522  0.44607857  1
  Te  Te77  1  0.07363704  0.42010461  0.74648720  1
  Te  Te78  1  0.09506149  0.75296604  0.07250809  1
  Te  Te79  1  0.06791272  0.73486331  0.38313947  1
  Te  Te80  1  0.07235930  0.74624872  0.81061277  1
  Te  Te81  1  0.42096413  0.07263263  0.07739639  1
  Te  Te82  1  0.43707236  0.07070172  0.42701276  1
  Te  Te83  1  0.41447227  0.08924234  0.74487526  1
  Te  Te84  1  0.39898107  0.42046524  0.08480923  1
  Te  Te85  1  0.37629965  0.45583435  0.48323497  1
  Te  Te86  1  0.39964046  0.42466287  0.72000155  1
  Te  Te87  1  0.40855147  0.73057530  0.08071785  1
  Te  Te88  1  0.42613589  0.72773056  0.43232852  1
  Te  Te89  1  0.38359046  0.73757556  0.77657806  1
  Te  Te90  1  0.81085402  0.08502781  0.09596574  1
  Te  Te91  1  0.69022861  0.06701512  0.41671880  1
  Te  Te92  1  0.73132653  0.07639763  0.75183002  1
  Te  Te93  1  0.75475414  0.40188214  0.11216347  1
  Te  Te94  1  0.75268409  0.43819797  0.41295912  1
  Te  Te95  1  0.75228170  0.42788116  0.76727655  1
  Te  Te96  1  0.77707607  0.77383072  0.11903680  1
  Te  Te97  1  0.76169700  0.75282751  0.43516036  1
  Te  Te98  1  0.75266753  0.75900819  0.75189157  1
  Te  Te99  1  0.05067871  0.25026239  0.24304982  1
  Te  Te100  1  0.08777349  0.29778514  0.57003361  1
  Te  Te101  1  0.08066205  0.24886809  0.93680117  1
  Te  Te102  1  0.05937132  0.54361650  0.23394784  1
  Te  Te103  1  0.07228412  0.58131288  0.57828290  1
  Te  Te104  1  0.09760208  0.61260666  0.88667839  1
  Te  Te105  1  0.08618174  0.90751337  0.26732626  1
  Te  Te106  1  0.08922310  0.90473136  0.58005907  1
  Te  Te107  1  0.06331767  0.88818309  0.91393893  1
  Te  Te108  1  0.40848484  0.23440630  0.27020703  1
  Te  Te109  1  0.42055881  0.24861474  0.59250833  1
  Te  Te110  1  0.40033564  0.24743436  0.89809963  1
  Te  Te111  1  0.43103632  0.57109179  0.25737966  1
  Te  Te112  1  0.40885618  0.59811534  0.55389975  1
  Te  Te113  1  0.41083790  0.59362567  0.90103456  1
  Te  Te114  1  0.41936992  0.91814416  0.24515450  1
  Te  Te115  1  0.44153610  0.91927859  0.57476654  1
  Te  Te116  1  0.40285128  0.90189834  0.90654120  1
  Te  Te117  1  0.79386206  0.23940435  0.27622348  1
  Te  Te118  1  0.75529077  0.24754657  0.57679532  1
  Te  Te119  1  0.79055672  0.22350160  0.94281013  1
  Te  Te120  1  0.79279421  0.60957793  0.25055214  1
  Te  Te121  1  0.75898072  0.57749584  0.57018208  1
  Te  Te122  1  0.74381770  0.58266477  0.92009401  1
  Te  Te123  1  0.77027633  0.90078376  0.20980494  1
  Te  Te124  1  0.75639975  0.94308612  0.59156019  1
  Te  Te125  1  0.75666851  0.91507354  0.92779356  1
  Te  Te126  1  0.23849147  0.25258070  0.09050790  1
  Te  Te127  1  0.23608413  0.26755933  0.41819946  1
  Te  Te128  1  0.25891779  0.25971445  0.74066600  1
  Te  Te129  1  0.22080370  0.57375936  0.06786933  1
  Te  Te130  1  0.22474615  0.57722791  0.41461559  1
  Te  Te131  1  0.23746089  0.59028400  0.73306289  1
  Te  Te132  1  0.21583867  0.91950748  0.06787530  1
  Te  Te133  1  0.25184809  0.89123228  0.40165942  1
  Te  Te134  1  0.23655056  0.91083994  0.74048589  1
  Te  Te135  1  0.59590662  0.24283302  0.08807790  1
  Te  Te136  1  0.59269999  0.25125213  0.41431961  1
  Te  Te137  1  0.57434754  0.25269838  0.74853545  1
  Te  Te138  1  0.59072964  0.58600424  0.08164349  1
  Te  Te139  1  0.57988776  0.58982907  0.44047960  1
  Te  Te140  1  0.57841532  0.58784444  0.76129039  1
  Te  Te141  1  0.59815052  0.91060664  0.08949950  1
  Te  Te142  1  0.59758835  0.92491164  0.41409203  1
  Te  Te143  1  0.58708313  0.91632330  0.72524532  1
  Te  Te144  1  0.89197145  0.23702042  0.06647011  1
  Te  Te145  1  0.91356091  0.24373326  0.40475274  1
  Te  Te146  1  0.92674951  0.27584096  0.72788804  1
  Te  Te147  1  0.90491331  0.60228605  0.10290036  1
  Te  Te148  1  0.91326968  0.53459750  0.39644459  1
  Te  Te149  1  0.92389819  0.59768428  0.73214155  1
  Te  Te150  1  0.89757910  0.89579955  0.09528808  1
  Te  Te151  1  0.89575833  0.93734235  0.42007611  1
  Te  Te152  1  0.92986965  0.89313555  0.75081874  1
  Te  Te153  1  0.22498767  0.06203046  0.23787385  1
  Te  Te154  1  0.25175087  0.08878834  0.57063480  1
  Te  Te155  1  0.24823346  0.09651143  0.89515970  1
  Te  Te156  1  0.24474874  0.40381542  0.25055128  1
  Te  Te157  1  0.25550108  0.39574835  0.56215606  1
  Te  Te158  1  0.21736353  0.43322772  0.92101663  1
  Te  Te159  1  0.25160623  0.74818405  0.23817363  1
  Te  Te160  1  0.25341224  0.73603298  0.59913528  1
  Te  Te161  1  0.26299534  0.76820301  0.87215655  1
  Te  Te162  1  0.65358928  0.05655424  0.26579656  1
  Te  Te163  1  0.63034154  0.08580802  0.55970128  1
  Te  Te164  1  0.58590353  0.07411779  0.91717149  1
  Te  Te165  1  0.58605256  0.42928078  0.25248790  1
  Te  Te166  1  0.58954349  0.42676291  0.58365874  1
  Te  Te167  1  0.58874927  0.42692454  0.90951532  1
  Te  Te168  1  0.60744975  0.75741281  0.26829727  1
  Te  Te169  1  0.57568683  0.74470076  0.59023790  1
  Te  Te170  1  0.58563933  0.73411116  0.91928947  1
  Te  Te171  1  0.86977582  0.07728997  0.24249136  1
  Te  Te172  1  0.89956655  0.08339070  0.56603445  1
  Te  Te173  1  0.93598647  0.06952376  0.90866745  1
  Te  Te174  1  0.93446946  0.43734131  0.27419040  1
  Te  Te175  1  0.94432722  0.43892549  0.55429871  1
  Te  Te176  1  0.93652510  0.41202941  0.94652807  1
  Te  Te177  1  0.94277695  0.73161518  0.27991144  1
  Te  Te178  1  0.94275960  0.73955886  0.57931349  1
  Te  Te179  1  0.90232828  0.75979538  0.94360661  1
