# generated using pymatgen
data_In2Te3
_symmetry_space_group_name_H-M   'P 1'
_cell_length_a   18.85463568
_cell_length_b   18.87121505
_cell_length_c   18.87542315
_cell_angle_alpha   90.05685754
_cell_angle_beta   89.96225404
_cell_angle_gamma   89.99590664
_symmetry_Int_Tables_number   1
_chemical_formula_structural   In2Te3
_chemical_formula_sum   'In72 Te108'
_cell_volume   6716.05735209
_cell_formula_units_Z   36
loop_
 _symmetry_equiv_pos_site_id
 _symmetry_equiv_pos_as_xyz
  1  'x, y, z'
loop_
 _atom_site_type_symbol
 _atom_site_label
 _atom_site_symmetry_multiplicity
 _atom_site_fract_x
 _atom_site_fract_y
 _atom_site_fract_z
 _atom_site_occupancy
  In  In0  1  0.34029428  0.82134359  0.84054190  1
  In  In1  1  0.47853918  0.67875747  0.49929554  1
  In  In2  1  0.31870976  0.50841688  0.17633885  1
  In  In3  1  0.30073319  0.51092030  0.78322985  1
  In  In4  1  0.49392534  0.65563745  0.81108015  1
  In  In5  1  0.49634831  -0.00515792  0.82181861  1
  In  In6  1  0.68850578  -0.01372402  0.68072366  1
  In  In7  1  0.14814636  0.82226876  0.33789701  1
  In  In8  1  0.30433718  -0.00501208  0.34211479  1
  In  In9  1  0.18063503  0.32565293  0.48713942  1
  In  In10  1  -0.01311760  0.30792900  0.02010003  1
  In  In11  1  0.67575163  0.32868551  0.34158790  1
  In  In12  1  0.16761246  0.81605308  0.66556564  1
  In  In13  1  0.64567069  0.33607545  0.67721554  1
  In  In14  1  0.01078942  0.86394662  0.83652624  1
  In  In15  1  0.50441326  0.32475146  0.18498509  1
  In  In16  1  0.48042815  0.16076139  0.32755011  1
  In  In17  1  0.00464228  0.14201624  0.84875483  1
  In  In18  1  0.48839741  0.15162015  0.00632965  1
  In  In19  1  0.02018872  0.68775569  -0.00407753  1
  In  In20  1  0.50075611  0.84910755  0.66106467  1
  In  In21  1  0.48944845  -0.01573572  0.48201255  1
  In  In22  1  0.02869913  0.52770602  0.52015409  1
  In  In23  1  0.51600273  0.64579568  0.15808033  1
  In  In24  1  0.49163091  0.18161865  0.66868680  1
  In  In25  1  -0.00437696  0.84993845  0.14673013  1
  In  In26  1  0.84704334  0.84039178  0.34610861  1
  In  In27  1  0.46582557  0.32047227  0.84904398  1
  In  In28  1  0.81282216  0.33523374  0.84956015  1
  In  In29  1  0.83674352  0.67933961  0.15935679  1
  In  In30  1  0.85307130  0.66505489  0.82112510  1
  In  In31  1  0.67103513  -0.01300791  0.00939355  1
  In  In32  1  0.65255614  0.14127411  0.50600593  1
  In  In33  1  0.00533814  0.15316217  0.17164970  1
  In  In34  1  0.64357135  0.51849633  0.83449462  1
  In  In35  1  0.83467762  -0.00687971  0.15576639  1
  In  In36  1  0.51324040  0.53666028  0.00491713  1
  In  In37  1  0.04783209  0.02165595  0.36001833  1
  In  In38  1  0.49729666  0.84954223  -0.00578397  1
  In  In39  1  0.33930469  0.17056740  0.16427859  1
  In  In40  1  0.85172194  0.13989044  0.67500063  1
  In  In41  1  0.02836961  -0.01113584  0.65262108  1
  In  In42  1  0.15664870  0.33777574  0.82273275  1
  In  In43  1  0.48964186  0.48296567  0.34261047  1
  In  In44  1  0.68881882  0.35548374  0.01496194  1
  In  In45  1  0.68613353  0.51012906  0.48933207  1
  In  In46  1  0.82995939  0.53716951  0.65582820  1
  In  In47  1  0.49759764  0.51002272  0.67789954  1
  In  In48  1  0.68306670  0.67956827  0.31899830  1
  In  In49  1  0.86801552  0.80725811  0.63541391  1
  In  In50  1  0.02222366  0.64334849  0.33916368  1
  In  In51  1  0.82201488  -0.01007301  0.84875271  1
  In  In52  1  0.33958069  0.32991193  0.01621384  1
  In  In53  1  0.67133896  0.68471074  0.01203780  1
  In  In54  1  0.17208659  0.33736987  0.17715740  1
  In  In55  1  0.33686000  0.83187389  0.18731397  1
  In  In56  1  -0.00413906  0.35677392  0.67968771  1
  In  In57  1  0.85205080  0.50992468  0.02206933  1
  In  In58  1  0.27356429  0.53633717  0.49377359  1
  In  In59  1  0.46347696  0.33185425  0.51120725  1
  In  In60  1  0.65652959  0.00322033  0.32346206  1
  In  In61  1  -0.00047535  0.51305724  0.81781012  1
  In  In62  1  0.32231813  -0.00765878  0.65871677  1
  In  In63  1  0.82618525  0.31420339  0.49332799  1
  In  In64  1  0.14653434  0.48245694  0.00224569  1
  In  In65  1  0.16346535  0.17229428  0.66576497  1
  In  In66  1  0.19238197  -0.00265069  0.12255680  1
  In  In67  1  0.84983682  -0.00104210  0.51180824  1
  In  In68  1  0.84415393  0.19064101  0.31099852  1
  In  In69  1  0.49382915  0.82063683  0.32996541  1
  In  In70  1  -0.00818147  0.35580952  0.31900313  1
  In  In71  1  0.31910711  0.65677824  -0.00613964  1
  Te  Te72  1  0.07606023  0.07706012  0.06272306  1
  Te  Te73  1  0.13921824  0.11068545  0.44209754  1
  Te  Te74  1  0.10217068  0.06739568  0.76124245  1
  Te  Te75  1  0.05956349  0.41204046  0.10520981  1
  Te  Te76  1  0.08091549  0.42507545  0.42180952  1
  Te  Te77  1  0.10684253  0.44728035  0.72983260  1
  Te  Te78  1  0.10647569  0.77076788  0.08506020  1
  Te  Te79  1  0.06820848  0.74416851  0.44303831  1
  Te  Te80  1  0.05667440  0.75641743  0.74552446  1
  Te  Te81  1  0.40549375  0.06314089  0.08911399  1
  Te  Te82  1  0.39520280  0.08984512  0.43005860  1
  Te  Te83  1  0.39994194  0.08718128  0.74946337  1
  Te  Te84  1  0.42577324  0.43232820  0.09064184  1
  Te  Te85  1  0.38098065  0.42400154  0.42713662  1
  Te  Te86  1  0.40509338  0.40449967  0.73772342  1
  Te  Te87  1  0.41879976  0.73609848  0.07892920  1
  Te  Te88  1  0.39028710  0.74832279  0.40462081  1
  Te  Te89  1  0.40798406  0.74568136  0.72658346  1
  Te  Te90  1  0.74343181  0.08784580  0.09075127  1
  Te  Te91  1  0.76095510  0.08268189  0.41813126  1
  Te  Te92  1  0.74137685  0.09889570  0.76822328  1
  Te  Te93  1  0.79343034  0.40466961  0.11309372  1
  Te  Te94  1  0.77772499  0.42539111  0.40051401  1
  Te  Te95  1  0.75089422  0.42834881  0.74320177  1
  Te  Te96  1  0.76992473  0.77600731  0.07017724  1
  Te  Te97  1  0.76085994  0.74886026  0.42412030  1
  Te  Te98  1  0.77270951  0.75131610  0.73377908  1
  Te  Te99  1  0.08406769  0.24613689  0.26292539  1
  Te  Te100  1  0.07398052  0.26717941  0.58710477  1
  Te  Te101  1  0.08822975  0.24646880  0.92370056  1
  Te  Te102  1  0.12426407  0.55321240  0.27851157  1
  Te  Te103  1  0.14763723  0.59849877  0.58078103  1
  Te  Te104  1  0.09699425  0.58987366  0.90488618  1
  Te  Te105  1  0.08952021  0.93068412  0.24338257  1
  Te  Te106  1  0.10995705  0.90629422  0.56012036  1
  Te  Te107  1  0.09648673  0.93397140  0.93221960  1
  Te  Te108  1  0.39249515  0.27112956  0.26971637  1
  Te  Te109  1  0.38395868  0.23264031  0.58287640  1
  Te  Te110  1  0.37932063  0.21739414  0.91979609  1
  Te  Te111  1  0.41738221  0.58985248  0.25927157  1
  Te  Te112  1  0.40485478  0.57110473  0.57708027  1
  Te  Te113  1  0.40525867  0.56408317  0.89493326  1
  Te  Te114  1  0.42031518  0.93593456  0.26022550  1
  Te  Te115  1  0.39388742  0.89809210  0.56265935  1
  Te  Te116  1  0.39668625  0.93781628  0.92197059  1
  Te  Te117  1  0.71860852  0.22617078  0.24360337  1
  Te  Te118  1  0.74052416  0.23735380  0.59623725  1
  Te  Te119  1  0.75313273  0.24282632  0.94473632  1
  Te  Te120  1  0.77313367  0.58405101  0.25117256  1
  Te  Te121  1  0.75260932  0.62049995  0.56170000  1
  Te  Te122  1  0.75852530  0.57695149  0.91514782  1
  Te  Te123  1  0.74950332  0.90728189  0.24935902  1
  Te  Te124  1  0.75353204  0.90104117  0.57458349  1
  Te  Te125  1  0.74260688  0.89013589  0.92168459  1
  Te  Te126  1  0.23301188  0.24076437  0.07721440  1
  Te  Te127  1  0.22831364  0.22291830  0.39354294  1
  Te  Te128  1  0.25246356  0.25131574  0.75324034  1
  Te  Te129  1  0.22204889  0.58534515  0.08790216  1
  Te  Te130  1  0.22414642  0.61638989  0.37300035  1
  Te  Te131  1  0.24481315  0.62982265  0.71659540  1
  Te  Te132  1  0.24813442  0.86642938  0.07268363  1
  Te  Te133  1  0.23036561  0.90377998  0.43340338  1
  Te  Te134  1  0.24436870  0.91057575  0.75968655  1
  Te  Te135  1  0.57512378  0.26133996  0.06854815  1
  Te  Te136  1  0.57389769  0.24782806  0.42985623  1
  Te  Te137  1  0.57954591  0.24491962  0.77807305  1
  Te  Te138  1  0.63153820  0.56451458  0.09595416  1
  Te  Te139  1  0.58114161  0.58817192  0.40740383  1
  Te  Te140  1  0.60762593  0.60828268  0.71877124  1
  Te  Te141  1  0.57685269  0.91357152  0.09791201  1
  Te  Te142  1  0.59525922  0.89887026  0.41627774  1
  Te  Te143  1  0.59975743  0.89735529  0.76716076  1
  Te  Te144  1  0.89694580  0.22671820  0.10251336  1
  Te  Te145  1  0.93617173  0.24370654  0.41774434  1
  Te  Te146  1  0.91922749  0.25102707  0.76140074  1
  Te  Te147  1  0.95183638  0.59532428  0.09697549  1
  Te  Te148  1  0.92132894  0.58773710  0.43516777  1
  Te  Te149  1  0.95170986  0.61132922  0.71269187  1
  Te  Te150  1  0.92830580  0.94137913  0.05081911  1
  Te  Te151  1  0.94850212  0.92279977  0.42582968  1
  Te  Te152  1  0.90992358  0.93185539  0.73166793  1
  Te  Te153  1  0.23706286  0.08593092  0.24105034  1
  Te  Te154  1  0.23002083  0.07376687  0.57249452  1
  Te  Te155  1  0.20122831  0.04014427  0.97492655  1
  Te  Te156  1  0.23962511  0.42817746  0.27439940  1
  Te  Te157  1  0.24706673  0.41926117  0.58020908  1
  Te  Te158  1  0.25768412  0.41774997  0.91966228  1
  Te  Te159  1  0.24377455  0.73764876  0.25800403  1
  Te  Te160  1  0.25017806  0.71771457  0.58549965  1
  Te  Te161  1  0.23650609  0.73818381  0.90441122  1
  Te  Te162  1  0.58211114  0.10028478  0.24032001  1
  Te  Te163  1  0.56883390  0.05720397  0.60179488  1
  Te  Te164  1  0.58268776  0.07705959  0.91405368  1
  Te  Te165  1  0.59771816  0.42471495  0.25106888  1
  Te  Te166  1  0.58373745  0.42251947  0.56724634  1
  Te  Te167  1  0.57241526  0.41300661  0.91630015  1
  Te  Te168  1  0.58997191  0.75880145  0.22784780  1
  Te  Te169  1  0.57701357  0.75705751  0.57569971  1
  Te  Te170  1  0.57062892  0.74067764  0.91377132  1
  Te  Te171  1  0.92143557  0.06299617  0.27137413  1
  Te  Te172  1  0.95174113  0.09647195  0.57176681  1
  Te  Te173  1  0.90777228  0.07407629  0.93713459  1
  Te  Te174  1  0.88441654  0.41612957  0.24154955  1
  Te  Te175  1  0.90168132  0.42150977  0.57889286  1
  Te  Te176  1  0.92919877  0.41992055  0.91524316  1
  Te  Te177  1  0.93977337  0.75303419  0.25746499  1
  Te  Te178  1  0.94194155  0.72735434  0.53408529  1
  Te  Te179  1  0.91809627  0.76384783  0.91549483  1
