# generated using pymatgen
data_In2Te3
_symmetry_space_group_name_H-M   'P 1'
_cell_length_a   18.92800071
_cell_length_b   18.95308267
_cell_length_c   18.95031311
_cell_angle_alpha   90.08642964
_cell_angle_beta   90.09091830
_cell_angle_gamma   89.99922180
_symmetry_Int_Tables_number   1
_chemical_formula_structural   In2Te3
_chemical_formula_sum   'In72 Te108'
_cell_volume   6798.29411611
_cell_formula_units_Z   36
loop_
 _symmetry_equiv_pos_site_id
 _symmetry_equiv_pos_as_xyz
  1  'x, y, z'
loop_
 _atom_site_type_symbol
 _atom_site_label
 _atom_site_symmetry_multiplicity
 _atom_site_fract_x
 _atom_site_fract_y
 _atom_site_fract_z
 _atom_site_occupancy
  In  In0  1  0.50191075  0.67683607  0.82351041  1
  In  In1  1  0.14157288  0.80918320  0.01473837  1
  In  In2  1  0.33249134  0.47087791  0.54329432  1
  In  In3  1  0.48828523  0.31552917  0.18251578  1
  In  In4  1  0.83831064  0.83139574  0.31924170  1
  In  In5  1  0.15787691  0.67451999  0.83220605  1
  In  In6  1  0.31344505  0.66719384  0.68257236  1
  In  In7  1  0.33193527  0.45139873  0.78940807  1
  In  In8  1  -0.01860023  0.51067395  0.16225825  1
  In  In9  1  0.18543004  0.18657317  0.36644765  1
  In  In10  1  0.17175614  0.32181164  0.19592848  1
  In  In11  1  0.14397668  0.35408789  0.81839775  1
  In  In12  1  0.14905534  0.00034909  0.14409679  1
  In  In13  1  0.68741108  0.67213746  -0.02137986  1
  In  In14  1  0.31723544  0.67711701  0.31755860  1
  In  In15  1  0.65052925  0.33087844  0.67823538  1
  In  In16  1  0.34641953  0.03303152  0.36266610  1
  In  In17  1  0.83491897  0.82517025  0.67466652  1
  In  In18  1  0.50200273  0.49795285  -0.01901329  1
  In  In19  1  0.48529690  -0.01715582  0.13822165  1
  In  In20  1  0.66175398  0.84080532  0.82255651  1
  In  In21  1  0.81867343  0.49043951  0.35422104  1
  In  In22  1  0.16219538  0.49568837  0.35020624  1
  In  In23  1  0.66804697  0.82839821  0.47715209  1
  In  In24  1  0.84780861  0.33468072  0.50253487  1
  In  In25  1  0.00356776  -0.02124153  0.68217398  1
  In  In26  1  0.18708306  0.19131038  0.66465910  1
  In  In27  1  0.65561712  0.67983987  0.31394134  1
  In  In28  1  -0.00346192  0.34168715  0.00486608  1
  In  In29  1  0.65335484  0.01979858  0.32389063  1
  In  In30  1  -0.01056949  0.66581171  0.32895701  1
  In  In31  1  0.13430659  0.00931619  0.85041012  1
  In  In32  1  0.37746962  0.30213463  -0.02642542  1
  In  In33  1  0.82310795  -0.03136454  0.49436874  1
  In  In34  1  0.84503761  0.80650398  -0.02233283  1
  In  In35  1  0.32196650  0.83614049  0.15457908  1
  In  In36  1  0.48768919  0.66191939  0.50444258  1
  In  In37  1  0.31911578  0.50925967  0.16083134  1
  In  In38  1  0.51602268  0.31433897  0.50783355  1
  In  In39  1  0.15498891  0.16760411  0.01974693  1
  In  In40  1  0.01545070  0.16880210  0.52874460  1
  In  In41  1  0.35381786  0.00860378  -0.03829925  1
  In  In42  1  0.34601484  0.00207659  0.66662761  1
  In  In43  1  0.16051428  0.49594728  -0.01924788  1
  In  In44  1  0.33407393  0.67662653  -0.01000995  1
  In  In45  1  0.17201103  0.82682206  0.67914137  1
  In  In46  1  0.17379450  0.86052025  0.32896740  1
  In  In47  1  0.51037505  0.83886709  0.32593185  1
  In  In48  1  0.68476314  0.33114613  -0.02246729  1
  In  In49  1  0.64149748  0.17095040  0.51333587  1
  In  In50  1  0.50858771  0.17434082  0.68822133  1
  In  In51  1  0.85367169  0.32662620  0.83505618  1
  In  In52  1  0.65658740  0.15072370  0.14427905  1
  In  In53  1  0.65024587  0.02617090  -0.02703664  1
  In  In54  1  0.81766880  0.15751977  0.29947811  1
  In  In55  1  0.17557058  0.01469260  0.52563219  1
  In  In56  1  0.64858097  0.47730797  0.14751323  1
  In  In57  1  0.84453925  0.15962110  0.68881396  1
  In  In58  1  0.65974889  0.50167525  0.83028803  1
  In  In59  1  0.51077203  0.83791154  0.66765066  1
  In  In60  1  0.85101089  0.65831878  0.54188944  1
  In  In61  1  0.69471252  0.49366553  0.50973932  1
  In  In62  1  0.82075569  -0.02028970  0.14821711  1
  In  In63  1  0.47384017  0.51087193  0.34466407  1
  In  In64  1  0.81810011  0.32036774  0.14407775  1
  In  In65  1  0.84361983  0.66241729  0.16994609  1
  In  In66  1  0.67511607  0.02383288  0.70239000  1
  In  In67  1  0.00249861  0.30804842  0.32391669  1
  In  In68  1  0.16579483  0.66346145  0.49530306  1
  In  In69  1  0.33771282  0.15310759  0.17132135  1
  In  In70  1  0.85783328  0.64328366  0.80011244  1
  In  In71  1  0.01492716  0.49215891  0.54487535  1
  Te  Te72  1  0.04443166  0.08032738  0.07029646  1
  Te  Te73  1  0.08699935  0.08529065  0.42433673  1
  Te  Te74  1  0.08971759  0.09363951  0.73151327  1
  Te  Te75  1  0.09750001  0.42023016  0.10636537  1
  Te  Te76  1  0.05975474  0.40985827  0.41945091  1
  Te  Te77  1  0.04226542  0.45714053  0.78903774  1
  Te  Te78  1  0.03658686  0.73300976  0.08191310  1
  Te  Te79  1  0.08697279  0.75430660  0.40443367  1
  Te  Te80  1  0.06485702  0.77259387  0.76698263  1
  Te  Te81  1  0.42736588  0.10017845  0.06226222  1
  Te  Te82  1  0.42484920  0.14414983  0.41529559  1
  Te  Te83  1  0.40161796  0.10141613  0.76606020  1
  Te  Te84  1  0.42007289  0.42179693  0.08570219  1
  Te  Te85  1  0.41401703  0.40502505  0.43394353  1
  Te  Te86  1  0.43737370  0.37011281  0.73183477  1
  Te  Te87  1  0.41853379  0.76378889  0.07255657  1
  Te  Te88  1  0.41441828  0.75283207  0.40798773  1
  Te  Te89  1  0.40353278  0.76790491  0.75241412  1
  Te  Te90  1  0.76619233  0.09224175  0.06097239  1
  Te  Te91  1  0.74670073  0.08528311  0.42699133  1
  Te  Te92  1  0.78796505  0.06553160  0.78900062  1
  Te  Te93  1  0.76590174  0.43510474  0.06245050  1
  Te  Te94  1  0.73137194  0.38142783  0.41431730  1
  Te  Te95  1  0.75536905  0.41196143  0.75156454  1
  Te  Te96  1  0.75125089  0.75116649  0.09072847  1
  Te  Te97  1  0.76441602  0.72800717  0.41239908  1
  Te  Te98  1  0.74064878  0.73460405  0.75153267  1
  Te  Te99  1  0.08480098  0.20970001  0.24637775  1
  Te  Te100  1  0.08716055  0.28048709  0.59530044  1
  Te  Te101  1  0.08334759  0.25559013  0.91557514  1
  Te  Te102  1  0.08719885  0.58109348  0.24957882  1
  Te  Te103  1  0.08804912  0.60459482  0.60783979  1
  Te  Te104  1  0.07207969  0.59839608  0.92578377  1
  Te  Te105  1  0.07338430  0.92660990  0.24489922  1
  Te  Te106  1  0.08615387  0.90476029  0.57866250  1
  Te  Te107  1  0.05714301  0.90892974  0.93681759  1
  Te  Te108  1  0.39345405  0.24658472  0.27318653  1
  Te  Te109  1  0.41820388  0.27135090  0.61296643  1
  Te  Te110  1  0.44212030  0.20276828  0.88547077  1
  Te  Te111  1  0.41865010  0.59938570  0.23380851  1
  Te  Te112  1  0.41492438  0.57995768  0.60946628  1
  Te  Te113  1  0.40332058  0.57616483  0.89671547  1
  Te  Te114  1  0.39702694  0.92382436  0.25624911  1
  Te  Te115  1  0.42372979  0.91339712  0.57784081  1
  Te  Te116  1  0.45933972  0.93217853  0.89787810  1
  Te  Te117  1  0.72126690  0.25566709  0.23981122  1
  Te  Te118  1  0.75171346  0.24216012  0.59134770  1
  Te  Te119  1  0.79540665  0.24162138  0.94194459  1
  Te  Te120  1  0.74419622  0.56610308  0.24385453  1
  Te  Te121  1  0.75758994  0.57420229  0.61397706  1
  Te  Te122  1  0.77208269  0.57221147  0.90525737  1
  Te  Te123  1  0.72795301  0.90982844  0.25217082  1
  Te  Te124  1  0.72390220  0.91503495  0.59777487  1
  Te  Te125  1  0.74507267  0.91115846  0.92563922  1
  Te  Te126  1  0.26145591  0.26166406  0.08745246  1
  Te  Te127  1  0.22326976  0.29404237  0.45760674  1
  Te  Te128  1  0.25906786  0.28075545  0.75988635  1
  Te  Te129  1  0.23481118  0.59786577  0.07315380  1
  Te  Te130  1  0.27085671  0.57424483  0.42851536  1
  Te  Te131  1  0.23453092  0.56045245  0.75498752  1
  Te  Te132  1  0.25345848  0.93253143  0.05849377  1
  Te  Te133  1  0.26154626  0.92832702  0.43376245  1
  Te  Te134  1  0.24269963  0.93547770  0.75593016  1
  Te  Te135  1  0.58406644  0.26520663  0.07645525  1
  Te  Te136  1  0.56158081  0.22053858  0.39768495  1
  Te  Te137  1  0.62943225  0.21599792  0.77243134  1
  Te  Te138  1  0.58883405  0.58861881  0.06551663  1
  Te  Te139  1  0.59198576  0.58454075  0.41745976  1
  Te  Te140  1  0.57171021  0.57820416  0.74208434  1
  Te  Te141  1  0.60435845  0.92945621  0.07325166  1
  Te  Te142  1  0.57393401  0.93617829  0.42374776  1
  Te  Te143  1  0.55720312  0.94673580  0.77795418  1
  Te  Te144  1  0.93500523  0.24601025  0.10006983  1
  Te  Te145  1  0.91278565  0.22526770  0.41606335  1
  Te  Te146  1  0.94512656  0.24206933  0.75469858  1
  Te  Te147  1  0.93151906  0.60878507  0.06088972  1
  Te  Te148  1  0.92366956  0.57116053  0.42950714  1
  Te  Te149  1  0.96629741  0.57550338  0.72190371  1
  Te  Te150  1  0.91650605  0.90340334  0.06428270  1
  Te  Te151  1  0.92479840  0.90303854  0.41339834  1
  Te  Te152  1  0.89269181  0.92852237  0.76512186  1
  Te  Te153  1  0.23919373  0.07539278  0.25511344  1
  Te  Te154  1  0.27995977  0.11024983  0.57685418  1
  Te  Te155  1  0.24151351  0.10109124  0.91560655  1
  Te  Te156  1  0.26476352  0.41762627  0.26871895  1
  Te  Te157  1  0.21101385  0.39500423  0.57547692  1
  Te  Te158  1  0.26846584  0.40458093  0.92605236  1
  Te  Te159  1  0.22087803  0.75228321  0.22903081  1
  Te  Te160  1  0.25839024  0.75586725  0.57304422  1
  Te  Te161  1  0.24697166  0.77196700  0.91045493  1
  Te  Te162  1  0.55290262  0.08585409  0.23365040  1
  Te  Te163  1  0.57092288  0.06931352  0.59765151  1
  Te  Te164  1  0.58510029  0.13919089  0.90189891  1
  Te  Te165  1  0.56687289  0.42069395  0.26171171  1
  Te  Te166  1  0.57980362  0.42880121  0.58536590  1
  Te  Te167  1  0.57193859  0.39535287  0.89545938  1
  Te  Te168  1  0.56951401  0.75376859  0.22294286  1
  Te  Te169  1  0.59242054  0.74312846  0.57872582  1
  Te  Te170  1  0.57797273  0.76056562  0.92328580  1
  Te  Te171  1  0.90303064  0.05260103  0.24877407  1
  Te  Te172  1  0.91345066  0.06524435  0.58016997  1
  Te  Te173  1  1.00167293  0.04921509  0.91773440  1
  Te  Te174  1  0.90864438  0.40985822  0.25546888  1
  Te  Te175  1  0.91283810  0.40994709  0.60901587  1
  Te  Te176  1  0.93271306  0.43352026  0.90770586  1
  Te  Te177  1  0.94078513  0.76745367  0.22517072  1
  Te  Te178  1  0.93293452  0.77198697  0.57929123  1
  Te  Te179  1  0.93293329  0.75332187  0.86818599  1
