# generated using pymatgen
data_In2Te3
_symmetry_space_group_name_H-M   'P 1'
_cell_length_a   18.77099102
_cell_length_b   18.76306829
_cell_length_c   18.77341749
_cell_angle_alpha   89.98128607
_cell_angle_beta   89.98172628
_cell_angle_gamma   89.98783764
_symmetry_Int_Tables_number   1
_chemical_formula_structural   In2Te3
_chemical_formula_sum   'In72 Te108'
_cell_volume   6612.02282761
_cell_formula_units_Z   36
loop_
 _symmetry_equiv_pos_site_id
 _symmetry_equiv_pos_as_xyz
  1  'x, y, z'
loop_
 _atom_site_type_symbol
 _atom_site_label
 _atom_site_symmetry_multiplicity
 _atom_site_fract_x
 _atom_site_fract_y
 _atom_site_fract_z
 _atom_site_occupancy
  In  In0  1  -0.00869581  0.65404237  0.66756559  1
  In  In1  1  0.51044816  0.83978505  0.32332290  1
  In  In2  1  0.16298286  0.54185738  0.32795873  1
  In  In3  1  0.84333592  0.65576181  0.48686378  1
  In  In4  1  0.83624964  -0.00521478  0.48442026  1
  In  In5  1  0.16513475  0.12690002  0.31972787  1
  In  In6  1  0.66465412  0.65684690  0.32649785  1
  In  In7  1  0.52037758  0.17398631  0.68013648  1
  In  In8  1  0.32625094  0.17165592  0.84926584  1
  In  In9  1  0.67729541  0.17965858  0.16592565  1
  In  In10  1  -0.00869635  0.32007026  -0.00877466  1
  In  In11  1  0.31643678  0.83650936  0.49825946  1
  In  In12  1  0.49774224  0.50933455  0.29402519  1
  In  In13  1  0.01454412  0.67647362  -0.00318219  1
  In  In14  1  0.17983602  0.51844809  0.00502646  1
  In  In15  1  0.33044261  0.52647936  0.15530421  1
  In  In16  1  0.02337381  -0.00990087  0.31776550  1
  In  In17  1  0.31932856  0.14819180  0.49431154  1
  In  In18  1  0.83957857  0.33060694  0.84270173  1
  In  In19  1  0.49319620  0.33426392  0.17951835  1
  In  In20  1  0.50128923  0.34702616  0.50606923  1
  In  In21  1  0.34680997  0.32684280  0.31394777  1
  In  In22  1  0.83000579  0.48780478  -0.01199895  1
  In  In23  1  0.85814311  0.83905594  0.03100369  1
  In  In24  1  0.83206841  0.67734651  0.16941490  1
  In  In25  1  0.33415740  -0.00493659  -0.00497095  1
  In  In26  1  0.01431337  0.14051465  0.16293966  1
  In  In27  1  0.50140064  0.69069120  0.50896609  1
  In  In28  1  0.83546191  0.02260405  0.84005244  1
  In  In29  1  0.15685406  0.32762455  0.51805058  1
  In  In30  1  0.65868333  0.82227277  0.51407952  1
  In  In31  1  0.85684084  0.84130309  0.30607449  1
  In  In32  1  0.49058626  0.50644820  0.66392665  1
  In  In33  1  0.13651422  0.49574366  0.69203828  1
  In  In34  1  -0.00941975  0.51304338  0.49001195  1
  In  In35  1  0.33069580  0.33293193  0.68363632  1
  In  In36  1  0.67487726  0.50081988  0.50816982  1
  In  In37  1  0.00307781  0.15977066  0.84569275  1
  In  In38  1  0.49447221  0.19102042  0.30906989  1
  In  In39  1  0.00824285  0.84716176  0.86768658  1
  In  In40  1  0.33371856  0.50998593  0.84889394  1
  In  In41  1  0.83241456  0.81223629  0.66284035  1
  In  In42  1  0.00604631  0.50885476  0.19359293  1
  In  In43  1  0.30636133  -0.02621385  0.31921862  1
  In  In44  1  0.67068409  0.34652623  0.32835060  1
  In  In45  1  0.84986115  0.15949543  0.01750067  1
  In  In46  1  0.17398073  0.15821231  0.66339637  1
  In  In47  1  0.83598279  0.50647785  0.66200530  1
  In  In48  1  0.32922026  0.32722491  0.00193311  1
  In  In49  1  0.66063712  0.35361689  0.00118109  1
  In  In50  1  0.48020992  -0.00414286  0.16370812  1
  In  In51  1  0.50284331  0.66072053  0.15021556  1
  In  In52  1  0.47876400  0.67374478  0.82891577  1
  In  In53  1  0.67239315  0.50771374  0.84685301  1
  In  In54  1  0.65076707  0.15567718  0.82881487  1
  In  In55  1  0.18053166  0.68212264  0.83719418  1
  In  In56  1  0.66063526  0.81631391  0.83066646  1
  In  In57  1  0.18156604  0.82814043  0.01524531  1
  In  In58  1  0.45163910  -0.00639645  0.51777271  1
  In  In59  1  0.17829793  0.32458402  0.15072219  1
  In  In60  1  0.68638512  0.14700568  0.50864411  1
  In  In61  1  -0.01762094  0.34010929  0.33360962  1
  In  In62  1  0.48684983  0.83138654  0.00280277  1
  In  In63  1  0.00250316  -0.00109768  0.65809349  1
  In  In64  1  0.83679517  0.17525296  0.69271777  1
  In  In65  1  0.50632588  -0.01217435  0.82653523  1
  In  In66  1  0.31561939  -0.01915316  0.67287221  1
  In  In67  1  0.66536620  0.00816456  -0.00500872  1
  In  In68  1  0.31843245  0.53436774  0.48674213  1
  In  In69  1  0.68605428  -0.02391857  0.32798489  1
  In  In70  1  0.17358382  0.84372827  0.66233732  1
  In  In71  1  0.83949905  0.32515816  0.50205444  1
  Te  Te72  1  0.07411377  0.02927953  0.08580884  1
  Te  Te73  1  0.07025746  0.08626258  0.42351603  1
  Te  Te74  1  0.09153746  0.06968334  0.75880228  1
  Te  Te75  1  0.08072933  0.42106037  0.08147137  1
  Te  Te76  1  0.09672044  0.42411735  0.41194407  1
  Te  Te77  1  0.05494312  0.39413552  0.75450017  1
  Te  Te78  1  0.06365035  0.77748344  0.09635178  1
  Te  Te79  1  0.11352037  0.78571412  0.38062155  1
  Te  Te80  1  0.06907447  0.75551385  0.75631610  1
  Te  Te81  1  0.42594127  0.09077454  0.06516701  1
  Te  Te82  1  0.40981783  0.08082415  0.38908613  1
  Te  Te83  1  0.40796105  0.08648971  0.73987844  1
  Te  Te84  1  0.41678718  0.42632651  0.08139618  1
  Te  Te85  1  0.41076325  0.42851088  0.41349955  1
  Te  Te86  1  0.42568385  0.41509700  0.76813234  1
  Te  Te87  1  0.39824320  0.74458561  0.08612537  1
  Te  Te88  1  0.41147434  0.75734062  0.40613780  1
  Te  Te89  1  0.42167017  0.76646171  0.73072640  1
  Te  Te90  1  0.75972368  0.06746115  0.10018270  1
  Te  Te91  1  0.76474723  0.09246768  0.38983405  1
  Te  Te92  1  0.73460961  0.06909553  0.73539517  1
  Te  Te93  1  0.77400971  0.39212869  0.08660715  1
  Te  Te94  1  0.76918162  0.42996803  0.41349939  1
  Te  Te95  1  0.75150521  0.41399650  0.75192806  1
  Te  Te96  1  0.74627820  0.75132161  0.07348469  1
  Te  Te97  1  0.74979708  0.75843641  0.40873543  1
  Te  Te98  1  0.76121135  0.72959351  0.76162582  1
  Te  Te99  1  0.09121381  0.25312168  0.25446564  1
  Te  Te100  1  0.07109538  0.22584731  0.57936394  1
  Te  Te101  1  0.09640319  0.22625649  0.94258432  1
  Te  Te102  1  0.10395345  0.62020427  0.21578171  1
  Te  Te103  1  0.09395590  0.58617391  0.57630168  1
  Te  Te104  1  0.08574731  0.58043131  0.90091828  1
  Te  Te105  1  0.11034535  0.88176893  0.25239085  1
  Te  Te106  1  0.07125507  0.90153570  0.57191154  1
  Te  Te107  1  0.11444729  0.93231523  0.92631660  1
  Te  Te108  1  0.38504271  0.22532364  0.20767912  1
  Te  Te109  1  0.41011824  0.24390060  0.57683258  1
  Te  Te110  1  0.42551114  0.26160719  0.90986764  1
  Te  Te111  1  0.39544612  0.61359101  0.26253347  1
  Te  Te112  1  0.40185248  0.60737010  0.59251850  1
  Te  Te113  1  0.41314916  0.59712932  0.93732832  1
  Te  Te114  1  0.39756112  0.88609180  0.23180673  1
  Te  Te115  1  0.42118597  0.87720807  0.61872405  1
  Te  Te116  1  0.40408182  0.89940968  0.89387538  1
  Te  Te117  1  0.76238738  0.25179429  0.26233457  1
  Te  Te118  1  0.74341051  0.25512138  0.59960145  1
  Te  Te119  1  0.75275486  0.23058345  0.92097965  1
  Te  Te120  1  0.76072365  0.57490141  0.25153749  1
  Te  Te121  1  0.74290851  0.60776006  0.59139601  1
  Te  Te122  1  0.74452293  0.59801667  0.94009898  1
  Te  Te123  1  0.75128548  0.90027419  0.22048587  1
  Te  Te124  1  0.75158646  0.91952069  0.58698141  1
  Te  Te125  1  0.75743668  0.91468992  0.91665113  1
  Te  Te126  1  0.22860119  0.22528795  0.05171331  1
  Te  Te127  1  0.24866142  0.25278550  0.40736776  1
  Te  Te128  1  0.22549095  0.26126045  0.76359711  1
  Te  Te129  1  0.24392034  0.62587141  0.08475097  1
  Te  Te130  1  0.23275927  0.63723686  0.41990272  1
  Te  Te131  1  0.25105478  0.58338840  0.74264900  1
  Te  Te132  1  0.25268929  0.92925569  0.10385861  1
  Te  Te133  1  0.21226465  0.91474006  0.42090545  1
  Te  Te134  1  0.23688712  0.91217723  0.77760533  1
  Te  Te135  1  0.57535611  0.25090006  0.07909440  1
  Te  Te136  1  0.58665193  0.24773560  0.42550180  1
  Te  Te137  1  0.58720413  0.27277386  0.76499783  1
  Te  Te138  1  0.57840164  0.54455183  0.10377303  1
  Te  Te139  1  0.56945724  0.57312970  0.42415932  1
  Te  Te140  1  0.58329952  0.58978793  0.74979915  1
  Te  Te141  1  0.58473462  0.91500322  0.08587135  1
  Te  Te142  1  0.57639773  0.92895294  0.42879944  1
  Te  Te143  1  0.59953519  0.91590092  0.73876599  1
  Te  Te144  1  0.92026881  0.25714151  0.10951976  1
  Te  Te145  1  0.92792225  0.23656047  0.42293542  1
  Te  Te146  1  0.95015549  0.26511351  0.74729109  1
  Te  Te147  1  0.92457009  0.57896281  0.07554859  1
  Te  Te148  1  0.93581452  0.60115226  0.38535202  1
  Te  Te149  1  0.90341228  0.58787184  0.76536043  1
  Te  Te150  1  0.95202789  0.93444155  0.09582607  1
  Te  Te151  1  0.93663820  0.90331561  0.41964377  1
  Te  Te152  1  0.91247735  0.91658988  0.75647158  1
  Te  Te153  1  0.24430208  0.06073169  0.21256387  1
  Te  Te154  1  0.22924153  0.05121807  0.56668582  1
  Te  Te155  1  0.23534545  0.07411037  0.91364165  1
  Te  Te156  1  0.24878391  0.42823658  0.24925995  1
  Te  Te157  1  0.25817405  0.42379716  0.58336855  1
  Te  Te158  1  0.23598110  0.41118724  0.91239783  1
  Te  Te159  1  0.21392593  0.76822721  0.27509754  1
  Te  Te160  1  0.24457554  0.73894887  0.58429228  1
  Te  Te161  1  0.27536372  0.74653781  0.92967015  1
  Te  Te162  1  0.58492976  0.07885127  0.25305721  1
  Te  Te163  1  0.57290789  0.07307777  0.57880053  1
  Te  Te164  1  0.55461482  0.09089333  0.92909412  1
  Te  Te165  1  0.61073575  0.43885034  0.21507537  1
  Te  Te166  1  0.59696774  0.41112534  0.60411548  1
  Te  Te167  1  0.56704273  0.43692113  0.92519933  1
  Te  Te168  1  0.59617252  0.75462507  0.23174828  1
  Te  Te169  1  0.58453386  0.74688797  0.61775038  1
  Te  Te170  1  0.58209164  0.73505578  0.93291932  1
  Te  Te171  1  0.91629617  0.06235577  0.24256921  1
  Te  Te172  1  0.90530239  0.09067922  0.58448195  1
  Te  Te173  1  0.93959849  0.05878553  0.94521216  1
  Te  Te174  1  0.89738333  0.42349195  0.24618259  1
  Te  Te175  1  0.93202443  0.41286449  0.58784900  1
  Te  Te176  1  0.94337773  0.42983627  0.89586456  1
  Te  Te177  1  0.94691012  0.74782739  0.23425706  1
  Te  Te178  1  0.93351619  0.75195045  0.56454491  1
  Te  Te179  1  0.90467397  0.74705484  0.91562448  1
