# generated using pymatgen
data_In2Te3
_symmetry_space_group_name_H-M   'P 1'
_cell_length_a   18.93716809
_cell_length_b   18.97395529
_cell_length_c   18.95220024
_cell_angle_alpha   90.01275951
_cell_angle_beta   89.82475613
_cell_angle_gamma   90.09524723
_symmetry_Int_Tables_number   1
_chemical_formula_structural   In2Te3
_chemical_formula_sum   'In72 Te108'
_cell_volume   6809.73013770
_cell_formula_units_Z   36
loop_
 _symmetry_equiv_pos_site_id
 _symmetry_equiv_pos_as_xyz
  1  'x, y, z'
loop_
 _atom_site_type_symbol
 _atom_site_label
 _atom_site_symmetry_multiplicity
 _atom_site_fract_x
 _atom_site_fract_y
 _atom_site_fract_z
 _atom_site_occupancy
  In  In0  1  0.79300620  0.80716502  0.67853118  1
  In  In1  1  -0.00479306  0.17197119  0.17606144  1
  In  In2  1  -0.01665073  0.50600900  0.83216167  1
  In  In3  1  0.37837508  0.53230985  0.84189160  1
  In  In4  1  0.80399681  0.30691038  0.49322875  1
  In  In5  1  0.00242563  0.68205451  -0.02319015  1
  In  In6  1  -0.01672393  0.02093101  0.66807577  1
  In  In7  1  0.19724454  0.53356683  0.33212113  1
  In  In8  1  0.62991273  0.82509047  0.52371645  1
  In  In9  1  0.51407590  0.01862142  0.13809167  1
  In  In10  1  0.16566244  -0.03180916  0.82771682  1
  In  In11  1  0.35107576  0.51116844  0.14143440  1
  In  In12  1  0.65517241  -0.00332875  0.66141508  1
  In  In13  1  -0.06909671  0.00510600  -0.06567840  1
  In  In14  1  0.15026705  0.15671014  0.65029218  1
  In  In15  1  0.66099335  0.31998332  0.64553200  1
  In  In16  1  0.17409501  0.49592740  0.67889937  1
  In  In17  1  0.19259484  0.13747974  0.34925345  1
  In  In18  1  -0.00121306  0.31921566  0.01580913  1
  In  In19  1  0.80436818  0.68136005  0.50134820  1
  In  In20  1  0.48042294  0.50648420  0.64069107  1
  In  In21  1  0.34522992  0.16581569  0.83673784  1
  In  In22  1  0.79743082  0.15788633  0.33813004  1
  In  In23  1  0.67831096  0.67418496  -0.03343805  1
  In  In24  1  0.63050866  0.51751408  0.81862580  1
  In  In25  1  0.32434748  0.35257015  0.67373291  1
  In  In26  1  0.37279159  0.02396128  0.34160078  1
  In  In27  1  0.00750804  0.82666339  0.50213856  1
  In  In28  1  0.64220334  0.53617358  0.16318304  1
  In  In29  1  0.51189160  0.01548267  0.85198551  1
  In  In30  1  -0.01605752  0.85403426  0.83912292  1
  In  In31  1  -0.01749005  0.85738776  0.16036801  1
  In  In32  1  0.01493814  0.51147067  0.13099124  1
  In  In33  1  0.82931735  0.84400971  0.35317596  1
  In  In34  1  0.37717439  0.30671251  0.30977307  1
  In  In35  1  -0.00908161  0.35495641  0.35054615  1
  In  In36  1  0.20883298  0.63870473  0.51663064  1
  In  In37  1  0.81647987  0.66640104  0.16167595  1
  In  In38  1  0.50128178  0.81356203  -0.00929465  1
  In  In39  1  0.18035673  0.16740412  0.02225484  1
  In  In40  1  -0.00024317  0.00988517  0.33235378  1
  In  In41  1  0.17221454  0.33786092  0.18962322  1
  In  In42  1  0.01030167  0.49865972  0.51778514  1
  In  In43  1  0.58914655  0.29945339  0.34169087  1
  In  In44  1  0.17507700  -0.01107821  0.19842419  1
  In  In45  1  0.18426762  -0.02721357  0.49810024  1
  In  In46  1  0.47519417  0.83505393  0.67553344  1
  In  In47  1  0.82921325  0.34518404  0.82081567  1
  In  In48  1  0.51431267  0.16767284  0.68019128  1
  In  In49  1  0.49102216  0.50664025  0.34208361  1
  In  In50  1  0.38796028  0.82289305  0.47054944  1
  In  In51  1  0.37640276  0.80416572  0.17965497  1
  In  In52  1  -0.03291591  0.25275323  0.64451032  1
  In  In53  1  0.82354811  0.29887729  0.16230402  1
  In  In54  1  0.64756976  -0.01307396  0.34176224  1
  In  In55  1  0.34802851  0.33685081  -0.00595143  1
  In  In56  1  0.68578111  0.17331947  0.83032841  1
  In  In57  1  0.34216604  0.16858784  0.50500609  1
  In  In58  1  0.77874287  0.50038616  -0.01496190  1
  In  In59  1  0.63648798  0.33351068  0.02780780  1
  In  In60  1  0.20009070  0.67063163  0.16876902  1
  In  In61  1  0.67104901  0.50451623  0.47877727  1
  In  In62  1  0.77440291  0.01849027  0.13570265  1
  In  In63  1  0.17719274  0.65788097  0.82313884  1
  In  In64  1  0.84625723  0.50630680  0.30153217  1
  In  In65  1  0.18845076  0.81256657  0.67172123  1
  In  In66  1  0.17827953  0.80520325  -0.00707685  1
  In  In67  1  0.16809297  0.34412169  0.84633895  1
  In  In68  1  0.63144571  0.81171769  0.17629224  1
  In  In69  1  0.00362289  0.67514692  0.35781692  1
  In  In70  1  0.84327027  0.51547659  0.65528875  1
  In  In71  1  0.33657196  -0.00048291  0.02689263  1
  Te  Te72  1  0.09080897  0.07662673  0.10564855  1
  Te  Te73  1  0.08746429  0.07521437  0.43819122  1
  Te  Te74  1  0.08326484  0.07917668  0.76658832  1
  Te  Te75  1  0.10974947  0.40922838  0.07078840  1
  Te  Te76  1  0.10011526  0.43909416  0.41048947  1
  Te  Te77  1  0.06998308  0.41034714  0.75099982  1
  Te  Te78  1  0.06993661  0.74877531  0.09784054  1
  Te  Te79  1  0.11289710  0.73868230  0.43737349  1
  Te  Te80  1  0.08140911  0.75788639  0.76373298  1
  Te  Te81  1  0.42937293  0.10908804  0.05717870  1
  Te  Te82  1  0.45690743  0.11760355  0.42286193  1
  Te  Te83  1  0.41789088  0.07008260  0.74467482  1
  Te  Te84  1  0.43972355  0.40073865  0.09473508  1
  Te  Te85  1  0.44942940  0.38092614  0.41493865  1
  Te  Te86  1  0.43145435  0.41699172  0.75717683  1
  Te  Te87  1  0.39782211  0.72534040  0.05436199  1
  Te  Te88  1  0.47684069  0.73307401  0.39087852  1
  Te  Te89  1  0.37745578  0.78354318  0.77579978  1
  Te  Te90  1  0.70741238  0.11647087  0.05490484  1
  Te  Te91  1  0.74427219  0.05647528  0.42828594  1
  Te  Te92  1  0.75199251  0.05799479  0.75976314  1
  Te  Te93  1  0.74485324  0.42580813  0.11216633  1
  Te  Te94  1  0.76377433  0.41681658  0.39594331  1
  Te  Te95  1  0.73640535  0.42664314  0.73319924  1
  Te  Te96  1  0.73918598  0.76146351  0.07622000  1
  Te  Te97  1  0.71718689  0.75997946  0.40850449  1
  Te  Te98  1  0.71748864  0.74448046  0.78726292  1
  Te  Te99  1  0.09109897  0.23900102  0.27292427  1
  Te  Te100  1  0.09094877  0.26050155  0.56732445  1
  Te  Te101  1  0.08903346  0.23840753  0.92440852  1
  Te  Te102  1  0.07273653  0.58338037  0.25132594  1
  Te  Te103  1  0.08813946  0.59669207  0.60069489  1
  Te  Te104  1  0.09097823  0.57488300  0.91742749  1
  Te  Te105  1  0.07892239  0.89473543  0.27182210  1
  Te  Te106  1  0.08521993  0.91547347  0.60182945  1
  Te  Te107  1  0.08272535  0.91451399  0.94566415  1
  Te  Te108  1  0.48671247  0.22002741  0.25180053  1
  Te  Te109  1  0.41876885  0.25698647  0.60153776  1
  Te  Te110  1  0.43555212  0.25195696  0.91109295  1
  Te  Te111  1  0.43539004  0.59445313  0.23195544  1
  Te  Te112  1  0.36496556  0.55310882  0.56082975  1
  Te  Te113  1  0.44182673  0.60363991  0.95559336  1
  Te  Te114  1  0.43567270  0.92855471  0.23683943  1
  Te  Te115  1  0.43939202  0.92646980  0.56276239  1
  Te  Te116  1  0.41563725  0.92169675  0.92450554  1
  Te  Te117  1  0.71553118  0.25000174  0.25291184  1
  Te  Te118  1  0.76454876  0.22082833  0.60659372  1
  Te  Te119  1  0.73755943  0.28254397  0.92590074  1
  Te  Te120  1  0.73133264  0.60223416  0.26908745  1
  Te  Te121  1  0.72664515  0.59095787  0.59440757  1
  Te  Te122  1  0.76197284  0.59060084  0.86681449  1
  Te  Te123  1  0.74577355  0.90408863  0.24068260  1
  Te  Te124  1  0.74539025  0.90879134  0.57626502  1
  Te  Te125  1  0.82139214  0.90829577  0.91708775  1
  Te  Te126  1  0.26844516  0.25699055  0.10360517  1
  Te  Te127  1  0.26654946  0.25589499  0.40603104  1
  Te  Te128  1  0.23895777  0.24389876  0.75352399  1
  Te  Te129  1  0.24186714  0.57665829  0.06754762  1
  Te  Te130  1  0.30927099  0.58403283  0.41737263  1
  Te  Te131  1  0.28007341  0.58754933  0.73801131  1
  Te  Te132  1  0.24613448  0.89674408  0.09844001  1
  Te  Te133  1  0.28150490  0.91587570  0.39928929  1
  Te  Te134  1  0.27412721  0.91157833  0.74338830  1
  Te  Te135  1  0.53510770  0.26385530  0.10905147  1
  Te  Te136  1  0.59211716  0.20337023  0.45356637  1
  Te  Te137  1  0.58539605  0.26885997  0.76730769  1
  Te  Te138  1  0.57210510  0.59329910  0.04252471  1
  Te  Te139  1  0.56453075  0.59934663  0.43491183  1
  Te  Te140  1  0.53336170  0.60088392  0.74409853  1
  Te  Te141  1  0.59230089  0.90914982  0.06622873  1
  Te  Te142  1  0.55142424  0.91438068  0.43198697  1
  Te  Te143  1  0.58062156  0.91460806  0.76187726  1
  Te  Te144  1  0.90082194  0.21255604  0.06339450  1
  Te  Te145  1  0.91182874  0.24095103  0.40469067  1
  Te  Te146  1  0.92709993  0.23776303  0.78685626  1
  Te  Te147  1  0.90165157  0.58811590  0.06323466  1
  Te  Te148  1  0.90647034  0.58152722  0.42928578  1
  Te  Te149  1  0.92207438  0.60320008  0.74219443  1
  Te  Te150  1  0.90303618  0.95637177  0.08085249  1
  Te  Te151  1  0.91914635  0.93181174  0.43751638  1
  Te  Te152  1  0.89833378  0.91089512  0.72828587  1
  Te  Te153  1  0.28195892  0.09015938  0.23744855  1
  Te  Te154  1  0.25864245  0.07075430  0.58725325  1
  Te  Te155  1  0.24628064  0.07310657  0.91843796  1
  Te  Te156  1  0.27647468  0.42533549  0.25860299  1
  Te  Te157  1  0.24006451  0.41697561  0.57225851  1
  Te  Te158  1  0.27304045  0.43416963  0.90465710  1
  Te  Te159  1  0.27448806  0.74435609  0.26787014  1
  Te  Te160  1  0.28460770  0.75855294  0.56920570  1
  Te  Te161  1  0.27430394  0.75241163  0.89096469  1
  Te  Te162  1  0.58924388  0.08628900  0.24790305  1
  Te  Te163  1  0.59430838  0.10083886  0.57152514  1
  Te  Te164  1  0.61035294  0.09250137  0.93616680  1
  Te  Te165  1  0.58925223  0.42694042  0.25771286  1
  Te  Te166  1  0.57908637  0.41606307  0.56230929  1
  Te  Te167  1  0.58333893  0.44786942  0.94072113  1
  Te  Te168  1  0.53241311  0.72428654  0.24558158  1
  Te  Te169  1  0.56152592  0.73199388  0.61434890  1
  Te  Te170  1  0.59059919  0.75958790  0.88002961  1
  Te  Te171  1  0.89458780  0.07796170  0.24650577  1
  Te  Te172  1  0.91459035  0.12399398  0.59124785  1
  Te  Te173  1  0.85426268  0.11302003  0.86615246  1
  Te  Te174  1  0.93430958  0.40246596  0.21768092  1
  Te  Te175  1  0.90577777  0.40209046  0.57438170  1
  Te  Te176  1  0.91236541  0.41728406  0.93761017  1
  Te  Te177  1  0.91045406  0.74621909  0.25751957  1
  Te  Te178  1  0.90904572  0.74814521  0.58660166  1
  Te  Te179  1  0.89377749  0.76862875  0.92548117  1
