# generated using pymatgen
data_In2Te3
_symmetry_space_group_name_H-M   'P 1'
_cell_length_a   18.90932296
_cell_length_b   18.94554593
_cell_length_c   18.94257344
_cell_angle_alpha   90.08964220
_cell_angle_beta   89.83523669
_cell_angle_gamma   90.05046354
_symmetry_Int_Tables_number   1
_chemical_formula_structural   In2Te3
_chemical_formula_sum   'In72 Te108'
_cell_volume   6786.08959739
_cell_formula_units_Z   36
loop_
 _symmetry_equiv_pos_site_id
 _symmetry_equiv_pos_as_xyz
  1  'x, y, z'
loop_
 _atom_site_type_symbol
 _atom_site_label
 _atom_site_symmetry_multiplicity
 _atom_site_fract_x
 _atom_site_fract_y
 _atom_site_fract_z
 _atom_site_occupancy
  In  In0  1  0.31690290  0.51869029  0.48484679  1
  In  In1  1  0.82963744  0.81281384  0.01341149  1
  In  In2  1  0.80719566  0.84202532  0.66780246  1
  In  In3  1  0.67269077  0.64921523  0.67879112  1
  In  In4  1  0.82485411  0.32966686  0.81929692  1
  In  In5  1  -0.00006829  0.00825060  0.00151924  1
  In  In6  1  0.15238090  -0.02121035  0.17861439  1
  In  In7  1  0.16958498  0.83318089  0.65073439  1
  In  In8  1  0.15963824  0.35614850  0.48179032  1
  In  In9  1  0.82610591  -0.00132896  0.83741521  1
  In  In10  1  0.31155575  0.35946052  0.31745807  1
  In  In11  1  -0.01933033  0.19968197  0.46546659  1
  In  In12  1  -0.00333840  0.02348862  0.63400067  1
  In  In13  1  0.49095508  0.49969439  0.31046952  1
  In  In14  1  0.30882124  0.65618903  0.32370310  1
  In  In15  1  0.00174390  0.67313425  0.65305069  1
  In  In16  1  0.65802784  0.16344262  0.81936384  1
  In  In17  1  0.67079100  0.32238374  0.00393160  1
  In  In18  1  -0.00167284  0.18150602  0.19557219  1
  In  In19  1  -0.03743035  0.50181759  0.46688287  1
  In  In20  1  0.34949287  0.79013713  0.13387863  1
  In  In21  1  0.69325538  0.47481239  0.47765095  1
  In  In22  1  0.65996247  0.67822663  0.34117708  1
  In  In23  1  0.49417767  -0.00452417  0.16328590  1
  In  In24  1  0.31364165  0.01764959  -0.03579505  1
  In  In25  1  0.69791197  0.32287829  0.63444231  1
  In  In26  1  0.33686067  0.01210577  0.36895675  1
  In  In27  1  0.83385675  0.83133599  0.32627698  1
  In  In28  1  0.32073520  0.67639806  0.66697108  1
  In  In29  1  0.17053823  0.83557275  0.00861203  1
  In  In30  1  0.48272244  0.34965956  0.80335052  1
  In  In31  1  -0.02256036  0.84885650  0.85851162  1
  In  In32  1  -0.00084085  0.81949438  0.19703580  1
  In  In33  1  0.47546484  0.50030620  0.00762010  1
  In  In34  1  0.32689982  0.32763807  0.01200924  1
  In  In35  1  0.33123382  0.15057627  0.82765389  1
  In  In36  1  0.68211644  -0.02087190  0.02219890  1
  In  In37  1  0.15395452  0.18988587  0.32125474  1
  In  In38  1  0.19251828  0.02770938  0.81771504  1
  In  In39  1  -0.00155624  0.33971275  0.67542545  1
  In  In40  1  0.67416335  0.01392950  0.35661775  1
  In  In41  1  0.85638464  0.50366075  0.01910968  1
  In  In42  1  0.35333753  0.01576470  0.65042337  1
  In  In43  1  0.64138379  0.52510855  0.84652617  1
  In  In44  1  0.31964277  0.81182125  0.84952070  1
  In  In45  1  0.85323274  0.02283152  0.18491536  1
  In  In46  1  0.35605210  0.17243125  0.51375494  1
  In  In47  1  0.18777743  0.17501250  0.66332665  1
  In  In48  1  0.52898590  0.17211809  -0.00282535  1
  In  In49  1  0.49351542  0.18205608  0.35188557  1
  In  In50  1  0.84595711  0.32115317  0.18637274  1
  In  In51  1  0.51133387  0.83674462  0.33217964  1
  In  In52  1  0.68149668  0.16271294  0.15762616  1
  In  In53  1  0.50645649  0.32481734  0.51340790  1
  In  In54  1  0.66009387  0.65596491  0.01335901  1
  In  In55  1  0.00784827  0.49717980  0.82047703  1
  In  In56  1  0.16805966  0.65465641  0.82568020  1
  In  In57  1  0.50200664  0.67898577  0.50631923  1
  In  In58  1  0.30686586  0.82796820  0.50958082  1
  In  In59  1  0.32563354  0.17964142  0.16232907  1
  In  In60  1  0.50870501  0.82637353  0.66883059  1
  In  In61  1  -0.00793654  0.51286288  0.18930488  1
  In  In62  1  0.65030533  0.02225641  0.63179957  1
  In  In63  1  0.18735148  0.49457513  0.00613211  1
  In  In64  1  0.16387810  0.65214613  0.15754294  1
  In  In65  1  0.03085606  0.31433061  -0.00294325  1
  In  In66  1  0.48757260  -0.02209238  0.81893983  1
  In  In67  1  0.16615592  0.50739035  0.67070359  1
  In  In68  1  0.00016617  0.81375538  0.47757925  1
  In  In69  1  0.83504884  0.50560021  0.65364391  1
  In  In70  1  0.65128667  0.81758646  0.18039325  1
  In  In71  1  0.68168052  0.50509926  0.20974058  1
  Te  Te72  1  0.08148874  0.08711233  0.10225341  1
  Te  Te73  1  0.07455522  0.10016293  0.40612569  1
  Te  Te74  1  0.08174997  0.09685257  0.73869529  1
  Te  Te75  1  0.07008417  0.43231814  0.08084412  1
  Te  Te76  1  0.05511432  0.41013732  0.39231727  1
  Te  Te77  1  0.10795439  0.39966457  0.76207007  1
  Te  Te78  1  0.07139459  0.74930577  0.08250072  1
  Te  Te79  1  0.12763667  0.75255508  0.43833335  1
  Te  Te80  1  0.08554268  0.76145765  0.75704028  1
  Te  Te81  1  0.41683844  0.08913939  0.07006380  1
  Te  Te82  1  0.45811015  0.06895122  0.45056806  1
  Te  Te83  1  0.44652373  0.09659291  0.73752224  1
  Te  Te84  1  0.41881556  0.40166802  0.09958203  1
  Te  Te85  1  0.41463899  0.41478060  0.42333975  1
  Te  Te86  1  0.42611930  0.47644046  0.76401165  1
  Te  Te87  1  0.44275186  0.72048717  0.04398615  1
  Te  Te88  1  0.40299089  0.74613773  0.41155157  1
  Te  Te89  1  0.42233127  0.74213723  0.75965464  1
  Te  Te90  1  0.77765299  0.08665230  0.06788204  1
  Te  Te91  1  0.75432918  0.08787938  0.45790724  1
  Te  Te92  1  0.75257018  0.08299285  0.73440896  1
  Te  Te93  1  0.75573063  0.41182474  0.09191179  1
  Te  Te94  1  0.79464864  0.39838277  0.40124694  1
  Te  Te95  1  0.73981540  0.43478232  0.75089749  1
  Te  Te96  1  0.75408189  0.72860478  0.11477019  1
  Te  Te97  1  0.72617389  0.78543247  0.41826001  1
  Te  Te98  1  0.75172029  0.74216920  0.75944377  1
  Te  Te99  1  0.06882760  0.29871459  0.26229357  1
  Te  Te100  1  0.08835327  0.25570712  0.57282046  1
  Te  Te101  1  0.09761378  0.23120460  0.90057943  1
  Te  Te102  1  0.09401420  0.58553738  0.27068468  1
  Te  Te103  1  0.06159325  0.55848085  0.57441574  1
  Te  Te104  1  0.08199226  0.57861723  0.92323627  1
  Te  Te105  1  0.07030070  0.91595899  0.28193436  1
  Te  Te106  1  0.08221256  0.91882502  0.56512900  1
  Te  Te107  1  0.10575001  0.92813098  0.90705231  1
  Te  Te108  1  0.41406834  0.26446609  0.25305443  1
  Te  Te109  1  0.40878350  0.26971914  0.61076003  1
  Te  Te110  1  0.42971802  0.24313246  0.90935815  1
  Te  Te111  1  0.38629199  0.56783762  0.23065166  1
  Te  Te112  1  0.41129106  0.58530480  0.58339089  1
  Te  Te113  1  0.44333006  0.61880496  0.92505447  1
  Te  Te114  1  0.40662856  0.92017224  0.26118654  1
  Te  Te115  1  0.42306668  0.90530382  0.57237016  1
  Te  Te116  1  0.41155271  0.90558166  0.92714940  1
  Te  Te117  1  0.76075022  0.22615164  0.26546722  1
  Te  Te118  1  0.75300122  0.21355147  0.55212686  1
  Te  Te119  1  0.75339444  0.23307443  0.91504946  1
  Te  Te120  1  0.77108710  0.58866327  0.29584855  1
  Te  Te121  1  0.75306106  0.58872801  0.55885800  1
  Te  Te122  1  0.75845237  0.57894502  0.92470005  1
  Te  Te123  1  0.73924750  0.93336302  0.23662776  1
  Te  Te124  1  0.76023763  0.94331314  0.57123589  1
  Te  Te125  1  0.74622938  0.89303388  0.91515925  1
  Te  Te126  1  0.22110462  0.26960064  0.10440043  1
  Te  Te127  1  0.26295355  0.24851820  0.41957025  1
  Te  Te128  1  0.27923634  0.25880878  0.74158074  1
  Te  Te129  1  0.27379262  0.56633565  0.10442002  1
  Te  Te130  1  0.21644984  0.55415391  0.38225667  1
  Te  Te131  1  0.27533310  0.56502079  0.76721264  1
  Te  Te132  1  0.26529106  0.92570299  0.08583249  1
  Te  Te133  1  0.23689898  0.91276769  0.41280914  1
  Te  Te134  1  0.27047361  0.91563736  0.74073017  1
  Te  Te135  1  0.57751961  0.26254597  0.10855252  1
  Te  Te136  1  0.60364552  0.24218735  0.43411458  1
  Te  Te137  1  0.59285175  0.26752742  0.73309564  1
  Te  Te138  1  0.58898925  0.55407786  0.10020111  1
  Te  Te139  1  0.57452501  0.57376189  0.42237781  1
  Te  Te140  1  0.55374712  0.57538533  0.73730443  1
  Te  Te141  1  0.56849120  0.89436073  0.07784358  1
  Te  Te142  1  0.60143697  0.90404932  0.42712904  1
  Te  Te143  1  0.60228483  0.91817562  0.74351160  1
  Te  Te144  1  0.92187528  0.24442632  0.07894015  1
  Te  Te145  1  0.87549699  0.26626874  0.38355115  1
  Te  Te146  1  0.90938786  0.24256045  0.73822007  1
  Te  Te147  1  0.91520647  0.60571917  0.10442908  1
  Te  Te148  1  0.89770870  0.61642705  0.40102873  1
  Te  Te149  1  0.91471178  0.59308430  0.74939843  1
  Te  Te150  1  0.91872234  0.91261729  0.09209729  1
  Te  Te151  1  0.92063965  0.91664906  0.40804055  1
  Te  Te152  1  0.92943286  0.92366491  0.73734536  1
  Te  Te153  1  0.25485912  0.08274535  0.25672482  1
  Te  Te154  1  0.24519255  0.07487506  0.56472904  1
  Te  Te155  1  0.21369392  0.13315339  0.93549698  1
  Te  Te156  1  0.20605076  0.37677119  0.21798093  1
  Te  Te157  1  0.25409920  0.41979683  0.58288639  1
  Te  Te158  1  0.26175081  0.41131376  0.91167671  1
  Te  Te159  1  0.24199200  0.76062784  0.23581798  1
  Te  Te160  1  0.21221265  0.70918360  0.55997353  1
  Te  Te161  1  0.24519918  0.72038178  0.94277284  1
  Te  Te162  1  0.57623659  0.08605971  0.25307839  1
  Te  Te163  1  0.57995461  0.11751618  0.54158925  1
  Te  Te164  1  0.59280884  0.05894395  0.91830270  1
  Te  Te165  1  0.59826275  0.40574293  0.27723973  1
  Te  Te166  1  0.59619437  0.42524220  0.58470492  1
  Te  Te167  1  0.57596819  0.40581151  0.92042534  1
  Te  Te168  1  0.55167900  0.72104296  0.24243685  1
  Te  Te169  1  0.60876759  0.75203214  0.58370492  1
  Te  Te170  1  0.56176406  0.72339783  0.92668589  1
  Te  Te171  1  0.93357170  0.08623080  0.29028606  1
  Te  Te172  1  0.90247260  0.11115681  0.56072436  1
  Te  Te173  1  0.92500715  0.08489315  0.90312187  1
  Te  Te174  1  0.89139178  0.43525732  0.27165620  1
  Te  Te175  1  0.90631264  0.40060870  0.57248209  1
  Te  Te176  1  0.92020718  0.40850636  0.91104512  1
  Te  Te177  1  0.93145134  0.72090381  0.28916881  1
  Te  Te178  1  0.90141710  0.75435062  0.57853988  1
  Te  Te179  1  0.91966641  0.73488753  0.92609762  1
