# generated using pymatgen
data_In2Te3
_symmetry_space_group_name_H-M   'P 1'
_cell_length_a   18.85974004
_cell_length_b   18.86730361
_cell_length_c   18.85672290
_cell_angle_alpha   90.03999236
_cell_angle_beta   90.02273151
_cell_angle_gamma   90.04346697
_symmetry_Int_Tables_number   1
_chemical_formula_structural   In2Te3
_chemical_formula_sum   'In72 Te108'
_cell_volume   6709.82964832
_cell_formula_units_Z   36
loop_
 _symmetry_equiv_pos_site_id
 _symmetry_equiv_pos_as_xyz
  1  'x, y, z'
loop_
 _atom_site_type_symbol
 _atom_site_label
 _atom_site_symmetry_multiplicity
 _atom_site_fract_x
 _atom_site_fract_y
 _atom_site_fract_z
 _atom_site_occupancy
  In  In0  1  0.15596256  0.16556754  0.01098990  1
  In  In1  1  0.03008942  0.00667559  -0.01013788  1
  In  In2  1  0.16499812  -0.01011679  0.51053031  1
  In  In3  1  0.48361759  0.20649402  -0.00456771  1
  In  In4  1  0.49893060  0.00346762  0.84970799  1
  In  In5  1  0.66005359  0.80509189  0.81446556  1
  In  In6  1  0.81559046  0.48999333  -0.02460541  1
  In  In7  1  0.31658802  0.51705104  0.14349306  1
  In  In8  1  0.00036080  0.17626982  0.52172344  1
  In  In9  1  0.19459838  0.79821282  -0.03951882  1
  In  In10  1  0.02579658  0.68352993  0.69067853  1
  In  In11  1  0.66695720  0.19268765  0.17722606  1
  In  In12  1  -0.00210558  0.17197924  0.85365679  1
  In  In13  1  0.83284688  0.50755630  0.68473455  1
  In  In14  1  0.49154280  -0.00137994  0.50218335  1
  In  In15  1  0.17550357  0.48960547  0.68381114  1
  In  In16  1  0.66374900  -0.00181538  0.34746128  1
  In  In17  1  0.51467010  -0.00513707  0.17032532  1
  In  In18  1  0.50025573  0.50933318  0.36275127  1
  In  In19  1  0.62841548  0.81228636  0.16015050  1
  In  In20  1  0.32034411  0.83022807  0.17608251  1
  In  In21  1  0.18296296  0.17559108  0.68682647  1
  In  In22  1  0.86116475  0.80171311  -0.01806350  1
  In  In23  1  0.01939089  0.32503297  0.68936125  1
  In  In24  1  0.18760599  0.81203105  0.34988308  1
  In  In25  1  0.17472960  0.01050015  0.16641206  1
  In  In26  1  0.83406109  0.84301018  0.34536299  1
  In  In27  1  0.30271650  0.18101421  0.16477708  1
  In  In28  1  0.01882851  0.35855467  0.33596867  1
  In  In29  1  0.34148071  0.15647322  0.50145244  1
  In  In30  1  0.35318478  0.33854386  0.33542792  1
  In  In31  1  0.50208124  0.36106083  0.17402447  1
  In  In32  1  0.83850885  0.63790147  0.51149741  1
  In  In33  1  0.81300876  -0.02237438  0.48643669  1
  In  In34  1  0.49500910  0.34861221  0.52514799  1
  In  In35  1  -0.01028178  0.34295776  -0.00847481  1
  In  In36  1  0.65272546  0.34031323  0.66758937  1
  In  In37  1  0.45823578  0.83129521  -0.01914749  1
  In  In38  1  -0.01707974  -0.00643461  0.31974480  1
  In  In39  1  0.83002798  0.00500577  0.81477952  1
  In  In40  1  0.82351146  0.35691062  0.48376795  1
  In  In41  1  0.81384168  0.33745851  0.14951421  1
  In  In42  1  0.18322303  0.32582985  0.14602572  1
  In  In43  1  0.00673066  0.51788314  0.17209529  1
  In  In44  1  0.83527276  0.65348926  0.17639322  1
  In  In45  1  0.33725443  0.82265187  0.51241911  1
  In  In46  1  0.50739684  0.82520070  0.66845417  1
  In  In47  1  0.16714315  -0.02925475  0.82113200  1
  In  In48  1  0.52358885  0.47179310  -0.01935159  1
  In  In49  1  -0.00957253  0.49555473  0.48919070  1
  In  In50  1  0.80463400  0.49714782  0.34678724  1
  In  In51  1  0.02848498  0.66496920  -0.02576671  1
  In  In52  1  0.82966585  0.80718576  0.67810077  1
  In  In53  1  0.34663583  0.00070467  -0.01346204  1
  In  In54  1  0.16617480  0.67796849  0.50741798  1
  In  In55  1  0.16718400  0.17948587  0.33109658  1
  In  In56  1  0.00903724  -0.03203901  0.66384160  1
  In  In57  1  0.83331642  0.16671124  0.67930183  1
  In  In58  1  0.48447864  0.79830427  0.35090103  1
  In  In59  1  0.79951733  0.20622715  -0.02334727  1
  In  In60  1  0.68084101  0.80629326  0.52482950  1
  In  In61  1  0.50648543  0.61768725  0.79601917  1
  In  In62  1  0.51310695  0.16527849  0.67028830  1
  In  In63  1  0.66085027  0.64890103  -0.00008503  1
  In  In64  1  0.16509692  0.52511614  0.34308548  1
  In  In65  1  0.34320715  0.18624112  0.83537999  1
  In  In66  1  0.48417635  0.66863297  0.16749817  1
  In  In67  1  0.33088655  0.50436702  0.82967340  1
  In  In68  1  0.01069113  0.82674642  0.13778410  1
  In  In69  1  0.84065853  0.01082307  0.18030896  1
  In  In70  1  0.67580723  0.00954077  -0.02787813  1
  In  In71  1  0.64765765  0.17819725  0.48186906  1
  Te  Te72  1  0.06244871  0.09579841  0.10919350  1
  Te  Te73  1  0.08109369  0.08665142  0.41989952  1
  Te  Te74  1  0.06959590  0.08524775  0.75125707  1
  Te  Te75  1  0.08450205  0.42292283  0.08244144  1
  Te  Te76  1  0.11213875  0.41746322  0.44017932  1
  Te  Te77  1  0.07681106  0.42843309  0.77674406  1
  Te  Te78  1  0.11746600  0.73800320  0.07987540  1
  Te  Te79  1  0.07384108  0.74413901  0.41242328  1
  Te  Te80  1  0.12714854  0.75776209  0.77347877  1
  Te  Te81  1  0.42286319  0.08630154  0.08717049  1
  Te  Te82  1  0.43248333  0.09108965  0.40589712  1
  Te  Te83  1  0.41232215  0.08156978  0.75105890  1
  Te  Te84  1  0.40621804  0.41864879  0.07182815  1
  Te  Te85  1  0.39328496  0.43283562  0.44638510  1
  Te  Te86  1  0.40585970  0.44846731  0.70984539  1
  Te  Te87  1  0.38445780  0.73589455  0.07217458  1
  Te  Te88  1  0.39908490  0.70701270  0.43368898  1
  Te  Te89  1  0.42645729  0.73348321  0.75183747  1
  Te  Te90  1  0.74097600  0.08638797  0.08688913  1
  Te  Te91  1  0.76111218  0.09720426  0.41076136  1
  Te  Te92  1  0.73333923  0.10509073  0.76851897  1
  Te  Te93  1  0.73031891  0.43769837  0.08263708  1
  Te  Te94  1  0.70758851  0.43921708  0.44481288  1
  Te  Te95  1  0.75663960  0.40006214  0.75878155  1
  Te  Te96  1  0.75239907  0.75454812  0.08044325  1
  Te  Te97  1  0.75760626  0.73323724  0.41693598  1
  Te  Te98  1  0.74210362  0.70609621  0.74260102  1
  Te  Te99  1  0.07798029  0.25832122  0.23717301  1
  Te  Te100  1  0.10943773  0.26164166  0.58296958  1
  Te  Te101  1  0.09880580  0.26734838  0.91313838  1
  Te  Te102  1  0.08750563  0.61045527  0.25200485  1
  Te  Te103  1  0.07382434  0.57321929  0.59013127  1
  Te  Te104  1  0.13182410  0.58004104  0.90544190  1
  Te  Te105  1  0.09014528  0.91086780  0.24598688  1
  Te  Te106  1  0.09650779  0.87870545  0.58342161  1
  Te  Te107  1  0.07385572  0.88781057  0.91147285  1
  Te  Te108  1  0.41970819  0.24520865  0.23596461  1
  Te  Te109  1  0.40588752  0.25077647  0.60193966  1
  Te  Te110  1  0.43090050  0.29468868  0.88798411  1
  Te  Te111  1  0.40577314  0.57289206  0.25481086  1
  Te  Te112  1  0.45943420  0.61127844  0.54417557  1
  Te  Te113  1  0.43011354  0.57704576  0.92233493  1
  Te  Te114  1  0.42598935  0.90652306  0.25684201  1
  Te  Te115  1  0.40910147  0.92277963  0.60418963  1
  Te  Te116  1  0.38147513  0.90507265  0.87233006  1
  Te  Te117  1  0.75163494  0.27185588  0.26630695  1
  Te  Te118  1  0.75102249  0.25113618  0.58008263  1
  Te  Te119  1  0.72524243  0.31256132  0.90806887  1
  Te  Te120  1  0.73180766  0.57586124  0.24491755  1
  Te  Te121  1  0.73584492  0.55645824  0.58175085  1
  Te  Te122  1  0.74483727  0.59211597  0.89399897  1
  Te  Te123  1  0.73681440  0.91187404  0.24250757  1
  Te  Te124  1  0.74634571  0.91667565  0.60779481  1
  Te  Te125  1  0.75489418  0.89458399  0.90920952  1
  Te  Te126  1  0.27297209  0.26134579  0.04035822  1
  Te  Te127  1  0.25626298  0.25853428  0.42389987  1
  Te  Te128  1  0.24365432  0.27622786  0.77453017  1
  Te  Te129  1  0.22914259  0.57741316  0.03673591  1
  Te  Te130  1  0.25941110  0.58407014  0.43891306  1
  Te  Te131  1  0.26361871  0.60291317  0.73341289  1
  Te  Te132  1  0.24386325  0.91762174  0.06728308  1
  Te  Te133  1  0.26651174  0.92217421  0.41873055  1
  Te  Te134  1  0.20725119  0.87897814  0.71205159  1
  Te  Te135  1  0.58993690  0.27808641  0.07738027  1
  Te  Te136  1  0.55414817  0.26872964  0.41548760  1
  Te  Te137  1  0.55651723  0.27518378  0.76298796  1
  Te  Te138  1  0.57278126  0.56973765  0.09345293  1
  Te  Te139  1  0.57594048  0.60645276  0.44855491  1
  Te  Te140  1  0.61889780  0.55518336  0.72557516  1
  Te  Te141  1  0.57329699  0.91774057  0.05116473  1
  Te  Te142  1  0.58774012  0.89165928  0.42708727  1
  Te  Te143  1  0.58864444  0.92551875  0.75423882  1
  Te  Te144  1  0.90898652  0.24418987  0.07476491  1
  Te  Te145  1  0.92976728  0.26551498  0.42055260  1
  Te  Te146  1  0.90661483  0.26163719  0.77277812  1
  Te  Te147  1  0.92140015  0.59002449  0.06749801  1
  Te  Te148  1  0.92085964  0.58680175  0.39204172  1
  Te  Te149  1  0.93618321  0.58612383  0.76023918  1
  Te  Te150  1  0.91047887  0.92295578  0.07308993  1
  Te  Te151  1  0.93830273  0.90740086  0.43722296  1
  Te  Te152  1  0.92281600  0.89439438  0.76418953  1
  Te  Te153  1  0.26361990  0.07678431  0.26959138  1
  Te  Te154  1  0.25536779  0.07407507  0.59958328  1
  Te  Te155  1  0.23550896  0.07889375  0.91168774  1
  Te  Te156  1  0.24882530  0.41685657  0.25072779  1
  Te  Te157  1  0.28708239  0.41490716  0.62257122  1
  Te  Te158  1  0.23316779  0.46107542  0.93511050  1
  Te  Te159  1  0.25783347  0.72388204  0.25540035  1
  Te  Te160  1  0.26653724  0.73034963  0.60532987  1
  Te  Te161  1  0.25761298  0.71690911  0.85288797  1
  Te  Te162  1  0.58259756  0.09462662  0.26198095  1
  Te  Te163  1  0.59841148  0.07405507  0.58095866  1
  Te  Te164  1  0.57987056  0.11391384  0.91692271  1
  Te  Te165  1  0.58642578  0.42300275  0.27745819  1
  Te  Te166  1  0.54761236  0.45325115  0.63383748  1
  Te  Te167  1  0.60969766  0.41320631  0.87524421  1
  Te  Te168  1  0.58821725  0.71906926  0.27151220  1
  Te  Te169  1  0.57214778  0.71777091  0.58170099  1
  Te  Te170  1  0.56856664  0.74247855  0.91981055  1
  Te  Te171  1  0.90737626  0.10745966  0.26766609  1
  Te  Te172  1  0.91310564  0.07018621  0.58927584  1
  Te  Te173  1  0.90269169  0.08010980  0.92862959  1
  Te  Te174  1  0.91177948  0.42289804  0.24724711  1
  Te  Te175  1  0.92041711  0.40612090  0.59399329  1
  Te  Te176  1  0.93383930  0.44323651  0.89960414  1
  Te  Te177  1  0.91738303  0.76437032  0.24130669  1
  Te  Te178  1  0.92592141  0.73888613  0.58373634  1
  Te  Te179  1  0.92139690  0.71222293  0.88052749  1
