# generated using pymatgen
data_In2Te3
_symmetry_space_group_name_H-M   'P 1'
_cell_length_a   18.75848257
_cell_length_b   18.75894020
_cell_length_c   18.75820020
_cell_angle_alpha   90.12131312
_cell_angle_beta   89.97180846
_cell_angle_gamma   90.06300682
_symmetry_Int_Tables_number   1
_chemical_formula_structural   In2Te3
_chemical_formula_sum   'In72 Te108'
_cell_volume   6600.78947475
_cell_formula_units_Z   36
loop_
 _symmetry_equiv_pos_site_id
 _symmetry_equiv_pos_as_xyz
  1  'x, y, z'
loop_
 _atom_site_type_symbol
 _atom_site_label
 _atom_site_symmetry_multiplicity
 _atom_site_fract_x
 _atom_site_fract_y
 _atom_site_fract_z
 _atom_site_occupancy
  In  In0  1  0.64625705  0.67804954  0.33060484  1
  In  In1  1  0.51408561  0.68295743  0.85395484  1
  In  In2  1  0.49307262  0.16003799  0.66390141  1
  In  In3  1  0.19490314  0.68074897  0.48757855  1
  In  In4  1  0.00360997  0.18573441  0.48206172  1
  In  In5  1  -0.00443906  0.49225152  0.83798851  1
  In  In6  1  0.34980516  0.12844098  0.17362738  1
  In  In7  1  -0.00498775  0.81776731  0.85393363  1
  In  In8  1  0.82323245  0.49433232  0.31478888  1
  In  In9  1  -0.00483381  0.02211509  0.68912647  1
  In  In10  1  0.82586157  0.50068766  0.69547254  1
  In  In11  1  0.64772458  0.70167009  0.66304304  1
  In  In12  1  0.82833737  0.83470136  0.30729877  1
  In  In13  1  0.38376002  0.33018820  -0.01220231  1
  In  In14  1  0.18183708  0.33054797  0.49974933  1
  In  In15  1  0.49279771  0.50901430  0.63625062  1
  In  In16  1  0.50616306  0.32167941  0.84728717  1
  In  In17  1  -0.01810740  0.51322928  0.17361917  1
  In  In18  1  0.83894840  0.18420489  0.67861562  1
  In  In19  1  0.81315393  0.67047653  0.48001583  1
  In  In20  1  0.17429939  0.14917223  0.02161721  1
  In  In21  1  0.34048042  0.33373921  0.65559262  1
  In  In22  1  -0.00242845  0.00682230  0.32492621  1
  In  In23  1  0.30889996  0.52584436  0.79430179  1
  In  In24  1  0.18901705  -0.03158921  0.47273125  1
  In  In25  1  0.17363491  -0.01083663  0.84891978  1
  In  In26  1  0.65901460  0.49268761  0.50013297  1
  In  In27  1  0.79610349  0.02459795  0.48933166  1
  In  In28  1  0.34626403  0.15958698  0.84874112  1
  In  In29  1  0.35435407  0.15501746  0.47248692  1
  In  In30  1  0.16928353  0.50740659  -0.00421221  1
  In  In31  1  0.18643352  0.83902478  0.34173803  1
  In  In32  1  0.19664192  0.85329140  0.03433046  1
  In  In33  1  0.34236304  0.83385487  0.48931527  1
  In  In34  1  0.66110212  0.17409059  0.48493202  1
  In  In35  1  -0.01105297  0.84023581  0.16927151  1
  In  In36  1  0.15758291  0.34907039  0.83339762  1
  In  In37  1  0.79976706  -0.01373531  0.86633052  1
  In  In38  1  0.34144087  0.49561205  0.13860543  1
  In  In39  1  0.35311118  0.82719547  0.84612269  1
  In  In40  1  0.66478268  0.15057911  0.85560950  1
  In  In41  1  0.51275565  -0.01484994  0.18203521  1
  In  In42  1  0.16699717  0.17192746  0.64291214  1
  In  In43  1  0.51177858  0.82304233  0.00043188  1
  In  In44  1  -0.03857156  0.16832656  0.83812491  1
  In  In45  1  0.15982877  0.50927483  0.34989976  1
  In  In46  1  -0.01403295  0.67973264  0.30727901  1
  In  In47  1  0.01938383  0.50000413  0.50664026  1
  In  In48  1  -0.01124716  0.66847965  0.00781556  1
  In  In49  1  -0.00079858  0.64867962  0.66700146  1
  In  In50  1  0.51062012  0.48836295  0.33547223  1
  In  In51  1  0.80455927  -0.00208991  0.15847962  1
  In  In52  1  0.36141723  -0.01288473  0.66516259  1
  In  In53  1  0.51702047  0.16097305  0.33227050  1
  In  In54  1  0.34764385  0.33742856  0.34195042  1
  In  In55  1  -0.01484394  0.34050156  -0.01459590  1
  In  In56  1  0.16957111  0.31445393  0.17037946  1
  In  In57  1  -0.00633042  0.84166834  0.51603843  1
  In  In58  1  0.66887054  0.68805225  0.01008173  1
  In  In59  1  0.01898718  0.15996365  0.16545552  1
  In  In60  1  0.80144708  0.31234471  0.18829968  1
  In  In61  1  0.32658185  0.68217766  0.34009818  1
  In  In62  1  0.65415794  0.48678608  0.16371029  1
  In  In63  1  0.66636731  0.49812123  0.84318286  1
  In  In64  1  0.81978679  0.15056398  0.00544951  1
  In  In65  1  0.34151009  0.68680634  0.00264475  1
  In  In66  1  0.18105184  0.81055640  0.63541545  1
  In  In67  1  0.79827432  0.83925027  0.68881175  1
  In  In68  1  0.83515631  0.33042743  0.48804292  1
  In  In69  1  0.50311568  0.47446858  -0.01689527  1
  In  In70  1  0.63671131  -0.01640728  0.68105503  1
  In  In71  1  0.50315731  0.69101400  0.17624138  1
  Te  Te72  1  0.06913969  0.05803066  0.07048651  1
  Te  Te73  1  0.09473517  0.08045637  0.41865171  1
  Te  Te74  1  0.10025896  0.09988631  0.77156183  1
  Te  Te75  1  0.08464106  0.41649131  0.08627074  1
  Te  Te76  1  0.07410043  0.39822998  0.40712542  1
  Te  Te77  1  0.08220465  0.42772119  0.73576970  1
  Te  Te78  1  0.08757909  0.75569317  0.08770180  1
  Te  Te79  1  0.06849386  0.74826303  0.41847069  1
  Te  Te80  1  0.08115597  0.75635834  0.74226228  1
  Te  Te81  1  0.44695031  0.07060418  0.07532153  1
  Te  Te82  1  0.44527723  0.05625207  0.41003854  1
  Te  Te83  1  0.43944080  0.06471966  0.77142861  1
  Te  Te84  1  0.45532212  0.39490060  0.11268287  1
  Te  Te85  1  0.42378945  0.42101464  0.43611787  1
  Te  Te86  1  0.42106011  0.41547878  0.76018829  1
  Te  Te87  1  0.40290259  0.78114571  0.10499160  1
  Te  Te88  1  0.44180804  0.76358920  0.39391526  1
  Te  Te89  1  0.44354082  0.76211377  0.74620924  1
  Te  Te90  1  0.70959373  0.09596303  0.09015668  1
  Te  Te91  1  0.73854707  0.10188639  0.37556750  1
  Te  Te92  1  0.75687265  0.07012811  0.74146473  1
  Te  Te93  1  0.76184308  0.41556218  0.09022174  1
  Te  Te94  1  0.73381169  0.40499111  0.39898830  1
  Te  Te95  1  0.73105164  0.40232758  0.75014798  1
  Te  Te96  1  0.76835556  0.79060781  0.05868003  1
  Te  Te97  1  0.73088013  0.77688859  0.41524169  1
  Te  Te98  1  0.74959292  0.72618219  0.76968273  1
  Te  Te99  1  0.09046819  0.23941725  0.26854860  1
  Te  Te100  1  0.06600525  0.27101473  0.59260209  1
  Te  Te101  1  0.09021932  0.24450801  0.92374533  1
  Te  Te102  1  0.09381987  0.59397348  0.24112283  1
  Te  Te103  1  0.11586161  0.58797664  0.58620616  1
  Te  Te104  1  0.08445937  0.59646020  0.90877748  1
  Te  Te105  1  0.09602450  0.92175399  0.24633759  1
  Te  Te106  1  0.08779952  0.93714712  0.59273533  1
  Te  Te107  1  0.08362439  0.90849592  0.94061414  1
  Te  Te108  1  0.42027156  0.24399239  0.24540662  1
  Te  Te109  1  0.43051529  0.25441179  0.56115026  1
  Te  Te110  1  0.47226721  0.20150259  0.95085515  1
  Te  Te111  1  0.41867587  0.58026673  0.24412949  1
  Te  Te112  1  0.39850967  0.59730550  0.57038198  1
  Te  Te113  1  0.40871426  0.58102138  0.91536742  1
  Te  Te114  1  0.38739996  0.92111946  0.23467940  1
  Te  Te115  1  0.44890571  0.90824971  0.57183707  1
  Te  Te116  1  0.42305658  0.92241871  0.93367169  1
  Te  Te117  1  0.71437006  0.21418390  0.25690144  1
  Te  Te118  1  0.74271106  0.25754127  0.58657205  1
  Te  Te119  1  0.76857151  0.24499323  0.90318258  1
  Te  Te120  1  0.73749460  0.59346074  0.23826320  1
  Te  Te121  1  0.74292214  0.58897199  0.58935460  1
  Te  Te122  1  0.74402037  0.58440100  0.93511232  1
  Te  Te123  1  0.72006272  0.92337366  0.25879966  1
  Te  Te124  1  0.73213270  0.91555255  0.57546915  1
  Te  Te125  1  0.71707884  0.91418024  0.96763612  1
  Te  Te126  1  0.27545878  0.25394112  0.07778471  1
  Te  Te127  1  0.24722114  0.23480346  0.39894778  1
  Te  Te128  1  0.26111154  0.24708864  0.75668024  1
  Te  Te129  1  0.24499053  0.60273258  0.08879009  1
  Te  Te130  1  0.27975551  0.56447148  0.42640292  1
  Te  Te131  1  0.22144882  0.62157404  0.73218579  1
  Te  Te132  1  0.27349159  0.94949628  0.12848414  1
  Te  Te133  1  0.30567918  0.93968213  0.37548705  1
  Te  Te134  1  0.25109323  0.91006576  0.74200251  1
  Te  Te135  1  0.56392405  0.28331306  0.05447177  1
  Te  Te136  1  0.57023752  0.26999672  0.41862627  1
  Te  Te137  1  0.59064133  0.24057084  0.74856289  1
  Te  Te138  1  0.56416967  0.59186575  0.07272286  1
  Te  Te139  1  0.56791289  0.59525632  0.43172726  1
  Te  Te140  1  0.57592999  0.58307990  0.75200127  1
  Te  Te141  1  0.60452216  0.91164541  0.08239930  1
  Te  Te142  1  0.54666162  0.86825947  0.44222115  1
  Te  Te143  1  0.56380356  0.88209613  0.75936947  1
  Te  Te144  1  0.91551532  0.24780171  0.08634727  1
  Te  Te145  1  0.90031467  0.23857384  0.39217252  1
  Te  Te146  1  0.92904102  0.27877547  0.74796741  1
  Te  Te147  1  0.89720012  0.56530141  0.06554615  1
  Te  Te148  1  0.91979384  0.58141438  0.41267403  1
  Te  Te149  1  0.90432772  0.60352050  0.77691347  1
  Te  Te150  1  0.89532423  0.91022755  0.07543047  1
  Te  Te151  1  0.90551054  0.92198600  0.41804655  1
  Te  Te152  1  0.91239371  0.91487886  0.76219591  1
  Te  Te153  1  0.22359350  0.06492332  0.21590493  1
  Te  Te154  1  0.26724501  0.07475996  0.57868797  1
  Te  Te155  1  0.27250161  0.06182333  0.94054781  1
  Te  Te156  1  0.25333782  0.42649031  0.24697139  1
  Te  Te157  1  0.25166211  0.42763646  0.58559960  1
  Te  Te158  1  0.26627263  0.41443637  0.92234583  1
  Te  Te159  1  0.23904745  0.74507326  0.24023516  1
  Te  Te160  1  0.30393692  0.72121649  0.59775396  1
  Te  Te161  1  0.23699974  0.75858904  0.91757964  1
  Te  Te162  1  0.60059545  0.11236068  0.21285270  1
  Te  Te163  1  0.57873462  0.07409241  0.57078105  1
  Te  Te164  1  0.56714431  0.07354459  0.93332121  1
  Te  Te165  1  0.59571897  0.39114622  0.26131904  1
  Te  Te166  1  0.58742055  0.40476387  0.59518819  1
  Te  Te167  1  0.61937183  0.37611643  0.94661851  1
  Te  Te168  1  0.60301211  0.78495042  0.23438739  1
  Te  Te169  1  0.56425192  0.77360098  0.56505407  1
  Te  Te170  1  0.61702149  0.79602279  0.87946448  1
  Te  Te171  1  0.90351585  0.08757781  0.23854963  1
  Te  Te172  1  0.91234594  0.08443236  0.57249400  1
  Te  Te173  1  0.92043584  0.05832033  0.93130380  1
  Te  Te174  1  0.92175864  0.39780214  0.25180838  1
  Te  Te175  1  0.90547595  0.43113885  0.58098029  1
  Te  Te176  1  0.88739423  0.42127177  0.91189846  1
  Te  Te177  1  0.88320709  0.72983370  0.21019228  1
  Te  Te178  1  0.89997463  0.74687160  0.59133275  1
  Te  Te179  1  0.88843452  0.76127931  0.94203083  1
