# generated using pymatgen
data_In2Te3
_symmetry_space_group_name_H-M   'P 1'
_cell_length_a   18.77772360
_cell_length_b   18.78199181
_cell_length_c   18.78226356
_cell_angle_alpha   90.03973420
_cell_angle_beta   90.01148017
_cell_angle_gamma   90.01516279
_symmetry_Int_Tables_number   1
_chemical_formula_structural   In2Te3
_chemical_formula_sum   'In72 Te108'
_cell_volume   6624.18405700
_cell_formula_units_Z   36
loop_
 _symmetry_equiv_pos_site_id
 _symmetry_equiv_pos_as_xyz
  1  'x, y, z'
loop_
 _atom_site_type_symbol
 _atom_site_label
 _atom_site_symmetry_multiplicity
 _atom_site_fract_x
 _atom_site_fract_y
 _atom_site_fract_z
 _atom_site_occupancy
  In  In0  1  0.02069084  0.50499396  0.51671068  1
  In  In1  1  0.52452622  0.00061792  0.82611340  1
  In  In2  1  0.17570258  0.52341312  0.66740908  1
  In  In3  1  0.81587605  0.49226938  0.33497769  1
  In  In4  1  -0.02166589  0.82796450  0.16340678  1
  In  In5  1  0.17138397  0.15520332  0.33435749  1
  In  In6  1  0.15296113  0.16968769  -0.01113289  1
  In  In7  1  0.34008962  0.18408687  0.82619394  1
  In  In8  1  0.16888927  0.84049602  0.33127874  1
  In  In9  1  -0.00888174  0.64425241  -0.00033135  1
  In  In10  1  0.82955111  0.68105265  0.51540089  1
  In  In11  1  -0.00873241  0.83818814  0.52204216  1
  In  In12  1  0.33822595  0.00655250  0.34556044  1
  In  In13  1  0.35820082  0.34930485  0.66794956  1
  In  In14  1  -0.00831153  -0.01136438  0.67362719  1
  In  In15  1  0.82673484  0.49346152  0.03004810  1
  In  In16  1  0.65872287  0.82226660  0.52902912  1
  In  In17  1  0.15850860  0.34128300  0.13940216  1
  In  In18  1  0.52055497  0.48583207  0.34294156  1
  In  In19  1  0.67299527  0.64994077  0.34580027  1
  In  In20  1  0.67924444  -0.00069193  -0.00926974  1
  In  In21  1  0.80118924  0.69339630  0.80729792  1
  In  In22  1  0.18153928  0.14173182  0.66635852  1
  In  In23  1  0.81696842  0.15660825  0.66797594  1
  In  In24  1  0.34480159  0.82578208  0.50967323  1
  In  In25  1  0.49693429  0.82125092  0.35957695  1
  In  In26  1  -0.01473134  0.17196019  0.49261664  1
  In  In27  1  0.33918744  -0.01070318  0.03447006  1
  In  In28  1  -0.01061827  0.00800868  -0.01343284  1
  In  In29  1  0.50986834  0.34244648  0.81702176  1
  In  In30  1  0.80912708  0.30829559  0.84630357  1
  In  In31  1  0.32575721  0.81653045  0.81588083  1
  In  In32  1  0.33668706  -0.00715202  0.66779577  1
  In  In33  1  0.31414420  0.82462664  0.16276578  1
  In  In34  1  0.64748695  0.52370946  0.81249568  1
  In  In35  1  0.65723524  0.67268554  -0.00711234  1
  In  In36  1  0.17638171  0.52581406  0.34622210  1
  In  In37  1  0.83294489  0.50572896  0.64501834  1
  In  In38  1  0.16820828  0.68715545  0.18028115  1
  In  In39  1  -0.02499397  0.32045828  0.34089931  1
  In  In40  1  -0.01322758  0.15117788  0.16830599  1
  In  In41  1  0.67637446  0.33561482  0.33992491  1
  In  In42  1  -0.01104505  -0.00230260  0.34240859  1
  In  In43  1  0.67874528  0.84736320  0.16637803  1
  In  In44  1  0.82917268  0.84522313  -0.00714586  1
  In  In45  1  0.00788112  0.82023759  0.79551946  1
  In  In46  1  0.33641528  0.65917134  -0.03335901  1
  In  In47  1  0.35357810  0.16693697  0.17842456  1
  In  In48  1  0.67686470  0.01111775  0.32298151  1
  In  In49  1  0.18046573  0.32921494  0.51433291  1
  In  In50  1  0.17449021  0.65657608  0.51225605  1
  In  In51  1  0.50241188  0.82356916  -0.04023290  1
  In  In52  1  0.50347662  0.65163770  0.16331490  1
  In  In53  1  0.16067700  -0.00216987  0.84026362  1
  In  In54  1  0.82100229  0.33305559  0.17837840  1
  In  In55  1  0.01625756  0.33158522  -0.01626150  1
  In  In56  1  0.34724084  0.49956670  0.15928021  1
  In  In57  1  0.49681223  0.33515134  0.51543051  1
  In  In58  1  0.34526513  0.32170591  0.32379983  1
  In  In59  1  0.36013135  0.65237808  0.65895193  1
  In  In60  1  -0.01175064  0.67408485  0.31954107  1
  In  In61  1  0.17107340  0.49516815  -0.02188661  1
  In  In62  1  0.68206139  -0.00839956  0.66154408  1
  In  In63  1  0.65293642  0.33071787  0.66995180  1
  In  In64  1  0.52135436  0.00615645  0.18565878  1
  In  In65  1  0.82076590  0.15296961  -0.00195425  1
  In  In66  1  0.49028283  0.48835650  -0.00597908  1
  In  In67  1  0.35454474  0.36008421  -0.00192244  1
  In  In68  1  0.00005406  0.51457938  0.83283164  1
  In  In69  1  -0.02023128  0.35683846  0.67017251  1
  In  In70  1  0.67120129  0.15802977  0.49643909  1
  In  In71  1  0.48503229  0.01267797  0.50650957  1
  Te  Te72  1  0.08912833  0.07321425  0.08653884  1
  Te  Te73  1  0.08818473  0.07535002  0.43271168  1
  Te  Te74  1  0.07205442  0.09058902  0.75852312  1
  Te  Te75  1  0.06523897  0.44339949  0.07632649  1
  Te  Te76  1  0.09230201  0.40711139  0.41340768  1
  Te  Te77  1  0.09074069  0.42401744  0.74948240  1
  Te  Te78  1  0.07625384  0.74942034  0.07669043  1
  Te  Te79  1  0.08594831  0.74284223  0.41779083  1
  Te  Te80  1  0.09433679  0.72270151  0.72813796  1
  Te  Te81  1  0.44437903  0.08911332  0.08066688  1
  Te  Te82  1  0.43820667  0.10072885  0.39733174  1
  Te  Te83  1  0.42660051  0.08955397  0.74472038  1
  Te  Te84  1  0.45321853  0.39066562  0.12434575  1
  Te  Te85  1  0.40661971  0.41877311  0.42264226  1
  Te  Te86  1  0.41011081  0.44347419  0.77243762  1
  Te  Te87  1  0.42028087  0.74549949  0.07422104  1
  Te  Te88  1  0.42473295  0.72144537  0.43977388  1
  Te  Te89  1  0.43557757  0.75060288  0.74409361  1
  Te  Te90  1  0.74320098  0.07753966  0.09900267  1
  Te  Te91  1  0.76815689  0.07413991  0.42307608  1
  Te  Te92  1  0.74506759  0.07546910  0.76797134  1
  Te  Te93  1  0.73034735  0.39329445  0.07716277  1
  Te  Te94  1  0.73299838  0.43048915  0.43935322  1
  Te  Te95  1  0.75584189  0.42101370  0.75214323  1
  Te  Te96  1  0.75668085  0.74459020  0.08329615  1
  Te  Te97  1  0.74603290  0.76359077  0.41637639  1
  Te  Te98  1  0.69317737  0.77084031  0.73865991  1
  Te  Te99  1  0.08706878  0.25167497  0.24741625  1
  Te  Te100  1  0.07249538  0.25231170  0.59179063  1
  Te  Te101  1  0.09388095  0.25517788  0.88554820  1
  Te  Te102  1  0.07954863  0.57864346  0.24130536  1
  Te  Te103  1  0.05619512  0.62003196  0.61496582  1
  Te  Te104  1  0.10245213  0.60649764  0.89893737  1
  Te  Te105  1  0.07675064  0.91927687  0.24184407  1
  Te  Te106  1  0.09294468  0.92214327  0.58786918  1
  Te  Te107  1  0.07053157  0.90062614  0.91465892  1
  Te  Te108  1  0.45280288  0.24732316  0.25431582  1
  Te  Te109  1  0.41486405  0.23755696  0.59033308  1
  Te  Te110  1  0.43684588  0.24689925  0.92951032  1
  Te  Te111  1  0.41687244  0.58145161  0.26499073  1
  Te  Te112  1  0.45736101  0.55623674  0.59539129  1
  Te  Te113  1  0.43246056  0.57778979  0.88944931  1
  Te  Te114  1  0.41724551  0.90989756  0.24861545  1
  Te  Te115  1  0.44061115  0.90167058  0.60123446  1
  Te  Te116  1  0.40464088  0.92896698  0.90675071  1
  Te  Te117  1  0.73450618  0.23227629  0.24579719  1
  Te  Te118  1  0.75191173  0.26161489  0.57784870  1
  Te  Te119  1  0.71609550  0.24113168  0.93786627  1
  Te  Te120  1  0.74213388  0.57632326  0.23817299  1
  Te  Te121  1  0.73025011  0.59304609  0.58380820  1
  Te  Te122  1  0.75767532  0.58254376  0.91230763  1
  Te  Te123  1  0.77198734  0.91866650  0.25418792  1
  Te  Te124  1  0.77156209  0.90475160  0.57947535  1
  Te  Te125  1  0.75335504  0.91904023  0.88917359  1
  Te  Te126  1  0.26276593  0.24930934  0.07657840  1
  Te  Te127  1  0.26387119  0.23779430  0.42368601  1
  Te  Te128  1  0.24594532  0.26054574  0.73701297  1
  Te  Te129  1  0.24839369  0.58787173  0.08427560  1
  Te  Te130  1  0.27746470  0.57992840  0.43768426  1
  Te  Te131  1  0.26125481  0.60098704  0.75841187  1
  Te  Te132  1  0.22626082  0.90353072  0.07469503  1
  Te  Te133  1  0.24962425  0.92003586  0.43392805  1
  Te  Te134  1  0.23006129  0.90912082  0.73797735  1
  Te  Te135  1  0.52487340  0.28006327  0.05200203  1
  Te  Te136  1  0.57634369  0.24845100  0.41890162  1
  Te  Te137  1  0.58749128  0.23201462  0.75688274  1
  Te  Te138  1  0.59455069  0.56458352  0.08037279  1
  Te  Te139  1  0.57241574  0.59071509  0.43586141  1
  Te  Te140  1  0.57573921  0.58908518  0.69809990  1
  Te  Te141  1  0.56941383  0.90473908  0.07163184  1
  Te  Te142  1  0.58668094  0.92747962  0.42265984  1
  Te  Te143  1  0.59482662  0.89622743  0.74454455  1
  Te  Te144  1  0.92203549  0.25764061  0.07849481  1
  Te  Te145  1  0.87766911  0.23335749  0.40880298  1
  Te  Te146  1  0.91204369  0.24755421  0.75124614  1
  Te  Te147  1  0.90248021  0.59416596  0.10644612  1
  Te  Te148  1  0.92184722  0.58267694  0.42585683  1
  Te  Te149  1  0.90377835  0.59541251  0.74643417  1
  Te  Te150  1  0.90060056  0.93888561  0.09002492  1
  Te  Te151  1  0.90929635  0.89473081  0.41257909  1
  Te  Te152  1  0.89823856  0.91277711  0.76153138  1
  Te  Te153  1  0.24990644  0.06822547  0.23603807  1
  Te  Te154  1  0.27162915  0.08152935  0.56785654  1
  Te  Te155  1  0.26389392  0.08402759  0.91845319  1
  Te  Te156  1  0.24292525  0.41571172  0.24519135  1
  Te  Te157  1  0.26528760  0.43680556  0.57877618  1
  Te  Te158  1  0.26119635  0.41286756  0.89626473  1
  Te  Te159  1  0.27124043  0.73772404  0.28121008  1
  Te  Te160  1  0.24796446  0.75342092  0.60188425  1
  Te  Te161  1  0.24480268  0.76777196  0.92972717  1
  Te  Te162  1  0.60909980  0.11545957  0.23764589  1
  Te  Te163  1  0.58061420  0.08933700  0.59720394  1
  Te  Te164  1  0.58615327  0.09342702  0.92240005  1
  Te  Te165  1  0.60772511  0.42466767  0.24083531  1
  Te  Te166  1  0.56827518  0.43750020  0.60249604  1
  Te  Te167  1  0.60174088  0.41866603  0.91374627  1
  Te  Te168  1  0.58246454  0.75426733  0.24860369  1
  Te  Te169  1  0.58838253  0.72114600  0.61206241  1
  Te  Te170  1  0.58977070  0.73687630  0.87549067  1
  Te  Te171  1  0.90080184  0.09878150  0.27477437  1
  Te  Te172  1  0.90576373  0.07221567  0.57638822  1
  Te  Te173  1  0.91153593  0.09454607  0.89723461  1
  Te  Te174  1  0.92392141  0.42561238  0.24578024  1
  Te  Te175  1  0.90518726  0.40881117  0.54864099  1
  Te  Te176  1  0.90924917  0.41736466  0.91146128  1
  Te  Te177  1  0.88567039  0.75903612  0.25669268  1
  Te  Te178  1  0.89568315  0.76993712  0.61508246  1
  Te  Te179  1  0.91231347  0.74298658  0.91017215  1
