# generated using pymatgen
data_In2Te3
_symmetry_space_group_name_H-M   'P 1'
_cell_length_a   18.93387157
_cell_length_b   18.93272099
_cell_length_c   18.94021796
_cell_angle_alpha   89.96364445
_cell_angle_beta   89.99212047
_cell_angle_gamma   89.96104652
_symmetry_Int_Tables_number   1
_chemical_formula_structural   In2Te3
_chemical_formula_sum   'In72 Te108'
_cell_volume   6789.49139427
_cell_formula_units_Z   36
loop_
 _symmetry_equiv_pos_site_id
 _symmetry_equiv_pos_as_xyz
  1  'x, y, z'
loop_
 _atom_site_type_symbol
 _atom_site_label
 _atom_site_symmetry_multiplicity
 _atom_site_fract_x
 _atom_site_fract_y
 _atom_site_fract_z
 _atom_site_occupancy
  In  In0  1  0.16832082  0.31949957  0.17226360  1
  In  In1  1  0.00234450  0.85541842  0.51176043  1
  In  In2  1  -0.01005565  0.68201335  0.33753584  1
  In  In3  1  0.67594206  0.81720650  0.83645997  1
  In  In4  1  0.83775565  0.17748405  0.32854577  1
  In  In5  1  0.33772264  0.16765833  0.51621194  1
  In  In6  1  0.13566086  0.69041485  0.15879839  1
  In  In7  1  0.65479545  0.84689316  0.48564395  1
  In  In8  1  0.05945023  -0.02607858  0.70714889  1
  In  In9  1  0.49462350  0.70759000  0.23914337  1
  In  In10  1  0.06815680  0.73543365  -0.08987641  1
  In  In11  1  -0.03137333  0.84811232  0.16375831  1
  In  In12  1  0.19315949  0.84583397  0.34619810  1
  In  In13  1  0.31077926  0.68435891  0.68791676  1
  In  In14  1  0.70309368  0.32749815  0.64560806  1
  In  In15  1  0.84264151  0.67635398  0.52603915  1
  In  In16  1  0.33614211  0.49251044  0.15106881  1
  In  In17  1  0.18204387  0.48937344  0.00047083  1
  In  In18  1  0.67404476  -0.01062003  0.66422990  1
  In  In19  1  0.31861083  0.48843866  0.84134780  1
  In  In20  1  0.84638999  0.02382131  0.86336794  1
  In  In21  1  0.00221117  0.49649489  0.83194466  1
  In  In22  1  0.30009059  -0.01782271  -0.02302019  1
  In  In23  1  0.84490178  0.50341967  -0.01986440  1
  In  In24  1  0.18399212  0.53688024  0.36258883  1
  In  In25  1  0.50496544  0.15467507  0.69260262  1
  In  In26  1  0.00367941  0.50712765  0.13441896  1
  In  In27  1  0.51033725  0.84827480  0.02279704  1
  In  In28  1  0.83622421  0.66494594  0.79705879  1
  In  In29  1  0.17716386  0.17596263  0.31900542  1
  In  In30  1  0.82256960  0.81300592  -0.00243552  1
  In  In31  1  0.67416788  0.50511258  0.50340943  1
  In  In32  1  0.33837967  0.34972835  0.34883597  1
  In  In33  1  0.80602166  0.63983379  0.15074656  1
  In  In34  1  0.52399698  0.20002526  0.36175082  1
  In  In35  1  0.34837101  0.14339601  0.17774256  1
  In  In36  1  0.47912144  0.64499203  0.82782880  1
  In  In37  1  -0.01186471  0.34225543  0.67077204  1
  In  In38  1  0.19848717  0.66686505  0.50772809  1
  In  In39  1  0.33070895  0.33307875  0.65693659  1
  In  In40  1  0.00485313  0.15616342  0.14336755  1
  In  In41  1  -0.02494905  0.36157167  0.34594645  1
  In  In42  1  0.84946827  0.85640147  0.67311373  1
  In  In43  1  -0.00515089  0.03244697  0.29217436  1
  In  In44  1  0.86497129  0.03584972  0.49092879  1
  In  In45  1  0.66468405  0.31412234  0.00060037  1
  In  In46  1  0.64079201  0.00119949  0.32716033  1
  In  In47  1  0.49912543  0.82861875  0.63556341  1
  In  In48  1  0.80376923  0.49619030  0.33764500  1
  In  In49  1  0.34360240  0.84074142  0.18788230  1
  In  In50  1  0.17312570  0.48047579  0.65121972  1
  In  In51  1  0.01501030  0.16999237  0.50903928  1
  In  In52  1  0.83737696  0.29635917  0.82618448  1
  In  In53  1  0.49007294  0.31700649  0.85077868  1
  In  In54  1  0.80180071  0.85628240  0.34778178  1
  In  In55  1  0.46173405  0.50470618  -0.00678737  1
  In  In56  1  0.46440560  -0.01200254  0.83216811  1
  In  In57  1  0.20339540  -0.01081257  0.47827474  1
  In  In58  1  0.67118529  0.01939822  0.04125915  1
  In  In59  1  0.00658235  0.49655113  0.51742138  1
  In  In60  1  0.50813554  -0.00206518  0.49497764  1
  In  In61  1  0.64609601  0.48818634  0.80309882  1
  In  In62  1  0.15779678  0.18919226  0.68426056  1
  In  In63  1  0.64442639  0.47822564  0.17435031  1
  In  In64  1  0.14595771  0.15061461  -0.00857446  1
  In  In65  1  0.50820804  0.48628055  0.35590299  1
  In  In66  1  0.66816537  0.14275998  0.83471855  1
  In  In67  1  0.82915581  0.30622568  0.15890725  1
  In  In68  1  0.66561724  0.65189547  0.00994720  1
  In  In69  1  0.48838864  0.51998531  0.64790068  1
  In  In70  1  0.17389789  0.00158073  0.15397760  1
  In  In71  1  0.48979905  0.15911967  0.01654647  1
  Te  Te72  1  0.06175774  0.04060463  0.06162863  1
  Te  Te73  1  0.09083092  0.07663151  0.40793403  1
  Te  Te74  1  0.07451325  0.10599534  0.78113746  1
  Te  Te75  1  0.08367684  0.39478657  0.07108419  1
  Te  Te76  1  0.09463892  0.42396377  0.41760268  1
  Te  Te77  1  0.09711503  0.40337144  0.75831840  1
  Te  Te78  1  0.05941114  0.77597590  0.06423173  1
  Te  Te79  1  0.08955733  0.75386343  0.42496213  1
  Te  Te80  1  0.10662711  0.77875140  0.76683520  1
  Te  Te81  1  0.40315619  0.04837999  0.07524046  1
  Te  Te82  1  0.42385183  0.09529089  0.41538191  1
  Te  Te83  1  0.39197208  0.06918697  0.73362903  1
  Te  Te84  1  0.40292682  0.39182171  0.06718823  1
  Te  Te85  1  0.42027621  0.41326630  0.45268588  1
  Te  Te86  1  0.43034717  0.42493759  0.75930602  1
  Te  Te87  1  0.42964505  0.74808603  0.10287597  1
  Te  Te88  1  0.40261049  0.70146128  0.35531021  1
  Te  Te89  1  0.42339282  0.76462227  0.75320871  1
  Te  Te90  1  0.77140584  0.10982280  0.09250578  1
  Te  Te91  1  0.74999454  0.07929959  0.40565835  1
  Te  Te92  1  0.76875593  0.07985625  0.74006848  1
  Te  Te93  1  0.75410498  0.42650745  0.07455282  1
  Te  Te94  1  0.72596470  0.39478249  0.41288053  1
  Te  Te95  1  0.76645173  0.41497181  0.75391170  1
  Te  Te96  1  0.72329189  0.75891582  0.09894121  1
  Te  Te97  1  0.74963697  0.73794071  0.42251321  1
  Te  Te98  1  0.74265241  0.75693678  0.71540157  1
  Te  Te99  1  0.05606225  0.25431493  0.26246901  1
  Te  Te100  1  0.09623750  0.27611065  0.57649373  1
  Te  Te101  1  0.06280797  0.23112768  0.89793649  1
  Te  Te102  1  0.07176020  0.58139205  0.25520285  1
  Te  Te103  1  0.09277732  0.59625423  0.59166455  1
  Te  Te104  1  0.08921719  0.57946503  0.92278464  1
  Te  Te105  1  0.08575818  0.90945114  0.24905367  1
  Te  Te106  1  0.12380144  0.90837019  0.58287503  1
  Te  Te107  1  0.11282974  0.89806304  0.88515038  1
  Te  Te108  1  0.41305161  0.25263702  0.26018995  1
  Te  Te109  1  0.44022161  0.24994956  0.59171025  1
  Te  Te110  1  0.40705820  0.21221454  0.90734210  1
  Te  Te111  1  0.42120565  0.56712750  0.25012572  1
  Te  Te112  1  0.40002917  0.61817502  0.58532796  1
  Te  Te113  1  0.37290754  0.60802579  0.92749855  1
  Te  Te114  1  0.41515961  0.91580585  0.29174045  1
  Te  Te115  1  0.41714684  0.94485761  0.59832845  1
  Te  Te116  1  0.40322170  0.88200970  0.92067511  1
  Te  Te117  1  0.74014094  0.27156480  0.26826424  1
  Te  Te118  1  0.72517549  0.21309221  0.55715013  1
  Te  Te119  1  0.75910720  0.21744967  0.93188974  1
  Te  Te120  1  0.71197896  0.58677568  0.25786600  1
  Te  Te121  1  0.76770527  0.57302154  0.59647231  1
  Te  Te122  1  0.74342661  0.58490750  0.89796179  1
  Te  Te123  1  0.73743668  0.92992547  0.24015190  1
  Te  Te124  1  0.77200211  0.92515191  0.55868872  1
  Te  Te125  1  0.73748030  0.92623939  0.92134674  1
  Te  Te126  1  0.24337776  0.21623859  0.09339205  1
  Te  Te127  1  0.24724426  0.25434430  0.42604867  1
  Te  Te128  1  0.25929301  0.26193361  0.76141508  1
  Te  Te129  1  0.23782670  0.59443086  0.09414551  1
  Te  Te130  1  0.30659513  0.59934698  0.42512583  1
  Te  Te131  1  0.22935030  0.57558481  0.75661721  1
  Te  Te132  1  0.24217300  0.88742234  0.08290243  1
  Te  Te133  1  0.31044516  0.90145643  0.41926102  1
  Te  Te134  1  0.21887872  0.89222417  0.78442132  1
  Te  Te135  1  0.58592727  0.23666747  0.09573651  1
  Te  Te136  1  0.63018056  0.26332747  0.44608513  1
  Te  Te137  1  0.60333930  0.25944972  0.76192376  1
  Te  Te138  1  0.56264537  0.57330026  0.08618281  1
  Te  Te139  1  0.57909632  0.59184887  0.43073205  1
  Te  Te140  1  0.58881599  0.60594831  0.73021886  1
  Te  Te141  1  0.57944384  0.93478004  0.11814980  1
  Te  Te142  1  0.53743205  0.87703427  0.38295674  1
  Te  Te143  1  0.58288607  0.91137483  0.75622581  1
  Te  Te144  1  0.93528292  0.26247393  0.06956475  1
  Te  Te145  1  0.91154186  0.25698034  0.43645187  1
  Te  Te146  1  0.90348693  0.22984516  0.71419170  1
  Te  Te147  1  0.92190301  0.60901455  0.05685040  1
  Te  Te148  1  0.91204453  0.57822332  0.41632127  1
  Te  Te149  1  0.93394885  0.57880312  0.73155481  1
  Te  Te150  1  0.89977715  0.92305113  0.05748899  1
  Te  Te151  1  0.93067476  0.92248700  0.39367936  1
  Te  Te152  1  0.92977003  0.92713915  0.77825858  1
  Te  Te153  1  0.25826944  0.05921153  0.26635304  1
  Te  Te154  1  0.23154164  0.08926174  0.58988949  1
  Te  Te155  1  0.23120523  0.08014099  0.89286010  1
  Te  Te156  1  0.23520790  0.42661677  0.25574481  1
  Te  Te157  1  0.28044932  0.43271023  0.56073837  1
  Te  Te158  1  0.26635681  0.38808898  0.93582360  1
  Te  Te159  1  0.24421890  0.73702530  0.25334424  1
  Te  Te160  1  0.25957392  0.77674365  0.58296013  1
  Te  Te161  1  0.21700118  0.76784760  0.88395501  1
  Te  Te162  1  0.56834770  0.10642573  0.25592427  1
  Te  Te163  1  0.59313302  0.08858764  0.58361987  1
  Te  Te164  1  0.57026701  0.06242619  0.91748415  1
  Te  Te165  1  0.56065745  0.39103375  0.25528990  1
  Te  Te166  1  0.58933295  0.41593988  0.59651970  1
  Te  Te167  1  0.58322817  0.42599124  0.92638977  1
  Te  Te168  1  0.61205227  0.78414480  0.28592010  1
  Te  Te169  1  0.57760153  0.73889908  0.54989536  1
  Te  Te170  1  0.57549945  0.73776445  0.91921338  1
  Te  Te171  1  0.87646257  0.08302786  0.20605878  1
  Te  Te172  1  0.96694112  0.05756064  0.59773642  1
  Te  Te173  1  0.95568749  0.12038359  0.89667684  1
  Te  Te174  1  0.90566836  0.43956502  0.23207423  1
  Te  Te175  1  0.90145478  0.41237977  0.57325349  1
  Te  Te176  1  0.92211021  0.39502702  0.91164874  1
  Te  Te177  1  0.89191785  0.73800743  0.23792649  1
  Te  Te178  1  0.94408251  0.75545741  0.60857707  1
  Te  Te179  1  0.91213635  0.75409454  0.89130768  1
