# generated using pymatgen
data_In2Te3
_symmetry_space_group_name_H-M   'P 1'
_cell_length_a   18.76860674
_cell_length_b   18.76801786
_cell_length_c   18.77816269
_cell_angle_alpha   89.97598371
_cell_angle_beta   89.95208768
_cell_angle_gamma   89.98617488
_symmetry_Int_Tables_number   1
_chemical_formula_structural   In2Te3
_chemical_formula_sum   'In72 Te108'
_cell_volume   6614.59620737
_cell_formula_units_Z   36
loop_
 _symmetry_equiv_pos_site_id
 _symmetry_equiv_pos_as_xyz
  1  'x, y, z'
loop_
 _atom_site_type_symbol
 _atom_site_label
 _atom_site_symmetry_multiplicity
 _atom_site_fract_x
 _atom_site_fract_y
 _atom_site_fract_z
 _atom_site_occupancy
  In  In0  1  0.65440312  0.64385331  0.66796591  1
  In  In1  1  0.34306192  0.83572620  0.15586458  1
  In  In2  1  0.16017102  0.66928416  0.49072719  1
  In  In3  1  0.50764269  0.82565201  0.67414465  1
  In  In4  1  0.79071692  0.65873767  0.84623099  1
  In  In5  1  0.49839592  0.16727292  -0.00412169  1
  In  In6  1  -0.00872081  0.32744581  0.33736206  1
  In  In7  1  0.66271087  0.17366316  0.17274673  1
  In  In8  1  0.16654903  0.15652933  0.66007191  1
  In  In9  1  -0.01394177  0.19482760  0.15678432  1
  In  In10  1  0.14889605  0.17636129  0.32597356  1
  In  In11  1  0.83574889  0.82624493  0.00303864  1
  In  In12  1  0.32235961  0.16532998  0.51199764  1
  In  In13  1  0.66036333  0.00471371  0.67711910  1
  In  In14  1  0.17582798  0.32796108  0.86364283  1
  In  In15  1  -0.00088507  0.33122181  0.67225649  1
  In  In16  1  0.16070176  0.49830986  0.31907903  1
  In  In17  1  0.51386852  -0.00674056  0.17428719  1
  In  In18  1  0.86279561  0.83268382  0.66446342  1
  In  In19  1  -0.01009201  0.50141418  0.85470201  1
  In  In20  1  0.64841951  0.02014246  -0.00892227  1
  In  In21  1  0.17544618  0.83664414  0.33861435  1
  In  In22  1  0.82596915  0.33466229  0.85006088  1
  In  In23  1  0.67992670  0.34266116  0.02179002  1
  In  In24  1  0.63717913  0.34131734  0.32602850  1
  In  In25  1  0.18633005  0.00226030  0.82288094  1
  In  In26  1  0.65927036  0.65487235  0.00553999  1
  In  In27  1  0.35597034  0.48811480  0.49541582  1
  In  In28  1  0.65279094  0.50779664  0.83923183  1
  In  In29  1  0.82132172  0.65691718  0.18115339  1
  In  In30  1  0.16911776  0.64742832  0.15736812  1
  In  In31  1  0.18336456  0.65254904  0.85046702  1
  In  In32  1  0.49906787  0.49853908  0.01246402  1
  In  In33  1  0.35178711  0.66203663  0.66397457  1
  In  In34  1  0.01735999  0.67082157  0.00570093  1
  In  In35  1  0.01989558  0.48627958  0.15022726  1
  In  In36  1  0.19064738  -0.02219816  0.14814847  1
  In  In37  1  0.48853891  0.82832237  -0.01391239  1
  In  In38  1  0.78888421  0.19374727  0.64797280  1
  In  In39  1  0.00402362  0.00712580  -0.00451518  1
  In  In40  1  0.34626231  0.34445954  0.32094187  1
  In  In41  1  0.33504654  0.15852182  0.82134934  1
  In  In42  1  0.50208223  -0.00301483  0.50062844  1
  In  In43  1  0.50092838  0.18701292  0.66911185  1
  In  In44  1  0.63950865  0.48500663  0.50518000  1
  In  In45  1  0.36444498  0.35267994  0.67296455  1
  In  In46  1  0.82577354  0.50989078  0.33481366  1
  In  In47  1  0.18838999  0.50542850  0.66175356  1
  In  In48  1  0.81006808  0.18303971  0.32381190  1
  In  In49  1  -0.00068806  0.00452223  0.34681471  1
  In  In50  1  0.66143459  0.83851212  0.85212295  1
  In  In51  1  0.35027873  0.81238509  0.48135145  1
  In  In52  1  0.34474439  0.00059931  0.33396360  1
  In  In53  1  -0.00043547  0.16520710  0.49008783  1
  In  In54  1  0.63908175  0.66101890  0.32451007  1
  In  In55  1  0.81636381  0.50202772  0.66337120  1
  In  In56  1  0.34841072  0.34225940  0.00009991  1
  In  In57  1  0.35250630  0.18542081  0.15886894  1
  In  In58  1  0.66910521  0.81862832  0.48700508  1
  In  In59  1  0.79422240  -0.03222647  0.20349090  1
  In  In60  1  0.19304693  0.86272898  0.69359283  1
  In  In61  1  -0.01649876  0.84582572  0.49763612  1
  In  In62  1  -0.01949520  0.48417798  0.48309985  1
  In  In63  1  0.01236277  -0.00006230  0.68517217  1
  In  In64  1  0.15711610  0.18632736  -0.01410586  1
  In  In65  1  -0.00770575  0.79857903  0.16049731  1
  In  In66  1  0.83923933  0.17540578  -0.00147115  1
  In  In67  1  0.33375036  0.65125140  0.01318266  1
  In  In68  1  0.00368943  0.85226600  0.82152477  1
  In  In69  1  0.81444404  0.02626706  0.49038040  1
  In  In70  1  0.37349247  0.64282530  0.30907868  1
  In  In71  1  -0.01123370  0.68733586  0.65631001  1
  Te  Te72  1  0.08899667  0.08958889  0.09732894  1
  Te  Te73  1  0.10648206  0.07271987  0.43218345  1
  Te  Te74  1  0.07967215  0.10353673  0.77354958  1
  Te  Te75  1  0.10498299  0.37770704  0.09972355  1
  Te  Te76  1  0.09524545  0.40485652  0.42110142  1
  Te  Te77  1  0.08639692  0.42894038  0.75233982  1
  Te  Te78  1  0.11458695  0.76592208  0.07629847  1
  Te  Te79  1  0.06589886  0.75302545  0.40509057  1
  Te  Te80  1  0.09476674  0.74311812  0.75301114  1
  Te  Te81  1  0.41678212  0.07038454  0.08234415  1
  Te  Te82  1  0.42496652  0.10005628  0.41592891  1
  Te  Te83  1  0.40888819  0.07976065  0.72017505  1
  Te  Te84  1  0.43280354  0.40190243  0.10994462  1
  Te  Te85  1  0.45064421  0.41779102  0.40290828  1
  Te  Te86  1  0.46672618  0.42384517  0.75309146  1
  Te  Te87  1  0.43709981  0.73339984  0.09575675  1
  Te  Te88  1  0.44680820  0.73340390  0.40241939  1
  Te  Te89  1  0.41786214  0.74882678  0.76382730  1
  Te  Te90  1  0.75620061  0.07861089  0.09420390  1
  Te  Te91  1  0.71577685  0.09016811  0.39720531  1
  Te  Te92  1  0.73610981  0.10644333  0.75393574  1
  Te  Te93  1  0.73958164  0.46370451  0.08166378  1
  Te  Te94  1  0.74278742  0.41279008  0.41646847  1
  Te  Te95  1  0.73529546  0.40976238  0.75195721  1
  Te  Te96  1  0.73784008  0.75408222  0.09367508  1
  Te  Te97  1  0.74952809  0.73184347  0.39692023  1
  Te  Te98  1  0.74277973  0.75823724  0.73828185  1
  Te  Te99  1  0.09807783  0.28480033  0.22708207  1
  Te  Te100  1  0.08951065  0.25661813  0.57340139  1
  Te  Te101  1  0.05239294  0.26568744  0.91631900  1
  Te  Te102  1  0.06312880  0.59510956  0.25300605  1
  Te  Te103  1  0.07612572  0.57597511  0.58199608  1
  Te  Te104  1  0.10202205  0.55951719  0.94192137  1
  Te  Te105  1  0.08156828  0.91968345  0.24750685  1
  Te  Te106  1  0.08761931  0.91120738  0.58792946  1
  Te  Te107  1  0.09930040  0.91442876  0.91978251  1
  Te  Te108  1  0.43580944  0.23609536  0.26817149  1
  Te  Te109  1  0.42510170  0.26772562  0.56048653  1
  Te  Te110  1  0.42320828  0.25736869  0.89653058  1
  Te  Te111  1  0.46733747  0.55793575  0.22787689  1
  Te  Te112  1  0.43952187  0.57576132  0.58084230  1
  Te  Te113  1  0.42122193  0.57941732  0.91641557  1
  Te  Te114  1  0.43153931  0.89748010  0.26381037  1
  Te  Te115  1  0.41270046  0.90699874  0.58476666  1
  Te  Te116  1  0.39788297  0.91909829  0.91364000  1
  Te  Te117  1  0.74931372  0.28577574  0.23032199  1
  Te  Te118  1  0.69925463  0.27272327  0.55865443  1
  Te  Te119  1  0.72597854  0.23879039  0.91735107  1
  Te  Te120  1  0.72083241  0.55160529  0.23177914  1
  Te  Te121  1  0.74572197  0.58643370  0.56016154  1
  Te  Te122  1  0.76370103  0.54530724  0.94925135  1
  Te  Te123  1  0.69063888  0.88449233  0.27933692  1
  Te  Te124  1  0.75082800  0.91605758  0.58645494  1
  Te  Te125  1  0.75892343  0.93067827  0.92267962  1
  Te  Te126  1  0.24469753  0.26578304  0.08675705  1
  Te  Te127  1  0.25116195  0.25424366  0.40699463  1
  Te  Te128  1  0.24940402  0.26359446  0.73886103  1
  Te  Te129  1  0.26600318  0.54968800  0.10328323  1
  Te  Te130  1  0.26096760  0.58675175  0.41099631  1
  Te  Te131  1  0.27914588  0.56813561  0.76419077  1
  Te  Te132  1  0.27986442  0.91509552  0.04594314  1
  Te  Te133  1  0.25521072  0.92446436  0.43268778  1
  Te  Te134  1  0.30236410  0.90805521  0.78687368  1
  Te  Te135  1  0.56812813  0.26141705  0.09256330  1
  Te  Te136  1  0.62488614  0.23294560  0.42637010  1
  Te  Te137  1  0.57035725  0.30043103  0.73757685  1
  Te  Te138  1  0.57183820  0.59058222  0.11023871  1
  Te  Te139  1  0.55775285  0.57041524  0.41326341  1
  Te  Te140  1  0.55145054  0.56197633  0.73974876  1
  Te  Te141  1  0.58983683  0.90640550  0.07353810  1
  Te  Te142  1  0.58701562  0.91610003  0.40645643  1
  Te  Te143  1  0.56746159  0.92804926  0.77188874  1
  Te  Te144  1  0.89623144  0.28536266  0.08208362  1
  Te  Te145  1  0.89224303  0.25533508  0.43071215  1
  Te  Te146  1  0.90015492  0.24492778  0.74750191  1
  Te  Te147  1  0.91956012  0.58617945  0.08430029  1
  Te  Te148  1  0.92325550  0.59516743  0.40711777  1
  Te  Te149  1  0.90931043  0.58821304  0.75247233  1
  Te  Te150  1  0.91804464  0.92052731  0.09311221  1
  Te  Te151  1  0.88620427  0.91973478  0.40488739  1
  Te  Te152  1  0.89406233  0.94220328  0.76572740  1
  Te  Te153  1  0.25017700  0.08444936  0.24431185  1
  Te  Te154  1  0.26565791  0.06211834  0.60460949  1
  Te  Te155  1  0.25824962  0.08702169  0.93166034  1
  Te  Te156  1  0.26883804  0.44095233  0.23348331  1
  Te  Te157  1  0.25475447  0.40362411  0.57222784  1
  Te  Te158  1  0.26827048  0.43129026  0.91236537  1
  Te  Te159  1  0.25864186  0.73996043  0.25426984  1
  Te  Te160  1  0.24334034  0.75194085  0.58861368  1
  Te  Te161  1  0.26073316  0.75042229  0.92753272  1
  Te  Te162  1  0.58395793  0.08769550  0.26465291  1
  Te  Te163  1  0.58840280  0.09561258  0.57850474  1
  Te  Te164  1  0.56867856  0.09100590  0.88965944  1
  Te  Te165  1  0.54041213  0.41862873  0.24069911  1
  Te  Te166  1  0.59307502  0.38287750  0.60481910  1
  Te  Te167  1  0.57939215  0.40274275  0.92294582  1
  Te  Te168  1  0.60522923  0.77050644  0.22984212  1
  Te  Te169  1  0.57428756  0.73396565  0.57243305  1
  Te  Te170  1  0.57413981  0.72493786  0.90048982  1
  Te  Te171  1  0.91750448  0.09402448  0.25239953  1
  Te  Te172  1  0.91738204  0.08283548  0.59061096  1
  Te  Te173  1  0.91947241  0.08969920  0.90863211  1
  Te  Te174  1  0.91628106  0.42169040  0.24589692  1
  Te  Te175  1  0.89725258  0.40173673  0.58096386  1
  Te  Te176  1  0.92500399  0.40028768  0.94264470  1
  Te  Te177  1  0.89303315  0.76089343  0.26155041  1
  Te  Te178  1  0.89034280  0.73413225  0.55114002  1
  Te  Te179  1  0.92048308  0.74445605  0.90358464  1
