# generated using pymatgen
data_In2Te3
_symmetry_space_group_name_H-M   'P 1'
_cell_length_a   19.00450821
_cell_length_b   19.01990217
_cell_length_c   19.05275940
_cell_angle_alpha   89.93684475
_cell_angle_beta   89.82352588
_cell_angle_gamma   89.59820794
_symmetry_Int_Tables_number   1
_chemical_formula_structural   In2Te3
_chemical_formula_sum   'In72 Te108'
_cell_volume   6886.67844702
_cell_formula_units_Z   36
loop_
 _symmetry_equiv_pos_site_id
 _symmetry_equiv_pos_as_xyz
  1  'x, y, z'
loop_
 _atom_site_type_symbol
 _atom_site_label
 _atom_site_symmetry_multiplicity
 _atom_site_fract_x
 _atom_site_fract_y
 _atom_site_fract_z
 _atom_site_occupancy
  In  In0  1  0.80678673  0.34408957  0.85396537  1
  In  In1  1  0.16771211  0.69102354  0.84912413  1
  In  In2  1  0.47703725  -0.02934545  0.48314206  1
  In  In3  1  0.15142866  0.31721040  0.83934862  1
  In  In4  1  0.64289530  0.18074609  0.14423104  1
  In  In5  1  0.00940844  0.31257771  0.28892399  1
  In  In6  1  0.52426613  0.34023299  0.52850417  1
  In  In7  1  0.33509705  0.52756415  0.47474617  1
  In  In8  1  0.68458977  0.66012019  0.67983959  1
  In  In9  1  0.68152656  0.81177957  0.82978762  1
  In  In10  1  0.65611175  0.64373719  0.01788000  1
  In  In11  1  0.18044900  0.15456450  0.64855494  1
  In  In12  1  -0.00854388  0.18403370  0.47511801  1
  In  In13  1  0.31209506  0.83459338  0.14292435  1
  In  In14  1  0.15353531  0.34343914  0.49243994  1
  In  In15  1  0.32036843  0.69314311  0.68758164  1
  In  In16  1  0.82261709  0.47271436  0.31512188  1
  In  In17  1  0.85323105  0.66296519  0.17439533  1
  In  In18  1  -0.01258209  0.16479942  0.81356805  1
  In  In19  1  0.64387275  0.47322916  0.16309646  1
  In  In20  1  -0.00303169  0.83409558  0.51183324  1
  In  In21  1  0.62239397  0.48577840  0.86574198  1
  In  In22  1  0.48805946  0.85707564  0.01549716  1
  In  In23  1  0.85015587  0.02047092  0.49239439  1
  In  In24  1  0.15485052  0.53683573  0.65361604  1
  In  In25  1  0.31925151  0.35465581  0.68526907  1
  In  In26  1  0.66780141  0.68739476  0.33733384  1
  In  In27  1  0.50253668  0.00042942  0.85244873  1
  In  In28  1  0.07750177  0.27572852  0.06875759  1
  In  In29  1  0.15461764  0.51523167  0.33072310  1
  In  In30  1  0.51952998  0.16656461  0.66194831  1
  In  In31  1  0.31329987  0.17136477  0.17326036  1
  In  In32  1  0.67786138  0.86283060  0.49265683  1
  In  In33  1  0.49798637  0.81057443  0.69976539  1
  In  In34  1  0.85613678  0.86307451  0.02661875  1
  In  In35  1  0.35245663  0.47160523  0.84221397  1
  In  In36  1  -0.02982234  0.51446236  0.49357596  1
  In  In37  1  0.72467856  0.20493217  0.46876380  1
  In  In38  1  0.32800144  0.33999228  0.37589687  1
  In  In39  1  0.68448844  0.84260509  0.15185974  1
  In  In40  1  0.48041953  0.65748535  0.87320343  1
  In  In41  1  0.00520439  0.68016475  0.33523524  1
  In  In42  1  0.66338440  0.15970621  0.82862870  1
  In  In43  1  0.01689082  0.01296072  0.34233042  1
  In  In44  1  -0.02131337  0.35683073  0.66950696  1
  In  In45  1  0.83231527  0.50754564  -0.01503393  1
  In  In46  1  0.00985349  0.67529310  -0.00369252  1
  In  In47  1  0.86034165  0.68294594  0.83915772  1
  In  In48  1  0.51601341  0.69165210  0.48056990  1
  In  In49  1  0.31813802  0.02761304  0.02630045  1
  In  In50  1  0.66694956  0.00835678  -0.00788048  1
  In  In51  1  0.34317740  -0.01598210  0.69754295  1
  In  In52  1  -0.00944488  -0.00158138  0.65257787  1
  In  In53  1  -0.01586279  0.49226247  0.84664364  1
  In  In54  1  0.50666272  0.17489367  0.31042075  1
  In  In55  1  0.12931168  0.84296919  0.67530741  1
  In  In56  1  0.18986534  0.50017791  0.02895219  1
  In  In57  1  0.83034721  0.31586489  0.13426807  1
  In  In58  1  0.19101081  0.83897682  0.31148784  1
  In  In59  1  0.17525891  0.00503251  0.86646150  1
  In  In60  1  0.84868245  0.15349194  -0.01928900  1
  In  In61  1  0.02015339  0.83698994  0.14584868  1
  In  In62  1  0.70785934  0.07528640  0.63232219  1
  In  In63  1  0.65124785  0.32966478  0.32036151  1
  In  In64  1  0.42475609  0.61020304  0.15944103  1
  In  In65  1  0.85499448  0.00024223  0.18725540  1
  In  In66  1  0.37103556  0.23515776  -0.00104509  1
  In  In67  1  0.36095648  0.15469329  0.49426082  1
  In  In68  1  0.32594629  0.80750312  0.47809174  1
  In  In69  1  0.50094853  0.51660794  0.64529551  1
  In  In70  1  0.82211413  0.49842623  0.65902326  1
  In  In71  1  0.47708490  0.82080720  0.28917084  1
  Te  Te72  1  0.13945262  0.14036219  0.12138347  1
  Te  Te73  1  0.09651860  0.08902671  0.43971884  1
  Te  Te74  1  0.09560235  0.07462945  0.74598810  1
  Te  Te75  1  0.09241089  0.41869133  0.10070555  1
  Te  Te76  1  0.05043313  0.41132649  0.40693721  1
  Te  Te77  1  0.09244829  0.42551164  0.74479795  1
  Te  Te78  1  0.10818973  0.72861513  0.09267671  1
  Te  Te79  1  0.09533942  0.77280105  0.40958286  1
  Te  Te80  1  0.06759922  0.72683791  0.74986129  1
  Te  Te81  1  0.42398587  0.11599473  0.08506165  1
  Te  Te82  1  0.41862996  0.06990116  0.38500072  1
  Te  Te83  1  0.42722993  0.09316376  0.75807826  1
  Te  Te84  1  0.43037201  0.36646409  0.05065688  1
  Te  Te85  1  0.43852215  0.42523784  0.43368350  1
  Te  Te86  1  0.44828180  0.41071822  0.74117093  1
  Te  Te87  1  0.41750187  0.74215623  0.07800100  1
  Te  Te88  1  0.40574555  0.72342206  0.38039771  1
  Te  Te89  1  0.39601415  0.76096121  0.80007285  1
  Te  Te90  1  0.75947667  0.08027207  0.08641320  1
  Te  Te91  1  0.73778321  0.07234035  0.41304586  1
  Te  Te92  1  0.75890866  0.06460595  0.76945168  1
  Te  Te93  1  0.74039010  0.41525434  0.06141843  1
  Te  Te94  1  0.73252945  0.40831379  0.41098057  1
  Te  Te95  1  0.72937765  0.43831876  0.76701405  1
  Te  Te96  1  0.77116642  0.73717781  0.06647461  1
  Te  Te97  1  0.75673670  0.76094910  0.42445120  1
  Te  Te98  1  0.78558408  0.76103113  0.73146694  1
  Te  Te99  1  0.11658403  0.21322409  0.25957413  1
  Te  Te100  1  0.08160653  0.26497916  0.60253015  1
  Te  Te101  1  0.07583314  0.21935196  0.92187720  1
  Te  Te102  1  0.06575749  0.58728091  0.23998962  1
  Te  Te103  1  0.06069904  0.61306409  0.56036728  1
  Te  Te104  1  0.09455364  0.56824071  0.91532458  1
  Te  Te105  1  0.09348768  0.93079685  0.23917055  1
  Te  Te106  1  0.09544001  0.93972857  0.56021189  1
  Te  Te107  1  0.13296058  0.88965747  0.95097787  1
  Te  Te108  1  0.39459189  0.26296253  0.26214609  1
  Te  Te109  1  0.40494480  0.25936038  0.59416653  1
  Te  Te110  1  0.44058569  0.28830538  0.88088140  1
  Te  Te111  1  0.35760259  0.51610304  0.25029870  1
  Te  Te112  1  0.40921913  0.61938102  0.58154827  1
  Te  Te113  1  0.38629149  0.57172595  0.94243429  1
  Te  Te114  1  0.39124127  0.92278695  0.22949659  1
  Te  Te115  1  0.41394031  0.88528350  0.59769373  1
  Te  Te116  1  0.39240321  0.93062286  0.92748009  1
  Te  Te117  1  0.74426527  0.24562882  0.23658203  1
  Te  Te118  1  0.72529987  0.22405976  0.61312895  1
  Te  Te119  1  0.73372874  0.24275608  0.93624577  1
  Te  Te120  1  0.74167599  0.57456609  0.22594028  1
  Te  Te121  1  0.74561575  0.58631734  0.57040084  1
  Te  Te122  1  0.74389912  0.59776471  0.89986854  1
  Te  Te123  1  0.76201446  0.90943942  0.25371037  1
  Te  Te124  1  0.76633746  0.93632879  0.58851762  1
  Te  Te125  1  0.75558733  0.90809961  0.92152044  1
  Te  Te126  1  0.24102583  0.26428060  0.07609314  1
  Te  Te127  1  0.24089178  0.23250976  0.43647852  1
  Te  Te128  1  0.25081509  0.23914993  0.75374130  1
  Te  Te129  1  0.27870142  0.57126738  0.12740101  1
  Te  Te130  1  0.21781493  0.60033633  0.43069894  1
  Te  Te131  1  0.26040616  0.57355426  0.75705028  1
  Te  Te132  1  0.21506829  0.93216175  0.07647526  1
  Te  Te133  1  0.27793733  0.91924947  0.39891495  1
  Te  Te134  1  0.23654207  0.90624947  0.76706789  1
  Te  Te135  1  0.55635630  0.29633127  0.10911129  1
  Te  Te136  1  0.57569836  0.23003781  0.43807525  1
  Te  Te137  1  0.60776031  0.25939495  0.73365772  1
  Te  Te138  1  0.54975091  0.55983199  0.07973286  1
  Te  Te139  1  0.57768547  0.58943986  0.39738067  1
  Te  Te140  1  0.56521078  0.60120343  0.76189229  1
  Te  Te141  1  0.58061298  0.94041513  0.09729852  1
  Te  Te142  1  0.56801855  0.89329346  0.39255608  1
  Te  Te143  1  0.58862795  0.91303662  0.76246402  1
  Te  Te144  1  0.93354449  0.21571357  0.08822814  1
  Te  Te145  1  0.90573254  0.24382145  0.37214667  1
  Te  Te146  1  0.89220931  0.26675450  0.75361719  1
  Te  Te147  1  0.92965820  0.57500233  0.07700634  1
  Te  Te148  1  0.89303476  0.58576195  0.38648085  1
  Te  Te149  1  0.91936768  0.57913643  0.74318891  1
  Te  Te150  1  0.95542253  0.96194258  0.07893690  1
  Te  Te151  1  0.92074821  0.91558945  0.41036306  1
  Te  Te152  1  0.99346861  0.87692906  0.73632823  1
  Te  Te153  1  0.21544983  0.09038659  0.25044634  1
  Te  Te154  1  0.27970613  0.06056581  0.58291428  1
  Te  Te155  1  0.26598168  0.10959278  0.91465282  1
  Te  Te156  1  0.24051508  0.40608867  0.27316598  1
  Te  Te157  1  0.24965211  0.43451681  0.57541193  1
  Te  Te158  1  0.24270115  0.40311008  0.92173684  1
  Te  Te159  1  0.24997494  0.73248791  0.22892055  1
  Te  Te160  1  0.23280149  0.76011527  0.58751450  1
  Te  Te161  1  0.21796454  0.75930602  0.96717662  1
  Te  Te162  1  0.59571832  0.08236607  0.24145873  1
  Te  Te163  1  0.56563422  0.04949936  0.57998932  1
  Te  Te164  1  0.56735929  0.10752531  0.93540636  1
  Te  Te165  1  0.54538067  0.39819882  0.24369389  1
  Te  Te166  1  0.61205174  0.44301785  0.58307873  1
  Te  Te167  1  0.54724414  0.38099161  0.94032745  1
  Te  Te168  1  0.59128718  0.74516656  0.22030123  1
  Te  Te169  1  0.59522819  0.75867223  0.59260606  1
  Te  Te170  1  0.58604425  0.76031511  0.93685166  1
  Te  Te171  1  0.91858385  0.10135593  0.27400253  1
  Te  Te172  1  0.91878323  0.11586628  0.58883155  1
  Te  Te173  1  0.90780207  0.06166631  0.88151513  1
  Te  Te174  1  0.91650819  0.40945130  0.21480217  1
  Te  Te175  1  0.88962891  0.40245732  0.55802768  1
  Te  Te176  1  0.92429572  0.39069356  0.93783983  1
  Te  Te177  1  0.92189495  0.77546419  0.24329832  1
  Te  Te178  1  0.94221704  0.70859124  0.56012451  1
  Te  Te179  1  0.93679010  0.78373965  0.92174947  1
