# generated using pymatgen
data_In2Te3
_symmetry_space_group_name_H-M   'P 1'
_cell_length_a   18.95002654
_cell_length_b   18.95729449
_cell_length_c   18.96229943
_cell_angle_alpha   89.91598333
_cell_angle_beta   90.12486903
_cell_angle_gamma   90.17446196
_symmetry_Int_Tables_number   1
_chemical_formula_structural   In2Te3
_chemical_formula_sum   'In72 Te108'
_cell_volume   6811.98482299
_cell_formula_units_Z   36
loop_
 _symmetry_equiv_pos_site_id
 _symmetry_equiv_pos_as_xyz
  1  'x, y, z'
loop_
 _atom_site_type_symbol
 _atom_site_label
 _atom_site_symmetry_multiplicity
 _atom_site_fract_x
 _atom_site_fract_y
 _atom_site_fract_z
 _atom_site_occupancy
  In  In0  1  0.67956866  0.15297083  0.46616357  1
  In  In1  1  0.49897255  0.81268432  0.68303546  1
  In  In2  1  0.33088462  -0.00243505  0.00345266  1
  In  In3  1  0.68326641  0.80365958  0.13540207  1
  In  In4  1  0.20062877  0.47997635  -0.01164317  1
  In  In5  1  0.32968474  -0.01457770  0.33048578  1
  In  In6  1  0.83462791  0.29500807  0.15615479  1
  In  In7  1  0.63622425  0.82755254  0.85942662  1
  In  In8  1  0.53572074  0.41241329  0.65760095  1
  In  In9  1  0.18494396  0.51519253  0.35141193  1
  In  In10  1  -0.00101965  0.67807031  0.01269559  1
  In  In11  1  0.65878821  0.32842099  -0.00088418  1
  In  In12  1  0.34045395  0.32278919  0.65285200  1
  In  In13  1  0.48977046  0.66928464  0.48009720  1
  In  In14  1  0.15879911  0.68797189  0.85253083  1
  In  In15  1  -0.00995562  0.16137171  0.47885826  1
  In  In16  1  0.68382498  0.50436544  0.82476032  1
  In  In17  1  0.50406603  0.66137778  0.84696888  1
  In  In18  1  0.67412549  -0.00995584  0.64183534  1
  In  In19  1  0.64442601  0.66814251  0.32796518  1
  In  In20  1  0.65838713  0.84845519  0.46798396  1
  In  In21  1  0.85628857  0.18206799  0.63744401  1
  In  In22  1  0.13932363  0.66295476  0.50326106  1
  In  In23  1  0.18759697  0.15748053  0.67727449  1
  In  In24  1  0.83939867  0.15531987  -0.00422755  1
  In  In25  1  0.01674581  0.49287833  0.15107453  1
  In  In26  1  0.68323671  0.66251330  0.66370878  1
  In  In27  1  0.00787099  0.15454480  0.85283580  1
  In  In28  1  -0.00511609  0.69494516  0.33659500  1
  In  In29  1  0.50359796  0.15724606  0.32587682  1
  In  In30  1  -0.02045304  0.51178111  0.82837497  1
  In  In31  1  0.14800628  0.16606735  0.02090051  1
  In  In32  1  0.37926304  0.67741152  0.27583775  1
  In  In33  1  0.02806095  0.35375684  0.33599802  1
  In  In34  1  0.83816750  0.84067974  0.32911440  1
  In  In35  1  0.82113506  0.50518426  -0.01349946  1
  In  In36  1  0.15138759  0.85151287  0.67577540  1
  In  In37  1  0.64639218  0.51330468  0.16998815  1
  In  In38  1  0.81178417  0.49239770  0.66158896  1
  In  In39  1  0.49731695  0.00762818  0.17089436  1
  In  In40  1  0.32906559  0.00076982  0.67814854  1
  In  In41  1  0.46480070  0.33944649  0.83399562  1
  In  In42  1  0.33522584  0.66200801  0.68249816  1
  In  In43  1  0.50990278  0.17345607  -0.02755873  1
  In  In44  1  0.69115843  0.01479380  0.01929856  1
  In  In45  1  0.14491072  0.32565400  0.48446571  1
  In  In46  1  0.17787248  0.17370653  0.32587124  1
  In  In47  1  0.64920875  0.17317965  0.80749045  1
  In  In48  1  0.85666589  0.80470251  0.64809416  1
  In  In49  1  0.02504035  0.85783858  0.83896876  1
  In  In50  1  0.82486183  0.00853982  0.84491426  1
  In  In51  1  0.50136941  0.51476067  0.01881683  1
  In  In52  1  0.15440516  0.69205935  0.16642264  1
  In  In53  1  0.33615750  0.49516064  0.49314241  1
  In  In54  1  0.80753467  0.34257523  0.48539188  1
  In  In55  1  0.66103015  0.33829965  0.30653371  1
  In  In56  1  -0.00918899  0.33437475  0.67639103  1
  In  In57  1  0.46160135  -0.00500954  0.83884548  1
  In  In58  1  -0.01628052  0.87002033  0.16843262  1
  In  In59  1  0.35250726  0.34159873  0.34797244  1
  In  In60  1  0.33156026  0.66251586  0.01336051  1
  In  In61  1  0.33205391  0.82656627  0.49135956  1
  In  In62  1  0.17625200  -0.00176252  0.15733654  1
  In  In63  1  0.50807125  -0.00424441  0.48006578  1
  In  In64  1  -0.01018724  -0.00197393  0.32795406  1
  In  In65  1  0.81581327  0.67846131  0.87608463  1
  In  In66  1  0.85475213  0.53216058  0.31946219  1
  In  In67  1  0.16169324  0.52569962  0.66451493  1
  In  In68  1  0.32985645  0.16817709  0.84386245  1
  In  In69  1  0.17082320  0.32310375  0.18452758  1
  In  In70  1  -0.01510390  0.01274662  0.65022883  1
  In  In71  1  0.50964265  0.33526015  0.14574151  1
  Te  Te72  1  0.06214031  0.07076082  0.09681433  1
  Te  Te73  1  0.09544980  0.08059472  0.41156917  1
  Te  Te74  1  0.08320634  0.07290236  0.74890609  1
  Te  Te75  1  0.10019545  0.39778505  0.07192023  1
  Te  Te76  1  0.07641984  0.45357565  0.43980758  1
  Te  Te77  1  0.08133927  0.42741885  0.75342353  1
  Te  Te78  1  0.07929371  0.78863946  0.07768147  1
  Te  Te79  1  0.09670170  0.76899255  0.41192676  1
  Te  Te80  1  0.06681746  0.74464148  0.74708948  1
  Te  Te81  1  0.42423131  0.09777649  0.07157613  1
  Te  Te82  1  0.40624392  0.08745895  0.41889425  1
  Te  Te83  1  0.42915422  0.11201435  0.73950576  1
  Te  Te84  1  0.40911439  0.42277707  0.08573599  1
  Te  Te85  1  0.43396316  0.39200389  0.46070983  1
  Te  Te86  1  0.40523441  0.43525352  0.73255893  1
  Te  Te87  1  0.41691361  0.70525535  0.12771313  1
  Te  Te88  1  0.43352744  0.77657869  0.39387404  1
  Te  Te89  1  0.39940143  0.75808112  0.78043865  1
  Te  Te90  1  0.80254106  0.06316311  0.11075999  1
  Te  Te91  1  0.77950120  0.07146971  0.39681603  1
  Te  Te92  1  0.75678704  0.08615872  0.73064257  1
  Te  Te93  1  0.73997725  0.41526619  0.09402883  1
  Te  Te94  1  0.75084767  0.43653122  0.38045983  1
  Te  Te95  1  0.77324133  0.40288957  0.77235312  1
  Te  Te96  1  0.75496346  0.72750404  0.02985746  1
  Te  Te97  1  0.74851928  0.74397717  0.41041982  1
  Te  Te98  1  0.73930386  0.76296725  0.76343827  1
  Te  Te99  1  0.06297772  0.23519144  0.24815293  1
  Te  Te100  1  0.07555239  0.23710886  0.59215931  1
  Te  Te101  1  0.10002106  0.25224003  0.91036226  1
  Te  Te102  1  0.07895501  0.58018645  0.25893357  1
  Te  Te103  1  0.04910341  0.60328537  0.60605157  1
  Te  Te104  1  0.08053851  0.57833034  0.93216023  1
  Te  Te105  1  0.09690933  0.91488350  0.25721056  1
  Te  Te106  1  0.05969708  0.91106957  0.57705681  1
  Te  Te107  1  0.15393791  0.89260846  0.90132757  1
  Te  Te108  1  0.42215656  0.25565666  0.24458837  1
  Te  Te109  1  0.43822126  0.21928622  0.62590145  1
  Te  Te110  1  0.38830345  0.27166547  0.94593329  1
  Te  Te111  1  0.42240676  0.53878731  0.27294206  1
  Te  Te112  1  0.42231550  0.58531664  0.58775886  1
  Te  Te113  1  0.40296905  0.57141961  0.91564865  1
  Te  Te114  1  0.39988225  0.90863310  0.22455164  1
  Te  Te115  1  0.42801879  0.91148275  0.59105103  1
  Te  Te116  1  0.42817195  0.89971189  0.94483794  1
  Te  Te117  1  0.75173486  0.23347026  0.25877569  1
  Te  Te118  1  0.73562926  0.24810212  0.58081800  1
  Te  Te119  1  0.74147434  0.23797562  0.91076579  1
  Te  Te120  1  0.75016531  0.60310015  0.23582820  1
  Te  Te121  1  0.72887093  0.56651229  0.55993211  1
  Te  Te122  1  0.70232650  0.60285705  0.94903338  1
  Te  Te123  1  0.76471952  0.89754540  0.21527640  1
  Te  Te124  1  0.76419314  0.89854156  0.56537671  1
  Te  Te125  1  0.74831846  0.90851668  0.92805227  1
  Te  Te126  1  0.25079518  0.22987317  0.10646255  1
  Te  Te127  1  0.26033983  0.24752227  0.43109298  1
  Te  Te128  1  0.24698522  0.26830751  0.76078000  1
  Te  Te129  1  0.23466240  0.58026054  0.09659673  1
  Te  Te130  1  0.26677598  0.61443156  0.43049643  1
  Te  Te131  1  0.24371116  0.58606121  0.77710389  1
  Te  Te132  1  0.27894739  0.90328536  0.10687639  1
  Te  Te133  1  0.24206876  0.92385944  0.43176919  1
  Te  Te134  1  0.24323324  0.92308285  0.77333665  1
  Te  Te135  1  0.59847611  0.22237264  0.08823385  1
  Te  Te136  1  0.58300097  0.25764667  0.41032273  1
  Te  Te137  1  0.57123712  0.28349750  0.73853926  1
  Te  Te138  1  0.55310629  0.61737932  0.11583349  1
  Te  Te139  1  0.57617532  0.57178367  0.41604146  1
  Te  Te140  1  0.58114483  0.58027642  0.74264334  1
  Te  Te141  1  0.59324407  0.92427279  0.08784294  1
  Te  Te142  1  0.58892957  0.93611236  0.37110855  1
  Te  Te143  1  0.58259514  0.92744256  0.74838417  1
  Te  Te144  1  0.93017703  0.25413411  0.05525179  1
  Te  Te145  1  0.91857554  0.27112818  0.40686604  1
  Te  Te146  1  0.91307206  0.23895353  0.76535786  1
  Te  Te147  1  0.90977871  0.57938446  0.08596207  1
  Te  Te148  1  0.91296706  0.61140798  0.43159641  1
  Te  Te149  1  0.87764962  0.59766151  0.76118569  1
  Te  Te150  1  0.91960745  0.95926991  0.06947357  1
  Te  Te151  1  0.94214163  0.89261661  0.42043390  1
  Te  Te152  1  0.90544115  0.91648592  0.74743510  1
  Te  Te153  1  0.26764648  0.09163066  0.23814475  1
  Te  Te154  1  0.25031851  0.07190532  0.57791907  1
  Te  Te155  1  0.23561277  0.08187788  0.92127725  1
  Te  Te156  1  0.25993575  0.42378771  0.25877732  1
  Te  Te157  1  0.23110361  0.41835662  0.58048790  1
  Te  Te158  1  0.26699008  0.37586099  0.91412184  1
  Te  Te159  1  0.24818484  0.74422767  0.26505726  1
  Te  Te160  1  0.24571281  0.75117462  0.59966821  1
  Te  Te161  1  0.24777443  0.76504814  0.94408100  1
  Te  Te162  1  0.60015742  0.06514717  0.26278328  1
  Te  Te163  1  0.58383774  0.08885343  0.57368565  1
  Te  Te164  1  0.59427052  0.06650284  0.90305095  1
  Te  Te165  1  0.54377934  0.44120121  0.25933864  1
  Te  Te166  1  0.66180420  0.42422904  0.58448007  1
  Te  Te167  1  0.57646566  0.42161807  0.91291628  1
  Te  Te168  1  0.57624680  0.75347097  0.22767262  1
  Te  Te169  1  0.59102144  0.75267739  0.57846529  1
  Te  Te170  1  0.53788061  0.76353508  0.94819743  1
  Te  Te171  1  0.87570787  0.07710015  0.27871131  1
  Te  Te172  1  0.88723604  0.06843808  0.54269609  1
  Te  Te173  1  0.94484025  0.04046949  0.93289930  1
  Te  Te174  1  0.92062765  0.41221810  0.23908041  1
  Te  Te175  1  0.91012931  0.41328490  0.57562582  1
  Te  Te176  1  0.91392277  0.41541389  0.91964068  1
  Te  Te177  1  0.91118345  0.74941378  0.22391706  1
  Te  Te178  1  0.92130508  0.70691275  0.56448100  1
  Te  Te179  1  0.92626301  0.77415279  0.92111746  1
