# generated using pymatgen
data_In2Te3
_symmetry_space_group_name_H-M   'P 1'
_cell_length_a   18.75056992
_cell_length_b   18.74529877
_cell_length_c   18.74993447
_cell_angle_alpha   89.98956623
_cell_angle_beta   89.98287519
_cell_angle_gamma   90.08319591
_symmetry_Int_Tables_number   1
_chemical_formula_structural   In2Te3
_chemical_formula_sum   'In72 Te108'
_cell_volume   6590.31402441
_cell_formula_units_Z   36
loop_
 _symmetry_equiv_pos_site_id
 _symmetry_equiv_pos_as_xyz
  1  'x, y, z'
loop_
 _atom_site_type_symbol
 _atom_site_label
 _atom_site_symmetry_multiplicity
 _atom_site_fract_x
 _atom_site_fract_y
 _atom_site_fract_z
 _atom_site_occupancy
  In  In0  1  0.35012582  0.15735823  0.48860530  1
  In  In1  1  0.82391078  0.31412826  0.18288892  1
  In  In2  1  0.18795729  0.82872847  0.34688574  1
  In  In3  1  0.81319740  0.16789064  0.34938914  1
  In  In4  1  0.17268445  0.16187206  0.32924833  1
  In  In5  1  0.01448488  0.67640033  0.32501391  1
  In  In6  1  0.64214349  0.00548509  0.34043784  1
  In  In7  1  -0.00865551  -0.00765556  0.35007408  1
  In  In8  1  0.69760240  0.49581997  0.83489119  1
  In  In9  1  -0.00424776  0.00174922  -0.03007209  1
  In  In10  1  -0.03540289  0.52195735  0.14245198  1
  In  In11  1  0.51341845  0.83963474  0.68291474  1
  In  In12  1  0.84587817  0.65853793  0.83649189  1
  In  In13  1  0.50583595  0.68582472  0.83957460  1
  In  In14  1  0.50707437  0.49964647  0.62675443  1
  In  In15  1  0.34395942  0.33399822  0.33535361  1
  In  In16  1  0.19335326  0.80527146  0.64622506  1
  In  In17  1  0.00614416  0.34659159  0.67760045  1
  In  In18  1  0.32127694  0.50389862  0.84247865  1
  In  In19  1  0.16573090  0.50168659  0.00002242  1
  In  In20  1  0.00517508  0.85367641  0.82829980  1
  In  In21  1  0.14896025  0.16875664  -0.00812707  1
  In  In22  1  0.33994394  0.82570769  0.83794920  1
  In  In23  1  0.15824002  0.32474165  0.16880484  1
  In  In24  1  0.52461532  0.15501673  0.66968299  1
  In  In25  1  0.49666238  0.51155805  0.00534543  1
  In  In26  1  0.35041032  0.51142531  0.16610789  1
  In  In27  1  0.34616686  -0.02634871  -0.00825319  1
  In  In28  1  0.01440909  0.81806740  0.16145144  1
  In  In29  1  0.47646366  0.69481113  0.15543997  1
  In  In30  1  0.80675473  0.31152063  0.51529322  1
  In  In31  1  0.48814553  -0.02647574  0.19489703  1
  In  In32  1  0.81618833  0.00895831  0.14948529  1
  In  In33  1  0.16779545  0.18178278  0.66452653  1
  In  In34  1  0.20431569  -0.01450249  0.15278000  1
  In  In35  1  0.33961623  0.17450207  0.80371173  1
  In  In36  1  0.33547373  0.16901692  0.17952648  1
  In  In37  1  -0.03494184  0.17314197  0.84104180  1
  In  In38  1  0.35662817  0.01833472  0.66367244  1
  In  In39  1  0.18204334  -0.04029538  0.47848155  1
  In  In40  1  0.81619247  0.85288765  0.65193561  1
  In  In41  1  0.66419005  0.83095005  0.16053451  1
  In  In42  1  0.66133598  0.66504802  0.32663659  1
  In  In43  1  0.82553248  0.50690622  0.68172503  1
  In  In44  1  -0.01849570  0.17761917  0.51898475  1
  In  In45  1  0.01569607  0.50618412  0.50245704  1
  In  In46  1  0.32127356  0.35015842  0.65599197  1
  In  In47  1  0.16915655  0.67509033  0.17521053  1
  In  In48  1  0.15928200  0.50108843  0.65968885  1
  In  In49  1  0.81711638  0.82363167  -0.00650538  1
  In  In50  1  0.49433790  0.33740282  0.16785268  1
  In  In51  1  -0.04336455  0.36257639  -0.02962139  1
  In  In52  1  0.65980023  0.00946762  0.01233187  1
  In  In53  1  0.18842462  0.52599914  0.36972543  1
  In  In54  1  0.85629678  0.82923733  0.34254796  1
  In  In55  1  0.49221409  0.50138395  0.34547487  1
  In  In56  1  -0.01144747  0.81876158  0.49794873  1
  In  In57  1  0.66789709  0.48965248  0.15453778  1
  In  In58  1  -0.02309619  0.00496874  0.65458936  1
  In  In59  1  0.16286196  0.65940895  0.84062387  1
  In  In60  1  0.69401319  0.31340239  -0.02915462  1
  In  In61  1  0.48414005  0.68257104  0.48943297  1
  In  In62  1  0.51383128  0.16524057  -0.00897238  1
  In  In63  1  0.50143852  -0.01299254  0.49886078  1
  In  In64  1  0.82172330  0.47259780  0.34799433  1
  In  In65  1  -0.00440037  0.18324939  0.15869092  1
  In  In66  1  0.53024243  0.31753593  0.48644240  1
  In  In67  1  0.82958875  0.67425687  0.50970695  1
  In  In68  1  0.15664232  -0.00599146  0.83535248  1
  In  In69  1  0.50293018  0.31671503  0.82393510  1
  In  In70  1  0.64361669  0.84645401  0.84067613  1
  In  In71  1  0.65995215  0.66352413  0.66076590  1
  Te  Te72  1  0.08385338  0.07473219  0.09565639  1
  Te  Te73  1  0.08191249  0.08331974  0.43428487  1
  Te  Te74  1  0.07373518  0.09279030  0.74988025  1
  Te  Te75  1  0.06217862  0.40671493  0.08244414  1
  Te  Te76  1  0.09017742  0.42246895  0.40555467  1
  Te  Te77  1  0.08960037  0.42691405  0.76916253  1
  Te  Te78  1  0.07781783  0.72345274  0.06864581  1
  Te  Te79  1  0.10072533  0.73571648  0.43506627  1
  Te  Te80  1  0.08668875  0.75488265  0.74435050  1
  Te  Te81  1  0.41633233  0.07814092  0.08455701  1
  Te  Te82  1  0.44179845  0.08451828  0.40101601  1
  Te  Te83  1  0.44448807  0.06803108  0.77661873  1
  Te  Te84  1  0.40299234  0.40667520  0.06759419  1
  Te  Te85  1  0.41619784  0.41348638  0.44400037  1
  Te  Te86  1  0.42467634  0.42456084  0.74774850  1
  Te  Te87  1  0.39044524  0.76648274  0.06032003  1
  Te  Te88  1  0.39406666  0.77718929  0.41416521  1
  Te  Te89  1  0.40949916  0.73759158  0.73317890  1
  Te  Te90  1  0.72940886  0.11393273  0.09463617  1
  Te  Te91  1  0.74497753  0.06450404  0.43404347  1
  Te  Te92  1  0.75321220  0.14480308  0.74680644  1
  Te  Te93  1  0.76427905  0.40567645  0.07226685  1
  Te  Te94  1  0.72048299  0.39916793  0.42815840  1
  Te  Te95  1  0.75437188  0.39279171  0.74666339  1
  Te  Te96  1  0.75822811  0.73399257  0.09657040  1
  Te  Te97  1  0.74228130  0.75960435  0.41902659  1
  Te  Te98  1  0.74980260  0.74680787  0.75402175  1
  Te  Te99  1  0.06751262  0.25689794  0.27204605  1
  Te  Te100  1  0.09038205  0.27305762  0.57058934  1
  Te  Te101  1  0.06682961  0.26577720  0.91126571  1
  Te  Te102  1  0.08476638  0.56545454  0.24738626  1
  Te  Te103  1  0.07856290  0.60633442  0.58972346  1
  Te  Te104  1  0.06679908  0.56925762  0.91209033  1
  Te  Te105  1  0.08839656  0.91649920  0.25841169  1
  Te  Te106  1  0.08150190  0.91155059  0.59100192  1
  Te  Te107  1  0.10418713  0.89891304  0.94172322  1
  Te  Te108  1  0.44031413  0.23534129  0.26937997  1
  Te  Te109  1  0.41853385  0.24323255  0.59747483  1
  Te  Te110  1  0.40547741  0.25006842  0.92043149  1
  Te  Te111  1  0.41253864  0.60440181  0.26826628  1
  Te  Te112  1  0.40254788  0.59128993  0.57796983  1
  Te  Te113  1  0.40661294  0.60271991  0.92373876  1
  Te  Te114  1  0.39208470  0.88765823  0.26951522  1
  Te  Te115  1  0.40844793  0.90005455  0.58768140  1
  Te  Te116  1  0.44467279  0.90969394  0.90165449  1
  Te  Te117  1  0.71528766  0.25171791  0.27076384  1
  Te  Te118  1  0.74708101  0.20434966  0.60105570  1
  Te  Te119  1  0.76490606  0.21102976  0.88608531  1
  Te  Te120  1  0.75563171  0.57223183  0.25037441  1
  Te  Te121  1  0.73850012  0.56762734  0.57100428  1
  Te  Te122  1  0.76380802  0.58045651  0.94162420  1
  Te  Te123  1  0.75893869  0.91439207  0.25622430  1
  Te  Te124  1  0.74936911  0.94419397  0.55834365  1
  Te  Te125  1  0.74984246  0.93185742  0.91196796  1
  Te  Te126  1  0.25207130  0.24665137  0.07754043  1
  Te  Te127  1  0.24862862  0.25388677  0.42509929  1
  Te  Te128  1  0.23475840  0.27783572  0.76210011  1
  Te  Te129  1  0.25955492  0.59447412  0.07792494  1
  Te  Te130  1  0.28090935  0.61484348  0.44185203  1
  Te  Te131  1  0.25656073  0.59351467  0.73831028  1
  Te  Te132  1  0.27652131  0.87224765  0.08258499  1
  Te  Te133  1  0.31084178  0.91262820  0.40484964  1
  Te  Te134  1  0.25091038  0.92165731  0.74006643  1
  Te  Te135  1  0.59320733  0.26211058  0.07897653  1
  Te  Te136  1  0.62433172  0.24232958  0.40039545  1
  Te  Te137  1  0.61285118  0.24633677  0.75158549  1
  Te  Te138  1  0.58467416  0.60108035  0.09173469  1
  Te  Te139  1  0.58845124  0.58133670  0.43222689  1
  Te  Te140  1  0.58213591  0.57494348  0.75855553  1
  Te  Te141  1  0.56438032  0.90778632  0.07680371  1
  Te  Te142  1  0.57634938  0.89297758  0.41017898  1
  Te  Te143  1  0.61822487  0.93648307  0.72562956  1
  Te  Te144  1  0.90031145  0.25042687  0.06425516  1
  Te  Te145  1  0.91364487  0.26410112  0.41287913  1
  Te  Te146  1  0.89903209  0.26434051  0.74316279  1
  Te  Te147  1  0.87549428  0.59689952  0.05367997  1
  Te  Te148  1  0.91236673  0.59242675  0.40778089  1
  Te  Te149  1  0.93988820  0.56072976  0.76626335  1
  Te  Te150  1  0.91935393  0.91611091  0.08329388  1
  Te  Te151  1  0.89471139  0.93276137  0.45334438  1
  Te  Te152  1  0.89438044  0.93583934  0.76216452  1
  Te  Te153  1  0.27056244  0.06268079  0.26897597  1
  Te  Te154  1  0.24208103  0.07840096  0.57931605  1
  Te  Te155  1  0.25335773  0.08480683  0.91365185  1
  Te  Te156  1  0.25312068  0.42013699  0.24625870  1
  Te  Te157  1  0.24184637  0.42632586  0.55905668  1
  Te  Te158  1  0.25056590  0.40498552  0.92573894  1
  Te  Te159  1  0.27347223  0.75218562  0.24981728  1
  Te  Te160  1  0.27084511  0.73891390  0.53901539  1
  Te  Te161  1  0.24807493  0.74921079  0.92519868  1
  Te  Te162  1  0.59015666  0.07839939  0.22249568  1
  Te  Te163  1  0.60259704  0.06111511  0.58360623  1
  Te  Te164  1  0.59391581  0.08261723  0.89972598  1
  Te  Te165  1  0.58649049  0.41537541  0.26128631  1
  Te  Te166  1  0.59973367  0.39073971  0.59625992  1
  Te  Te167  1  0.58369197  0.41692443  0.92165025  1
  Te  Te168  1  0.56678608  0.76410698  0.25945908  1
  Te  Te169  1  0.58875969  0.76256458  0.57178226  1
  Te  Te170  1  0.60170056  0.74269012  0.93634048  1
  Te  Te171  1  0.91595602  0.08495030  0.25364624  1
  Te  Te172  1  0.87725495  0.10200509  0.59697995  1
  Te  Te173  1  0.88188436  0.08991239  0.93462568  1
  Te  Te174  1  0.92013524  0.41540449  0.24538934  1
  Te  Te175  1  0.90853535  0.42202782  0.57442299  1
  Te  Te176  1  0.89286244  0.46607852  0.88512661  1
  Te  Te177  1  0.90704558  0.73425117  0.23352536  1
  Te  Te178  1  0.91886394  0.74345709  0.61201444  1
  Te  Te179  1  0.93226609  0.75409130  0.92008038  1
