# generated using pymatgen
data_In2Te3
_symmetry_space_group_name_H-M   'P 1'
_cell_length_a   18.79702882
_cell_length_b   18.79017544
_cell_length_c   18.80273297
_cell_angle_alpha   89.98715349
_cell_angle_beta   89.91302543
_cell_angle_gamma   89.98969897
_symmetry_Int_Tables_number   1
_chemical_formula_structural   In2Te3
_chemical_formula_sum   'In72 Te108'
_cell_volume   6641.10738098
_cell_formula_units_Z   36
loop_
 _symmetry_equiv_pos_site_id
 _symmetry_equiv_pos_as_xyz
  1  'x, y, z'
loop_
 _atom_site_type_symbol
 _atom_site_label
 _atom_site_symmetry_multiplicity
 _atom_site_fract_x
 _atom_site_fract_y
 _atom_site_fract_z
 _atom_site_occupancy
  In  In0  1  0.66160885  0.15147056  0.84028120  1
  In  In1  1  0.31017584  0.03527237  0.65760844  1
  In  In2  1  0.16914457  0.66469946  0.15742841  1
  In  In3  1  0.29208067  0.67807151  -0.00244595  1
  In  In4  1  0.51898267  0.64104873  0.81728891  1
  In  In5  1  0.67716908  0.33729322  -0.00574310  1
  In  In6  1  -0.02140388  0.01710860  0.64280371  1
  In  In7  1  0.33892456  0.32965985  0.34910391  1
  In  In8  1  0.47879179  0.48040222  0.33755933  1
  In  In9  1  0.68111050  0.31724343  0.64593950  1
  In  In10  1  -0.01664544  0.83250001  0.15700437  1
  In  In11  1  0.65976776  0.85114087  0.51859969  1
  In  In12  1  0.69980097  0.64753061  -0.04563973  1
  In  In13  1  0.14339917  0.67316747  0.52411325  1
  In  In14  1  0.84841454  0.47893655  0.66581152  1
  In  In15  1  0.85120533  0.00847272  0.83985884  1
  In  In16  1  0.01670497  0.01459061  0.32993285  1
  In  In17  1  -0.01538180  0.18966908  0.13666486  1
  In  In18  1  0.68332178  0.18772164  0.15656224  1
  In  In19  1  0.49338582  0.84005494  0.67387955  1
  In  In20  1  0.14612303  0.84130128  0.66992033  1
  In  In21  1  0.14486100  0.02840419  0.15891355  1
  In  In22  1  0.34098924  0.51706068  0.16858185  1
  In  In23  1  0.35163024  0.86187437  0.16300406  1
  In  In24  1  0.48329163  0.85653580  -0.00264174  1
  In  In25  1  -0.00194222  0.65552709  0.68321866  1
  In  In26  1  0.50070964  0.48726415  -0.00925545  1
  In  In27  1  0.49073486  0.66547631  0.52459283  1
  In  In28  1  0.82499521  0.85126928  0.33599005  1
  In  In29  1  0.15056092  0.50229542  0.33040484  1
  In  In30  1  0.31062157  0.44860927  0.51254275  1
  In  In31  1  0.66936285  -0.00996865  0.67573510  1
  In  In32  1  0.18068605  0.32498390  0.50104680  1
  In  In33  1  0.00568374  0.83733354  0.49967487  1
  In  In34  1  0.86690862  0.82492700  -0.03317737  1
  In  In35  1  0.32794094  0.30429068  -0.00675042  1
  In  In36  1  0.01278909  0.16931098  0.83126245  1
  In  In37  1  0.32848868  0.67726465  0.36132416  1
  In  In38  1  0.67787397  0.47337456  0.49726530  1
  In  In39  1  0.17631733  0.17581340  0.33601255  1
  In  In40  1  0.66816151  0.45089468  0.15701539  1
  In  In41  1  0.14372384  0.83521202  -0.01879479  1
  In  In42  1  0.64916523  0.82205870  0.82719813  1
  In  In43  1  0.83242167  0.49407726  0.34807252  1
  In  In44  1  -0.01258519  0.32224885  0.34508310  1
  In  In45  1  0.16481808  -0.00456234  0.83640508  1
  In  In46  1  0.34515875  0.64547796  0.68194924  1
  In  In47  1  0.67032094  0.01634256  0.00675202  1
  In  In48  1  0.48002961  0.17016009  0.66105221  1
  In  In49  1  0.19050926  0.85223601  0.36061365  1
  In  In50  1  0.66304215  0.19233462  0.47820131  1
  In  In51  1  0.49200713  0.01759749  0.17959173  1
  In  In52  1  0.33630111  0.49628404  0.81716980  1
  In  In53  1  0.82377459  0.82703556  0.69574680  1
  In  In54  1  0.53634640  0.68052803  0.15598547  1
  In  In55  1  0.17524091  0.33400756  0.13173727  1
  In  In56  1  0.66274181  -0.01134129  0.32167895  1
  In  In57  1  0.16139295  0.47281536  0.67810735  1
  In  In58  1  0.49555032  0.33700246  0.85753706  1
  In  In59  1  0.51104510  0.31848905  0.18842465  1
  In  In60  1  0.12109609  0.49289191  -0.05072646  1
  In  In61  1  0.00662949  0.33098206  0.65610708  1
  In  In62  1  0.83350770  0.16733405  0.33580054  1
  In  In63  1  0.82914935  0.63430995  0.51036196  1
  In  In64  1  0.01608130  0.47813194  0.14267282  1
  In  In65  1  0.66109343  0.66774064  0.32956487  1
  In  In66  1  0.47796384  0.05008243  0.48420129  1
  In  In67  1  0.31280549  0.86074239  0.50059387  1
  In  In68  1  0.85815786  0.33123356  0.85245267  1
  In  In69  1  0.32157095  0.01987737  -0.00808468  1
  In  In70  1  0.84574855  0.65229745  0.15044812  1
  In  In71  1  0.68665036  0.82222061  0.18052655  1
  Te  Te72  1  0.07701477  0.10704959  0.05458863  1
  Te  Te73  1  0.08487257  0.10286526  0.42892970  1
  Te  Te74  1  0.08626937  0.07775551  0.73215370  1
  Te  Te75  1  0.06518128  0.37561124  0.03492084  1
  Te  Te76  1  0.07720055  0.41337149  0.43023562  1
  Te  Te77  1  0.06464615  0.40843470  0.77702502  1
  Te  Te78  1  0.06666080  0.73666358  0.07092119  1
  Te  Te79  1  0.08550485  0.74588981  0.40501030  1
  Te  Te80  1  0.07278144  0.75569113  0.76622129  1
  Te  Te81  1  0.41244945  0.09435871  0.08170754  1
  Te  Te82  1  0.41837901  0.13172444  0.37782026  1
  Te  Te83  1  0.39526438  0.10095577  0.76136666  1
  Te  Te84  1  0.42008097  0.40590388  0.09274949  1
  Te  Te85  1  0.45277208  0.37665913  0.44943702  1
  Te  Te86  1  0.43948895  0.41858807  0.74720855  1
  Te  Te87  1  0.40532710  0.73724547  0.08731780  1
  Te  Te88  1  0.42274524  0.76995747  0.43538969  1
  Te  Te89  1  0.41856879  0.74672203  0.76904334  1
  Te  Te90  1  0.77023819  0.09610005  0.07803131  1
  Te  Te91  1  0.74362888  0.07388676  0.41836648  1
  Te  Te92  1  0.76343263  0.08833063  0.74415713  1
  Te  Te93  1  0.78710668  0.39638500  0.08258494  1
  Te  Te94  1  0.78206932  0.38554730  0.43777766  1
  Te  Te95  1  0.75646764  0.39406336  0.75370763  1
  Te  Te96  1  0.75553366  0.74723931  0.06655799  1
  Te  Te97  1  0.74592651  0.75218289  0.42699462  1
  Te  Te98  1  0.74987309  0.72558336  0.77514209  1
  Te  Te99  1  0.08824265  0.26093621  0.24419057  1
  Te  Te100  1  0.09732165  0.23065855  0.58565868  1
  Te  Te101  1  0.13504395  0.23665726  0.89330742  1
  Te  Te102  1  0.06604642  0.59087958  0.24268704  1
  Te  Te103  1  0.06831250  0.55865181  0.58704604  1
  Te  Te104  1  0.06354094  0.62332182  0.90996469  1
  Te  Te105  1  0.08760496  0.90231435  0.24893137  1
  Te  Te106  1  0.09648751  0.93856497  0.56697388  1
  Te  Te107  1  0.05632848  0.93710913  0.91960220  1
  Te  Te108  1  0.40816192  0.23165531  0.25409037  1
  Te  Te109  1  0.40286307  0.25502995  0.56970327  1
  Te  Te110  1  0.40065331  0.22684398  0.88886964  1
  Te  Te111  1  0.42764056  0.60553641  0.26122934  1
  Te  Te112  1  0.40763115  0.55109875  0.58156583  1
  Te  Te113  1  0.40568746  0.58774628  0.92774345  1
  Te  Te114  1  0.41788159  0.92977492  0.27401423  1
  Te  Te115  1  0.42121809  0.94214235  0.58637150  1
  Te  Te116  1  0.38626302  0.91677240  0.90677727  1
  Te  Te117  1  0.76004099  0.26687229  0.25538614  1
  Te  Te118  1  0.77496913  0.22374315  0.57577639  1
  Te  Te119  1  0.76184662  0.23209674  0.92270780  1
  Te  Te120  1  0.74408825  0.57598501  0.24116510  1
  Te  Te121  1  0.73028083  0.57592891  0.60924589  1
  Te  Te122  1  0.78820629  0.54081566  0.90091487  1
  Te  Te123  1  0.77191083  0.94050071  0.22440606  1
  Te  Te124  1  0.77466880  0.92461603  0.58573803  1
  Te  Te125  1  0.74445479  0.91243835  0.90836360  1
  Te  Te126  1  0.26104477  0.21989471  0.09579296  1
  Te  Te127  1  0.29720479  0.21446981  0.46042520  1
  Te  Te128  1  0.18002158  0.30032238  0.76490502  1
  Te  Te129  1  0.22594809  0.55108687  0.07129975  1
  Te  Te130  1  0.24777171  0.56842377  0.43128929  1
  Te  Te131  1  0.22697246  0.58675197  0.75798777  1
  Te  Te132  1  0.23439905  0.91571785  0.08337687  1
  Te  Te133  1  0.25389954  0.97128537  0.42140367  1
  Te  Te134  1  0.25780586  0.91680504  0.74029390  1
  Te  Te135  1  0.57362381  0.25020594  0.06680615  1
  Te  Te136  1  0.56195630  0.27118366  0.40663626  1
  Te  Te137  1  0.58301971  0.24886948  0.75216902  1
  Te  Te138  1  0.60302142  0.56844459  0.07561903  1
  Te  Te139  1  0.57890794  0.58076796  0.42432725  1
  Te  Te140  1  0.61906036  0.58761485  0.72755022  1
  Te  Te141  1  0.58560000  0.91069346  0.09668466  1
  Te  Te142  1  0.56985975  0.93336763  0.43011443  1
  Te  Te143  1  0.56247568  0.93649098  0.77067899  1
  Te  Te144  1  0.90316659  0.29061155  0.06781358  1
  Te  Te145  1  0.94190033  0.20938546  0.43559124  1
  Te  Te146  1  0.91410003  0.24180055  0.74068832  1
  Te  Te147  1  0.92468363  0.56451684  0.05933160  1
  Te  Te148  1  0.92729296  0.58696531  0.41273530  1
  Te  Te149  1  0.89990202  0.57831217  0.76617167  1
  Te  Te150  1  0.91232733  0.92362509  0.06620034  1
  Te  Te151  1  0.91895601  0.93577647  0.42047352  1
  Te  Te152  1  0.93401716  0.91526745  0.75119699  1
  Te  Te153  1  0.24625413  0.07218643  0.25619509  1
  Te  Te154  1  0.23202120  0.14195160  0.59026602  1
  Te  Te155  1  0.23107031  0.11012745  0.90979538  1
  Te  Te156  1  0.24944520  0.41424514  0.25255155  1
  Te  Te157  1  0.26605169  0.36720333  0.63719478  1
  Te  Te158  1  0.25641522  0.41819206  0.91999595  1
  Te  Te159  1  0.25465837  0.75232970  0.24916942  1
  Te  Te160  1  0.26111269  0.74352601  0.59036672  1
  Te  Te161  1  0.24046751  0.76519215  0.89185105  1
  Te  Te162  1  0.59330659  0.10444216  0.25334479  1
  Te  Te163  1  0.59321967  0.08959964  0.58629269  1
  Te  Te164  1  0.56530914  0.07687072  0.92416468  1
  Te  Te165  1  0.60144029  0.39800110  0.28503616  1
  Te  Te166  1  0.58297429  0.41591939  0.59508476  1
  Te  Te167  1  0.60799479  0.43428303  0.89769158  1
  Te  Te168  1  0.57204711  0.77713027  0.27130540  1
  Te  Te169  1  0.59331004  0.74576492  0.60701391  1
  Te  Te170  1  0.57024929  0.74359412  0.93496873  1
  Te  Te171  1  0.92373019  0.09104998  0.23617892  1
  Te  Te172  1  0.90399107  0.11974452  0.56630476  1
  Te  Te173  1  0.93002305  0.09462905  0.93093130  1
  Te  Te174  1  0.92084208  0.41727134  0.24733530  1
  Te  Te175  1  0.91040624  0.39553156  0.55979416  1
  Te  Te176  1  0.90781619  0.45049322  0.92894105  1
  Te  Te177  1  0.90487610  0.74695795  0.25752307  1
  Te  Te178  1  0.91265469  0.74910552  0.58417309  1
  Te  Te179  1  0.94368925  0.72346486  0.89344707  1
