# generated using pymatgen
data_In2Te3
_symmetry_space_group_name_H-M   'P 1'
_cell_length_a   18.94578075
_cell_length_b   18.96189741
_cell_length_c   18.94407745
_cell_angle_alpha   89.93004147
_cell_angle_beta   90.00636649
_cell_angle_gamma   90.03299507
_symmetry_Int_Tables_number   1
_chemical_formula_structural   In2Te3
_chemical_formula_sum   'In72 Te108'
_cell_volume   6805.61475975
_cell_formula_units_Z   36
loop_
 _symmetry_equiv_pos_site_id
 _symmetry_equiv_pos_as_xyz
  1  'x, y, z'
loop_
 _atom_site_type_symbol
 _atom_site_label
 _atom_site_symmetry_multiplicity
 _atom_site_fract_x
 _atom_site_fract_y
 _atom_site_fract_z
 _atom_site_occupancy
  In  In0  1  0.87052217  0.68272502  0.16336279  1
  In  In1  1  0.66278375  0.64344464  0.34237733  1
  In  In2  1  0.49475368  0.01192200  0.50457881  1
  In  In3  1  0.83608400  0.52048256  0.69245288  1
  In  In4  1  0.83999717  -0.00243773  0.51479774  1
  In  In5  1  0.16898811  0.18085076  0.34414595  1
  In  In6  1  0.05166521  0.00929525  0.70630052  1
  In  In7  1  0.67184588  0.48687503  0.13639880  1
  In  In8  1  0.81695798  0.33038051  0.17009751  1
  In  In9  1  0.64050605  0.84133159  0.16106110  1
  In  In10  1  0.52029131  0.14949444  -0.00993678  1
  In  In11  1  0.67663073  0.00321605  0.31105409  1
  In  In12  1  0.18012229  0.85104363  -0.00732510  1
  In  In13  1  0.58483565  0.30900114  0.29433408  1
  In  In14  1  -0.03796242  0.33786753  -0.02597978  1
  In  In15  1  0.31325167  0.31129248  0.01066100  1
  In  In16  1  0.14321473  0.32979209  0.16564468  1
  In  In17  1  0.49480246  0.82222731  0.34404962  1
  In  In18  1  -0.00067809  -0.00658262  0.31814858  1
  In  In19  1  0.64961846  0.67443161  0.67332292  1
  In  In20  1  0.15499880  0.82577275  0.32235429  1
  In  In21  1  0.50122360  -0.00304064  0.13970155  1
  In  In22  1  0.68714244  0.68211016  -0.00873533  1
  In  In23  1  0.68388964  0.84756810  0.83420348  1
  In  In24  1  0.65696520  0.49415934  0.52484755  1
  In  In25  1  0.82992859  0.33529970  0.56425851  1
  In  In26  1  0.33757220  0.49174107  0.46909645  1
  In  In27  1  0.69123854  0.84256263  0.50887546  1
  In  In28  1  0.83589420  0.68011781  0.83778912  1
  In  In29  1  0.19145516  0.66637174  0.49714151  1
  In  In30  1  0.15199853  0.48905636  0.68670802  1
  In  In31  1  0.68063702  0.15247356  0.15316823  1
  In  In32  1  0.16857011  0.02294534  0.51020995  1
  In  In33  1  0.31487678  0.14648956  0.83189241  1
  In  In34  1  0.15984219  0.17844439  0.67126134  1
  In  In35  1  0.30120460  0.00182072  0.31107929  1
  In  In36  1  0.81635860  0.49741539  0.35084492  1
  In  In37  1  0.86280118  0.17386086  0.32200971  1
  In  In38  1  0.30391787  0.48487615  0.17105281  1
  In  In39  1  0.00867567  0.33632891  0.33010327  1
  In  In40  1  0.01477660  0.70376944  0.66687564  1
  In  In41  1  0.67834373  0.32503248  0.70035921  1
  In  In42  1  0.68571687  0.30170363  -0.03115229  1
  In  In43  1  -0.00331365  0.10733314  0.12704775  1
  In  In44  1  0.50736880  0.49822897  0.64055109  1
  In  In45  1  0.30670905  0.47887800  0.83385793  1
  In  In46  1  0.32336150  0.64155973  0.69220308  1
  In  In47  1  0.51240408  0.64249800  0.82351264  1
  In  In48  1  0.65614102  0.15948889  0.49502312  1
  In  In49  1  0.30973731  0.91876729  0.82948245  1
  In  In50  1  0.33051464  0.17358282  0.49354384  1
  In  In51  1  0.47143648  0.47902261  0.00682268  1
  In  In52  1  0.00136526  0.51310554  0.47436307  1
  In  In53  1  0.33301541  0.02800427  0.00497795  1
  In  In54  1  0.46710356  0.63644652  0.15748880  1
  In  In55  1  0.01023610  0.86070353  0.50204412  1
  In  In56  1  0.00761729  0.86119848  0.13274565  1
  In  In57  1  0.34135202  0.82573687  0.51142590  1
  In  In58  1  0.49932055  0.66916645  0.46433788  1
  In  In59  1  0.83989774  0.00244267  0.83259304  1
  In  In60  1  0.86060401  0.67337853  0.48928416  1
  In  In61  1  0.32582676  0.80400315  0.17580105  1
  In  In62  1  0.50993129  0.32743935  0.83092718  1
  In  In63  1  0.30949921  0.67446389  0.00511110  1
  In  In64  1  0.35105568  0.32498483  0.63300598  1
  In  In65  1  0.04230564  0.53974660  0.16022765  1
  In  In66  1  0.51676997  0.85487494  0.68896738  1
  In  In67  1  0.16022657  0.32664052  0.85706734  1
  In  In68  1  -0.02216016  0.20514630  0.56850736  1
  In  In69  1  0.00429572  0.84176774  0.84960059  1
  In  In70  1  0.83755810  0.14378924  -0.01626719  1
  In  In71  1  0.02169945  0.65848070  -0.02312171  1
  Te  Te72  1  0.10617548  0.05006813  0.04447757  1
  Te  Te73  1  0.07003214  0.08711174  0.41520709  1
  Te  Te74  1  0.05832414  0.14346101  0.77487872  1
  Te  Te75  1  0.04863296  0.41254508  0.08129725  1
  Te  Te76  1  0.09010209  0.40625096  0.42970481  1
  Te  Te77  1  0.06419771  0.39967520  0.76657596  1
  Te  Te78  1  0.09590568  0.75188675  0.07049324  1
  Te  Te79  1  0.08107054  0.74789680  0.42922204  1
  Te  Te80  1  0.09934026  0.76439145  0.76899776  1
  Te  Te81  1  0.41680546  0.11555088  0.09769297  1
  Te  Te82  1  0.40019234  0.07235639  0.40221115  1
  Te  Te83  1  0.40417440  0.03514447  0.79321260  1
  Te  Te84  1  0.40883656  0.38427416  0.10291835  1
  Te  Te85  1  0.40735466  0.37177010  0.42142053  1
  Te  Te86  1  0.41981246  0.42482879  0.74765497  1
  Te  Te87  1  0.42340412  0.75287641  0.07110496  1
  Te  Te88  1  0.38099423  0.73547979  0.39543881  1
  Te  Te89  1  0.42962976  0.74121685  0.74293960  1
  Te  Te90  1  0.73282444  0.05719677  0.05169480  1
  Te  Te91  1  0.76611217  0.08419332  0.41124218  1
  Te  Te92  1  0.73215696  0.10346008  0.80196629  1
  Te  Te93  1  0.76753685  0.40774820  0.04972300  1
  Te  Te94  1  0.74988518  0.40292701  0.44618993  1
  Te  Te95  1  0.77856346  0.41129344  0.77724435  1
  Te  Te96  1  0.75945926  0.76160833  0.09708508  1
  Te  Te97  1  0.75358912  0.74647424  0.40739629  1
  Te  Te98  1  0.75727951  0.75882981  0.73173094  1
  Te  Te99  1  0.05503679  0.22125683  0.24254984  1
  Te  Te100  1  0.11061764  0.26626130  0.56449749  1
  Te  Te101  1  0.07470493  0.24849813  0.94710246  1
  Te  Te102  1  0.12215310  0.58825623  0.27063493  1
  Te  Te103  1  0.08901881  0.58927611  0.58647037  1
  Te  Te104  1  0.11062454  0.56728536  0.90783753  1
  Te  Te105  1  0.10676413  0.93519545  0.23032935  1
  Te  Te106  1  0.11590994  0.91011781  0.59660738  1
  Te  Te107  1  0.07747924  0.94396011  0.93383575  1
  Te  Te108  1  0.43957298  0.27357286  0.30491118  1
  Te  Te109  1  0.42560521  0.20340056  0.60405355  1
  Te  Te110  1  0.41371878  0.24271328  0.91570701  1
  Te  Te111  1  0.39364607  0.56379741  0.25895552  1
  Te  Te112  1  0.41186020  0.59636953  0.57309151  1
  Te  Te113  1  0.40312113  0.57977174  0.91235017  1
  Te  Te114  1  0.41929113  0.91296355  0.24875433  1
  Te  Te115  1  0.41297170  0.92537061  0.59937546  1
  Te  Te116  1  0.42263265  0.93849856  0.92574606  1
  Te  Te117  1  0.73488045  0.25040381  0.27005487  1
  Te  Te118  1  0.74378319  0.21531219  0.60667095  1
  Te  Te119  1  0.78218400  0.23501273  0.87574925  1
  Te  Te120  1  0.75020929  0.58002010  0.23435873  1
  Te  Te121  1  0.75644466  0.59830826  0.57514954  1
  Te  Te122  1  0.75550087  0.58219372  0.91064996  1
  Te  Te123  1  0.74782791  0.89400725  0.24687570  1
  Te  Te124  1  0.73894714  0.94052574  0.60683771  1
  Te  Te125  1  0.78785497  0.89887784  0.92473319  1
  Te  Te126  1  0.22717142  0.22851425  0.09690685  1
  Te  Te127  1  0.26328474  0.27822983  0.40967236  1
  Te  Te128  1  0.26263981  0.26997665  0.75233846  1
  Te  Te129  1  0.22996774  0.57402654  0.07713609  1
  Te  Te130  1  0.22766829  0.56241180  0.39610382  1
  Te  Te131  1  0.21003438  0.59445484  0.79020150  1
  Te  Te132  1  0.27023412  0.91806372  0.09429872  1
  Te  Te133  1  0.24441244  0.91264095  0.42252132  1
  Te  Te134  1  0.19195627  0.96178049  0.75280864  1
  Te  Te135  1  0.59406092  0.25220019  0.07950014  1
  Te  Te136  1  0.54769185  0.22473117  0.41720332  1
  Te  Te137  1  0.57870914  0.22777260  0.75055865  1
  Te  Te138  1  0.57672510  0.58784777  0.06181123  1
  Te  Te139  1  0.56846352  0.54513740  0.41119722  1
  Te  Te140  1  0.60553574  0.55041627  0.74702310  1
  Te  Te141  1  0.58266028  0.91638546  0.04959741  1
  Te  Te142  1  0.58838377  0.91835352  0.41486712  1
  Te  Te143  1  0.59202520  0.94600988  0.77368766  1
  Te  Te144  1  0.90293682  0.23309675  0.09168774  1
  Te  Te145  1  0.91356659  0.26151999  0.43147335  1
  Te  Te146  1  0.89812816  0.26431766  0.67826932  1
  Te  Te147  1  0.92370567  0.57830953  0.07095518  1
  Te  Te148  1  0.92714615  0.59986730  0.37482789  1
  Te  Te149  1  0.94279890  0.60545222  0.75951736  1
  Te  Te150  1  0.92752448  0.97726036  0.08614923  1
  Te  Te151  1  0.90448163  0.91232008  0.40619859  1
  Te  Te152  1  0.93147319  0.91938839  0.74256577  1
  Te  Te153  1  0.24562955  0.11444517  0.23559236  1
  Te  Te154  1  0.26406870  0.08836437  0.60494894  1
  Te  Te155  1  0.21973077  0.09784683  0.93611246  1
  Te  Te156  1  0.23771891  0.38789523  0.26138616  1
  Te  Te157  1  0.25905355  0.43782787  0.59134447  1
  Te  Te158  1  0.23106415  0.42525128  0.95273461  1
  Te  Te159  1  0.21957321  0.72047729  0.23850138  1
  Te  Te160  1  0.25274891  0.74994154  0.60964868  1
  Te  Te161  1  0.27410041  0.77858701  0.90035264  1
  Te  Te162  1  0.57360400  0.08629458  0.24116163  1
  Te  Te163  1  0.60353668  0.05951457  0.59167850  1
  Te  Te164  1  0.63883610  0.08735804  0.92604820  1
  Te  Te165  1  0.57362328  0.44273621  0.23578489  1
  Te  Te166  1  0.58207283  0.37881658  0.58795463  1
  Te  Te167  1  0.58443410  0.41462827  0.92803938  1
  Te  Te168  1  0.56987759  0.72722935  0.25127315  1
  Te  Te169  1  0.57232574  0.75564114  0.56725811  1
  Te  Te170  1  0.58406199  0.74936016  0.90252524  1
  Te  Te171  1  0.88777007  0.05695181  0.23148677  1
  Te  Te172  1  0.94893450  0.05962640  0.59779217  1
  Te  Te173  1  0.94233249  0.09767111  0.88715515  1
  Te  Te174  1  0.90629556  0.41986025  0.25362058  1
  Te  Te175  1  0.92621573  0.45105275  0.59178378  1
  Te  Te176  1  0.92412359  0.41286794  0.85375421  1
  Te  Te177  1  0.95483770  0.77301687  0.23942480  1
  Te  Te178  1  0.91068201  0.77869375  0.58524187  1
  Te  Te179  1  0.91313651  0.76140249  0.94008256  1
