# generated using pymatgen
data_In2Te3
_symmetry_space_group_name_H-M   'P 1'
_cell_length_a   18.93961620
_cell_length_b   18.92656153
_cell_length_c   18.93418799
_cell_angle_alpha   90.06466105
_cell_angle_beta   89.96297841
_cell_angle_gamma   90.02427869
_symmetry_Int_Tables_number   1
_chemical_formula_structural   In2Te3
_chemical_formula_sum   'In72 Te108'
_cell_volume   6787.17697835
_cell_formula_units_Z   36
loop_
 _symmetry_equiv_pos_site_id
 _symmetry_equiv_pos_as_xyz
  1  'x, y, z'
loop_
 _atom_site_type_symbol
 _atom_site_label
 _atom_site_symmetry_multiplicity
 _atom_site_fract_x
 _atom_site_fract_y
 _atom_site_fract_z
 _atom_site_occupancy
  In  In0  1  0.83819430  0.82945107  0.33019362  1
  In  In1  1  0.34746194  0.81827652  0.82397105  1
  In  In2  1  0.49320714  -0.02920081  0.20491197  1
  In  In3  1  0.34234791  0.82914288  0.51035068  1
  In  In4  1  0.34405372  0.67585208  0.00275973  1
  In  In5  1  0.85224809  0.50688846  0.67653180  1
  In  In6  1  -0.00939937  0.68319209  0.34110209  1
  In  In7  1  0.67926283  0.49846345  0.48465389  1
  In  In8  1  0.66029910  0.32580932  -0.01894821  1
  In  In9  1  -0.01223930  0.83701587  0.17062776  1
  In  In10  1  0.82247594  0.30464411  0.82841955  1
  In  In11  1  0.18699496  0.49606292  0.31606995  1
  In  In12  1  0.49562731  0.35584149  0.17448246  1
  In  In13  1  0.34532432  0.50515324  0.82839249  1
  In  In14  1  0.69106584  0.80674352  0.13495239  1
  In  In15  1  0.15150270  0.84147564  0.67384676  1
  In  In16  1  0.84026088  0.67950433  0.48877639  1
  In  In17  1  0.16318870  0.15972677  0.64241059  1
  In  In18  1  0.48441305  0.16683621  -0.01318292  1
  In  In19  1  0.32171339  0.37012701  0.31930441  1
  In  In20  1  0.14015333  -0.00479352  0.18388414  1
  In  In21  1  0.84679653  0.14436773  0.68309564  1
  In  In22  1  0.67884449  0.70313746  0.67615080  1
  In  In23  1  0.68924139  0.16416360  0.15664159  1
  In  In24  1  0.14883550  0.85234833  0.00640410  1
  In  In25  1  0.65292634  0.34986628  0.65325391  1
  In  In26  1  -0.01970277  0.66130147  -0.01269134  1
  In  In27  1  -0.03931040  0.81865587  0.83779226  1
  In  In28  1  0.67707340  0.83938282  0.52210641  1
  In  In29  1  0.16407721  0.67422964  0.48620065  1
  In  In30  1  0.36210624  0.53528601  0.52247398  1
  In  In31  1  -0.00070081  0.52145431  0.48856303  1
  In  In32  1  0.33763982  0.33099507  0.00487569  1
  In  In33  1  -0.00691565  0.14708825  0.16849454  1
  In  In34  1  0.50862502  0.81822238  0.01841760  1
  In  In35  1  0.18688348  0.69219856  0.19991563  1
  In  In36  1  0.69293067  -0.01456388  -0.01692846  1
  In  In37  1  0.51064834  0.51778867  0.32465824  1
  In  In38  1  0.17321906  0.63766882  0.83560676  1
  In  In39  1  0.66708639  0.50809784  0.86382431  1
  In  In40  1  0.14166174  0.15558212  0.33818722  1
  In  In41  1  0.69271260  0.55504656  0.16928034  1
  In  In42  1  -0.02355392  0.00691294  -0.00137914  1
  In  In43  1  0.84228981  0.31918317  0.16434956  1
  In  In44  1  0.01213096  0.34945357  0.02032766  1
  In  In45  1  0.00263818  -0.00763931  0.63983890  1
  In  In46  1  0.52093320  0.69293931  0.81505462  1
  In  In47  1  0.32322150  0.51219772  0.16870215  1
  In  In48  1  0.83843204  0.32889206  0.48988966  1
  In  In49  1  0.16956056  0.32118176  0.50914168  1
  In  In50  1  0.32299046  -0.00642273  0.00355897  1
  In  In51  1  0.52814474  -0.03645740  0.79905406  1
  In  In52  1  0.49420434  0.16412122  0.68964659  1
  In  In53  1  -0.01863054  -0.00247376  0.35902586  1
  In  In54  1  -0.01328753  0.16826769  0.84969214  1
  In  In55  1  0.52033298  0.32957475  0.50468446  1
  In  In56  1  0.50346702  0.16739003  0.36698760  1
  In  In57  1  0.49717770  -0.00706591  0.52210070  1
  In  In58  1  -0.02552145  0.68608961  0.65812521  1
  In  In59  1  0.50458072  0.66217540  0.15854975  1
  In  In60  1  0.17427187  0.02270492  0.84781767  1
  In  In61  1  -0.01810163  0.34450233  0.32486584  1
  In  In62  1  0.68812053  0.00814621  0.33839544  1
  In  In63  1  0.16970865  0.34931910  0.82352466  1
  In  In64  1  0.32882052  0.34440607  0.66476106  1
  In  In65  1  0.49386999  0.81592596  0.34481016  1
  In  In66  1  0.32856271  0.17079100  0.16512059  1
  In  In67  1  -0.00163612  0.49755692  0.81320345  1
  In  In68  1  0.68230033  0.17107635  0.48545518  1
  In  In69  1  0.31580777  0.14573205  0.50326722  1
  In  In70  1  0.83143047  0.50527621  -0.00440477  1
  In  In71  1  0.66521219  0.15968710  0.81836924  1
  Te  Te72  1  0.08899642  0.07929682  0.06829393  1
  Te  Te73  1  0.09567559  0.05580338  0.43330421  1
  Te  Te74  1  0.07322572  0.08351289  0.75171248  1
  Te  Te75  1  0.09066617  0.42184026  0.11862437  1
  Te  Te76  1  0.09193545  0.42336728  0.41272966  1
  Te  Te77  1  0.08746834  0.42133173  0.72610867  1
  Te  Te78  1  0.08036375  0.74371959  0.08716162  1
  Te  Te79  1  0.04992715  0.76133345  0.45114297  1
  Te  Te80  1  0.08130306  0.74190730  0.77106070  1
  Te  Te81  1  0.42555788  0.06692665  0.09926043  1
  Te  Te82  1  0.40702681  0.06304100  0.41431282  1
  Te  Te83  1  0.42142946  0.05524264  0.75477182  1
  Te  Te84  1  0.42167975  0.44226566  0.07718828  1
  Te  Te85  1  0.42808392  0.42079188  0.41710190  1
  Te  Te86  1  0.42707336  0.42778214  0.73286907  1
  Te  Te87  1  0.39991062  0.76580237  0.11070809  1
  Te  Te88  1  0.43572228  0.72722289  0.44922990  1
  Te  Te89  1  0.41819276  0.74226411  0.71630085  1
  Te  Te90  1  0.76681745  0.06775269  0.07868135  1
  Te  Te91  1  0.77512922  0.06299460  0.44513296  1
  Te  Te92  1  0.74414041  0.05609073  0.74664752  1
  Te  Te93  1  0.74648693  0.40618146  0.07615502  1
  Te  Te94  1  0.75657916  0.40870731  0.39838725  1
  Te  Te95  1  0.75146760  0.41803809  0.75197238  1
  Te  Te96  1  0.72529853  0.67397632  0.07407737  1
  Te  Te97  1  0.73271735  0.75147930  0.40944615  1
  Te  Te98  1  0.75828121  0.79901894  0.75589677  1
  Te  Te99  1  0.07471525  0.25002757  0.24322330  1
  Te  Te100  1  0.06522987  0.23602148  0.56415732  1
  Te  Te101  1  0.08457748  0.26262563  0.91746494  1
  Te  Te102  1  0.08549868  0.59590336  0.26040056  1
  Te  Te103  1  0.07670045  0.59578425  0.59393314  1
  Te  Te104  1  0.07911882  0.56106832  0.92551761  1
  Te  Te105  1  0.07418764  0.89654101  0.27651225  1
  Te  Te106  1  0.08937650  0.90535683  0.55557667  1
  Te  Te107  1  0.06875713  0.92048956  0.89770160  1
  Te  Te108  1  0.42238626  0.25475987  0.26192258  1
  Te  Te109  1  0.41506047  0.24394942  0.57435619  1
  Te  Te110  1  0.40905573  0.25495065  0.89998013  1
  Te  Te111  1  0.40458835  0.60330188  0.25778997  1
  Te  Te112  1  0.43658298  0.63682252  0.59870636  1
  Te  Te113  1  0.43316036  0.60409288  0.90705107  1
  Te  Te114  1  0.38717499  0.89932437  0.28023562  1
  Te  Te115  1  0.41216033  0.91347994  0.61090610  1
  Te  Te116  1  0.42359712  0.90662641  0.92323121  1
  Te  Te117  1  0.77650145  0.22477732  0.25649059  1
  Te  Te118  1  0.75264266  0.24777837  0.60302712  1
  Te  Te119  1  0.75276204  0.21725834  0.92954218  1
  Te  Te120  1  0.78132990  0.61973383  0.26776099  1
  Te  Te121  1  0.76082810  0.58880587  0.58849313  1
  Te  Te122  1  0.76135812  0.60913196  0.91489222  1
  Te  Te123  1  0.74496266  0.90812647  0.23985675  1
  Te  Te124  1  0.70985295  0.94436019  0.62267585  1
  Te  Te125  1  0.72309032  0.87976904  0.88468441  1
  Te  Te126  1  0.24288023  0.23455191  0.06623683  1
  Te  Te127  1  0.25646734  0.25394905  0.40337441  1
  Te  Te128  1  0.24539772  0.24351650  0.73970053  1
  Te  Te129  1  0.23785485  0.60268260  0.08289896  1
  Te  Te130  1  0.26456228  0.58325742  0.41601302  1
  Te  Te131  1  0.26257493  0.58396307  0.73540613  1
  Te  Te132  1  0.24567600  0.91189157  0.10582602  1
  Te  Te133  1  0.26461979  0.88461028  0.39707919  1
  Te  Te134  1  0.24768415  0.91764285  0.76549939  1
  Te  Te135  1  0.57186334  0.24760917  0.08909005  1
  Te  Te136  1  0.61012007  0.27248485  0.39613404  1
  Te  Te137  1  0.57813969  0.26938695  0.75942775  1
  Te  Te138  1  0.58909918  0.58775729  0.06248606  1
  Te  Te139  1  0.60244991  0.59647793  0.40629579  1
  Te  Te140  1  0.60774473  0.58807701  0.74792616  1
  Te  Te141  1  0.59045562  0.92407888  0.09570187  1
  Te  Te142  1  0.58650675  0.92276508  0.41697213  1
  Te  Te143  1  0.60557187  0.87371881  0.70499606  1
  Te  Te144  1  0.92222416  0.23554179  0.06595627  1
  Te  Te145  1  0.92723549  0.24082409  0.41227145  1
  Te  Te146  1  0.93419418  0.25841642  0.73802427  1
  Te  Te147  1  0.93204571  0.56350632  0.08678396  1
  Te  Te148  1  0.89326006  0.56946697  0.39219214  1
  Te  Te149  1  0.90506263  0.61210060  0.77206237  1
  Te  Te150  1  0.89698724  0.90719414  0.07631234  1
  Te  Te151  1  0.89314411  0.90891975  0.44082888  1
  Te  Te152  1  0.91667727  0.90094453  0.72305340  1
  Te  Te153  1  0.24582004  0.08021129  0.25528852  1
  Te  Te154  1  0.24683262  0.05105867  0.58923852  1
  Te  Te155  1  0.26531121  0.10549702  0.92774065  1
  Te  Te156  1  0.22263309  0.39395848  0.19978230  1
  Te  Te157  1  0.25607346  0.43336686  0.56676065  1
  Te  Te158  1  0.25259351  0.42902597  0.92254595  1
  Te  Te159  1  0.24004094  0.75119953  0.32218918  1
  Te  Te160  1  0.24059225  0.74652911  0.59505628  1
  Te  Te161  1  0.24044116  0.75949908  0.92301706  1
  Te  Te162  1  0.58075718  0.08904159  0.25979181  1
  Te  Te163  1  0.58216137  0.10410452  0.58147056  1
  Te  Te164  1  0.57888258  0.07089491  0.91346266  1
  Te  Te165  1  0.60463013  0.43942841  0.23525029  1
  Te  Te166  1  0.56699248  0.45127942  0.58186922  1
  Te  Te167  1  0.56692841  0.41459582  0.91375589  1
  Te  Te168  1  0.58977593  0.75738713  0.23909534  1
  Te  Te169  1  0.58248089  0.73134553  0.56572513  1
  Te  Te170  1  0.60340121  0.77055157  0.91395746  1
  Te  Te171  1  0.90880410  0.05647140  0.24564731  1
  Te  Te172  1  0.90588052  0.07740813  0.56598675  1
  Te  Te173  1  0.89327705  0.06343279  0.89197949  1
  Te  Te174  1  0.93008140  0.42912683  0.21447125  1
  Te  Te175  1  0.92612679  0.42107566  0.57675979  1
  Te  Te176  1  0.90988807  0.40395729  0.90522689  1
  Te  Te177  1  0.88981317  0.72385147  0.22390539  1
  Te  Te178  1  0.89203976  0.78255621  0.58290332  1
  Te  Te179  1  0.89384838  0.78060911  0.96516810  1
