# generated using pymatgen
data_In2Te3
_symmetry_space_group_name_H-M   'P 1'
_cell_length_a   19.07091658
_cell_length_b   19.04988419
_cell_length_c   19.04345470
_cell_angle_alpha   90.17513424
_cell_angle_beta   89.87424944
_cell_angle_gamma   89.62312210
_symmetry_Int_Tables_number   1
_chemical_formula_structural   In2Te3
_chemical_formula_sum   'In72 Te108'
_cell_volume   6918.26437061
_cell_formula_units_Z   36
loop_
 _symmetry_equiv_pos_site_id
 _symmetry_equiv_pos_as_xyz
  1  'x, y, z'
loop_
 _atom_site_type_symbol
 _atom_site_label
 _atom_site_symmetry_multiplicity
 _atom_site_fract_x
 _atom_site_fract_y
 _atom_site_fract_z
 _atom_site_occupancy
  In  In0  1  -0.00191729  0.34161175  0.67464155  1
  In  In1  1  0.17197049  0.51539013  -0.00709613  1
  In  In2  1  0.50733589  0.02979707  0.17423262  1
  In  In3  1  0.65852439  0.83220566  0.83009158  1
  In  In4  1  0.82276441  0.17251188  -0.01479825  1
  In  In5  1  0.33601463  0.19338999  0.18059952  1
  In  In6  1  0.32229954  0.81389783  0.17409924  1
  In  In7  1  0.80953705  0.03215723  0.53781554  1
  In  In8  1  -0.02029266  0.17393830  0.82524002  1
  In  In9  1  -0.00668258  0.84352582  0.17061789  1
  In  In10  1  0.67620053  0.80279505  0.16653545  1
  In  In11  1  0.17708313  0.67823131  0.51861037  1
  In  In12  1  0.35529956  0.63919066  0.01763865  1
  In  In13  1  0.68261336  0.31850062  0.33737089  1
  In  In14  1  -0.00620764  0.16808907  0.51011867  1
  In  In15  1  0.65825421  -0.01126994  -0.02141076  1
  In  In16  1  0.33842698  0.34431668  0.68247856  1
  In  In17  1  0.14740748  0.35469939  0.15079015  1
  In  In18  1  0.17824555  -0.01265790  0.84999151  1
  In  In19  1  0.65011384  0.85860752  0.50822512  1
  In  In20  1  -0.01189255  -0.02857464  0.70716457  1
  In  In21  1  0.67708529  0.22537363  0.14173265  1
  In  In22  1  0.85771577  0.37052545  0.20312061  1
  In  In23  1  0.15695786  0.48682890  0.33621575  1
  In  In24  1  0.31704262  0.13158664  0.50263739  1
  In  In25  1  0.84520578  0.84562481  0.34398946  1
  In  In26  1  0.51938152  0.03274955  0.82942064  1
  In  In27  1  0.03395720  0.67823309  0.68288879  1
  In  In28  1  -0.00348054  0.50338524  0.47198792  1
  In  In29  1  0.49090487  0.50406277  0.33614282  1
  In  In30  1  0.14782071  0.16423017  0.33197555  1
  In  In31  1  0.00635256  0.13883955  0.16349972  1
  In  In32  1  0.31393644  -0.02027277  0.33525722  1
  In  In33  1  0.81774113  0.64794570  0.13946733  1
  In  In34  1  0.33433839  0.49192944  0.16497591  1
  In  In35  1  0.36369706  0.17953447  0.82338106  1
  In  In36  1  0.85520164  0.67481387  0.51980236  1
  In  In37  1  0.67845693  0.62010607  -0.01590337  1
  In  In38  1  0.67804190  0.48245043  0.48938227  1
  In  In39  1  0.18251362  0.32006353  0.51395840  1
  In  In40  1  0.32888982  0.52067594  0.51418110  1
  In  In41  1  0.35024158  0.34583145  -0.01870990  1
  In  In42  1  0.84125815  0.00236440  0.15017267  1
  In  In43  1  0.34750450  0.82952924  0.83836932  1
  In  In44  1  0.13925914  0.16837081  0.00248181  1
  In  In45  1  0.33484688  0.02702692  0.02932716  1
  In  In46  1  0.46787796  -0.03028606  0.50207598  1
  In  In47  1  0.63768352  0.69113342  0.66289893  1
  In  In48  1  0.15606098  -0.01391733  0.52827407  1
  In  In49  1  -0.02570378  0.33616954  -0.02818899  1
  In  In50  1  0.66529943  0.00533425  0.35461714  1
  In  In51  1  0.83128816  0.30266293  0.50477379  1
  In  In52  1  0.68029493  0.47494741  0.83285501  1
  In  In53  1  0.32519988  0.52111536  0.81775335  1
  In  In54  1  0.41032710  0.71567978  0.50794221  1
  In  In55  1  0.51169501  0.18628662  0.33838861  1
  In  In56  1  0.49714765  0.36253489  0.51588850  1
  In  In57  1  -0.00489109  0.85329710  0.52843096  1
  In  In58  1  0.49898639  0.65395873  0.84378266  1
  In  In59  1  0.47374972  0.84347242  0.01696537  1
  In  In60  1  0.66958124  0.19057657  0.82938219  1
  In  In61  1  0.68316756  0.66315309  0.33257507  1
  In  In62  1  0.65572297  0.01033115  0.67935892  1
  In  In63  1  0.15973310  0.79929730  -0.00792172  1
  In  In64  1  0.50698230  0.17217241  0.65300749  1
  In  In65  1  0.16536254  -0.04138627  0.18112542  1
  In  In66  1  0.82187468  0.50229016  0.67483207  1
  In  In67  1  0.00702146  0.66940959  0.33234349  1
  In  In68  1  -0.01936780  0.68533776  -0.02011784  1
  In  In69  1  0.66413740  0.45930966  0.14312214  1
  In  In70  1  0.01247510  0.50570000  0.82699507  1
  In  In71  1  0.00365274  -0.04783415  -0.03513487  1
  Te  Te72  1  0.08372265  0.04034603  0.06847478  1
  Te  Te73  1  0.08077302  0.07116636  0.42676989  1
  Te  Te74  1  0.08193387  0.07207981  0.77080336  1
  Te  Te75  1  0.06295771  0.43098285  0.05400919  1
  Te  Te76  1  0.08233212  0.38817561  0.42192058  1
  Te  Te77  1  0.09754463  0.42478170  0.73929445  1
  Te  Te78  1  0.07293052  0.73887814  0.09629123  1
  Te  Te79  1  0.06978366  0.75458688  0.43890553  1
  Te  Te80  1  0.16393179  0.71761234  0.73735300  1
  Te  Te81  1  0.43418332  0.12628814  0.08363114  1
  Te  Te82  1  0.41857655  0.07874673  0.39396324  1
  Te  Te83  1  0.41742160  0.07553176  0.72655850  1
  Te  Te84  1  0.42804747  0.40687203  0.08774127  1
  Te  Te85  1  0.39744851  0.41977644  0.42042159  1
  Te  Te86  1  0.42433285  0.44442229  0.74182707  1
  Te  Te87  1  0.43226271  0.73208384  0.10911314  1
  Te  Te88  1  0.35548112  0.77641548  0.37947399  1
  Te  Te89  1  0.41242928  0.72921021  0.75122321  1
  Te  Te90  1  0.73794049  0.08635817  0.07790372  1
  Te  Te91  1  0.75194257  0.10416202  0.41960407  1
  Te  Te92  1  0.74676407  0.08391855  0.76540617  1
  Te  Te93  1  0.79052362  0.41553948  0.08396717  1
  Te  Te94  1  0.77913851  0.41122429  0.40511058  1
  Te  Te95  1  0.73270332  0.39445342  0.71841036  1
  Te  Te96  1  0.74623779  0.74531367  0.04762588  1
  Te  Te97  1  0.75190212  0.76608328  0.43377517  1
  Te  Te98  1  0.73666548  0.73001647  0.76078679  1
  Te  Te99  1  0.07245192  0.25332953  0.23709939  1
  Te  Te100  1  0.08931315  0.24116378  0.60076443  1
  Te  Te101  1  0.08326489  0.26008887  0.89792553  1
  Te  Te102  1  0.06920458  0.56613792  0.24285497  1
  Te  Te103  1  0.07757698  0.57797876  0.57438668  1
  Te  Te104  1  0.09338017  0.60757925  0.90426379  1
  Te  Te105  1  0.07579166  0.89925425  0.27748598  1
  Te  Te106  1  0.09681084  0.89362151  0.63180484  1
  Te  Te107  1  0.08959540  0.86327444  0.87472497  1
  Te  Te108  1  0.43257671  0.27358881  0.25223135  1
  Te  Te109  1  0.40620710  0.24650316  0.56705455  1
  Te  Te110  1  0.44667164  0.28168481  0.88842438  1
  Te  Te111  1  0.39910973  0.58465734  0.25789202  1
  Te  Te112  1  0.44784618  0.58600192  0.56572070  1
  Te  Te113  1  0.43292460  0.54776303  0.92693328  1
  Te  Te114  1  0.40909763  0.92916145  0.22819202  1
  Te  Te115  1  0.35536315  0.89766779  0.56176860  1
  Te  Te116  1  0.42497037  0.95365690  0.92587736  1
  Te  Te117  1  0.78320642  0.24657577  0.24524223  1
  Te  Te118  1  0.76956255  0.18113399  0.56127250  1
  Te  Te119  1  0.74828503  0.28278796  0.91891435  1
  Te  Te120  1  0.73886344  0.56453478  0.23490071  1
  Te  Te121  1  0.74001132  0.59729918  0.57880121  1
  Te  Te122  1  0.78368159  0.55046699  0.90851684  1
  Te  Te123  1  0.74674070  0.91972563  0.25204494  1
  Te  Te124  1  0.74649136  0.90971555  0.60910453  1
  Te  Te125  1  0.75712512  0.92856454  0.88775237  1
  Te  Te126  1  0.23932586  0.25851687  0.07319928  1
  Te  Te127  1  0.25477295  0.23467618  0.40962885  1
  Te  Te128  1  0.25800384  0.24291426  0.74707465  1
  Te  Te129  1  0.23874802  0.59373299  0.10217513  1
  Te  Te130  1  0.23875387  0.58765359  0.41171741  1
  Te  Te131  1  0.27413399  0.62057006  0.71552723  1
  Te  Te132  1  0.25107359  0.90387585  0.05941103  1
  Te  Te133  1  0.25190450  0.89675636  0.44298456  1
  Te  Te134  1  0.27432748  0.92682375  0.75838652  1
  Te  Te135  1  0.58470655  0.30800839  0.06608750  1
  Te  Te136  1  0.58982594  0.26168001  0.44157126  1
  Te  Te137  1  0.55869747  0.26037143  0.75927216  1
  Te  Te138  1  0.58776887  0.57036813  0.08372462  1
  Te  Te139  1  0.58937743  0.58302613  0.42042726  1
  Te  Te140  1  0.59631639  0.57839339  0.75655679  1
  Te  Te141  1  0.58498986  0.91994596  0.09681906  1
  Te  Te142  1  0.55960440  0.90727781  0.39574652  1
  Te  Te143  1  0.56149193  0.91260884  0.74624030  1
  Te  Te144  1  0.92713743  0.23472268  0.07480229  1
  Te  Te145  1  0.92997084  0.25154727  0.40956605  1
  Te  Te146  1  0.89805030  0.26243268  0.74431166  1
  Te  Te147  1  0.91656043  0.58000701  0.05688337  1
  Te  Te148  1  0.89619853  0.59252077  0.40043281  1
  Te  Te149  1  0.92103299  0.59350582  0.74175816  1
  Te  Te150  1  0.90167548  0.89569237  0.06161003  1
  Te  Te151  1  0.90131759  0.93738017  0.44687615  1
  Te  Te152  1  0.89107393  0.89877204  0.78940695  1
  Te  Te153  1  0.24060740  0.08181125  0.23289701  1
  Te  Te154  1  0.23969772  0.07342176  0.60940512  1
  Te  Te155  1  0.25718904  0.10323777  0.92395177  1
  Te  Te156  1  0.24822119  0.40094006  0.25158179  1
  Te  Te157  1  0.24331254  0.42891931  0.59779107  1
  Te  Te158  1  0.24623378  0.42039963  0.90207677  1
  Te  Te159  1  0.24082081  0.76617039  0.28336164  1
  Te  Te160  1  0.28608602  0.74969842  0.59258160  1
  Te  Te161  1  0.27584223  0.72917525  0.92514619  1
  Te  Te162  1  0.61058790  0.11027688  0.24904845  1
  Te  Te163  1  0.56825499  0.06325623  0.56534930  1
  Te  Te164  1  0.58693792  0.11344287  0.93608789  1
  Te  Te165  1  0.58644780  0.40764959  0.26510039  1
  Te  Te166  1  0.61451890  0.40284311  0.59560822  1
  Te  Te167  1  0.62780179  0.38295059  0.93707394  1
  Te  Te168  1  0.58383031  0.74038432  0.25787633  1
  Te  Te169  1  0.54873491  0.76453335  0.56561363  1
  Te  Te170  1  0.56498571  0.76094743  0.92977260  1
  Te  Te171  1  0.92331481  0.06157217  0.25369739  1
  Te  Te172  1  0.93125574  0.07693555  0.61620867  1
  Te  Te173  1  0.92126207  0.07520244  0.92315255  1
  Te  Te174  1  0.96324749  0.45344908  0.25369352  1
  Te  Te175  1  0.90953123  0.42793802  0.57317389  1
  Te  Te176  1  0.90008921  0.42626221  0.88222539  1
  Te  Te177  1  0.89607928  0.74390544  0.24209222  1
  Te  Te178  1  0.91846420  0.76308624  0.62149935  1
  Te  Te179  1  0.93510743  0.77929015  0.87734629  1
