# generated using pymatgen
data_In2Te3
_symmetry_space_group_name_H-M   'P 1'
_cell_length_a   18.84582341
_cell_length_b   18.84427910
_cell_length_c   18.84147105
_cell_angle_alpha   89.95961643
_cell_angle_beta   90.05038067
_cell_angle_gamma   89.90596181
_symmetry_Int_Tables_number   1
_chemical_formula_structural   In2Te3
_chemical_formula_sum   'In72 Te108'
_cell_volume   6691.27056704
_cell_formula_units_Z   36
loop_
 _symmetry_equiv_pos_site_id
 _symmetry_equiv_pos_as_xyz
  1  'x, y, z'
loop_
 _atom_site_type_symbol
 _atom_site_label
 _atom_site_symmetry_multiplicity
 _atom_site_fract_x
 _atom_site_fract_y
 _atom_site_fract_z
 _atom_site_occupancy
  In  In0  1  0.00029861  0.19720553  0.85843976  1
  In  In1  1  0.47817623  0.34830313  0.14211145  1
  In  In2  1  0.87270044  0.64986716  0.47339455  1
  In  In3  1  0.83728395  0.01003605  0.84799943  1
  In  In4  1  0.33179568  0.47282453  0.16639428  1
  In  In5  1  0.82106391  0.83296162  -0.01096648  1
  In  In6  1  0.84989925  0.18378740  0.70025314  1
  In  In7  1  0.18754877  0.84700681  0.67476152  1
  In  In8  1  0.50778727  -0.00279358  0.14757951  1
  In  In9  1  0.00387085  0.85260846  0.49043573  1
  In  In10  1  0.16383424  0.67927381  0.51047710  1
  In  In11  1  0.50641535  0.16188354  0.32936138  1
  In  In12  1  0.15332345  0.01844893  0.83877263  1
  In  In13  1  0.85276656  0.32151250  0.51404043  1
  In  In14  1  0.34850824  0.69833743  -0.01416117  1
  In  In15  1  0.66243690  0.81815022  0.51352805  1
  In  In16  1  0.30266484  0.88214020  0.14097611  1
  In  In17  1  0.85117534  0.34723601  0.83186870  1
  In  In18  1  0.32489298  0.49513849  0.83043464  1
  In  In19  1  0.83533754  -0.02842460  0.49927889  1
  In  In20  1  0.69318037  0.34501522  0.34287547  1
  In  In21  1  0.82182083  0.67339565  0.17101482  1
  In  In22  1  0.85860916  0.83688501  0.32970462  1
  In  In23  1  0.67801238  0.51572362  0.15821697  1
  In  In24  1  0.01527488  0.65955000  0.01043986  1
  In  In25  1  0.49066484  0.14428086  -0.03537688  1
  In  In26  1  0.02407474  0.17118936  0.49754334  1
  In  In27  1  0.47690260  0.16771122  0.70492816  1
  In  In28  1  0.17124936  0.16011197  0.65609964  1
  In  In29  1  0.68111186  0.17787294  0.51720626  1
  In  In30  1  0.51273341  0.49014062  0.34856968  1
  In  In31  1  0.17534782  0.67187354  0.16137428  1
  In  In32  1  0.65329130  0.15015286  0.83111957  1
  In  In33  1  0.01502613  0.83901495  0.83953038  1
  In  In34  1  0.49700061  -0.02316823  0.56922314  1
  In  In35  1  -0.01316440  0.00159598  0.64505914  1
  In  In36  1  0.47449169  0.86449762  -0.01840172  1
  In  In37  1  0.65188952  0.52185915  0.50623370  1
  In  In38  1  0.84694131  0.01466752  0.16582869  1
  In  In39  1  0.17319586  0.84122843  0.34245735  1
  In  In40  1  0.49552951  0.48536878  0.02365832  1
  In  In41  1  0.52262886  0.66887385  0.15363469  1
  In  In42  1  0.00580874  0.48539723  0.17671775  1
  In  In43  1  0.48455239  0.34023567  0.52123562  1
  In  In44  1  0.17129754  0.49968126  -0.01857397  1
  In  In45  1  0.84502967  0.16600213  0.02945165  1
  In  In46  1  0.68559837  -0.03051669  0.33177628  1
  In  In47  1  0.48112377  0.69482357  0.81008545  1
  In  In48  1  0.14207351  0.18276241  0.31593105  1
  In  In49  1  0.15217639  0.47927640  0.34899934  1
  In  In50  1  0.86795676  0.14895014  0.33033045  1
  In  In51  1  0.87663523  0.33213620  0.16147833  1
  In  In52  1  0.80990339  0.80650096  0.67983506  1
  In  In53  1  0.83542717  0.48304495  0.67095521  1
  In  In54  1  0.29197764  0.14309359  0.48289402  1
  In  In55  1  0.49228278  0.66289449  0.50884870  1
  In  In56  1  0.32401780  0.15998031  0.83466554  1
  In  In57  1  0.66365593  0.31762779  -0.01252762  1
  In  In58  1  0.35231386  0.66692405  0.34403800  1
  In  In59  1  0.01378820  0.83551869  0.15587897  1
  In  In60  1  0.31190352  -0.00022907  0.33954295  1
  In  In61  1  0.31462354  0.33449620  0.66354684  1
  In  In62  1  0.30528231  0.18537235  0.11909975  1
  In  In63  1  0.67006306  0.64482968  0.69089831  1
  In  In64  1  0.69477081  0.16545665  0.14059877  1
  In  In65  1  0.33696710  0.33113909  0.34019188  1
  In  In66  1  0.82321998  0.49374252  -0.02342722  1
  In  In67  1  0.50931175  0.82257131  0.32191396  1
  In  In68  1  0.18441144  0.66903229  0.83707939  1
  In  In69  1  0.48589445  0.51324412  0.66658906  1
  In  In70  1  -0.01987310  0.64446510  0.67545625  1
  In  In71  1  0.14065115  0.47382685  0.69422457  1
  Te  Te72  1  0.13458535  0.03997333  0.13464720  1
  Te  Te73  1  0.10846823  0.08036418  0.41807960  1
  Te  Te74  1  0.05345530  0.09382070  0.74674150  1
  Te  Te75  1  0.10271940  0.41595697  0.08570692  1
  Te  Te76  1  0.04056304  0.42378009  0.42726503  1
  Te  Te77  1  0.03376976  0.41410999  0.78000638  1
  Te  Te78  1  0.11226347  0.76652384  0.06073396  1
  Te  Te79  1  0.07305134  0.74567820  0.40730288  1
  Te  Te80  1  0.08321422  0.74863584  0.73352445  1
  Te  Te81  1  0.40371434  0.07592372  0.06935922  1
  Te  Te82  1  0.42083118  0.07839473  0.42028489  1
  Te  Te83  1  0.42345476  0.05130692  0.78631767  1
  Te  Te84  1  0.37152368  0.39115389  0.04369494  1
  Te  Te85  1  0.39933104  0.43360174  0.43441135  1
  Te  Te86  1  0.41803882  0.40429869  0.75030450  1
  Te  Te87  1  0.41435521  0.76601807  0.10416098  1
  Te  Te88  1  0.41668984  0.77292261  0.43257703  1
  Te  Te89  1  0.37031282  0.74947044  0.73047747  1
  Te  Te90  1  0.74211594  0.05197602  0.05631667  1
  Te  Te91  1  0.74860417  0.08765101  0.41464375  1
  Te  Te92  1  0.75103599  0.07563906  0.73856137  1
  Te  Te93  1  0.74969400  0.39661124  0.08723673  1
  Te  Te94  1  0.75923929  0.42966271  0.44596683  1
  Te  Te95  1  0.74150947  0.41304414  0.76029413  1
  Te  Te96  1  0.74015011  0.73525491  0.06564372  1
  Te  Te97  1  0.77131691  0.75456792  0.42192764  1
  Te  Te98  1  0.73223170  0.74026783  0.78885435  1
  Te  Te99  1  0.04115502  0.25013245  0.22929628  1
  Te  Te100  1  0.10226264  0.26662122  0.57867240  1
  Te  Te101  1  0.12075633  0.23298814  0.93918950  1
  Te  Te102  1  0.09217775  0.58710435  0.25252567  1
  Te  Te103  1  0.08210689  0.57691600  0.58798653  1
  Te  Te104  1  0.07413535  0.58105091  0.89392188  1
  Te  Te105  1  0.10149023  0.92614585  0.23984395  1
  Te  Te106  1  0.10187076  0.93156923  0.57580275  1
  Te  Te107  1  0.07651715  0.93337806  0.93498287  1
  Te  Te108  1  0.41202862  0.24302357  0.24008540  1
  Te  Te109  1  0.39305768  0.23292207  0.57583889  1
  Te  Te110  1  0.41208715  0.25432022  0.90809338  1
  Te  Te111  1  0.42707467  0.57161098  0.24182836  1
  Te  Te112  1  0.39272221  0.57528214  0.57169296  1
  Te  Te113  1  0.41669082  0.58082466  0.92005188  1
  Te  Te114  1  0.41857124  0.92697724  0.25342157  1
  Te  Te115  1  0.40779046  0.87271501  0.63991457  1
  Te  Te116  1  0.38538224  0.93567525  0.88689494  1
  Te  Te117  1  0.76589868  0.24284477  0.25170386  1
  Te  Te118  1  0.75191263  0.26762547  0.61600676  1
  Te  Te119  1  0.76833345  0.23379300  0.91390350  1
  Te  Te120  1  0.75623603  0.57791791  0.26507582  1
  Te  Te121  1  0.76473691  0.60107987  0.57889044  1
  Te  Te122  1  0.76887601  0.58892209  0.87941080  1
  Te  Te123  1  0.76466486  0.89832562  0.22604118  1
  Te  Te124  1  0.73759103  0.91861351  0.60268727  1
  Te  Te125  1  0.74106469  0.90510697  0.88526595  1
  Te  Te126  1  0.19570939  0.27228527  0.07292705  1
  Te  Te127  1  0.22653377  0.26379638  0.41928864  1
  Te  Te128  1  0.22727986  0.25567328  0.76080158  1
  Te  Te129  1  0.26769389  0.58617282  0.07617789  1
  Te  Te130  1  0.24249034  0.58887072  0.41219757  1
  Te  Te131  1  0.24751375  0.58089574  0.73216482  1
  Te  Te132  1  0.22489377  0.96384052  0.04350644  1
  Te  Te133  1  0.26049061  0.90660132  0.44094810  1
  Te  Te134  1  0.25488585  0.91704751  0.79045339  1
  Te  Te135  1  0.57062278  0.23350672  0.08487553  1
  Te  Te136  1  0.58018025  0.26330030  0.42006003  1
  Te  Te137  1  0.58149263  0.25553358  0.75796101  1
  Te  Te138  1  0.60482878  0.59224659  0.04919273  1
  Te  Te139  1  0.58883575  0.61134973  0.40048535  1
  Te  Te140  1  0.56978537  0.57239033  0.77844084  1
  Te  Te141  1  0.58286378  0.89237729  0.07990546  1
  Te  Te142  1  0.58159480  0.92209620  0.43252588  1
  Te  Te143  1  0.53748126  0.92505769  0.70138052  1
  Te  Te144  1  0.96650665  0.23492394  0.09036698  1
  Te  Te145  1  0.93716273  0.26264671  0.40138740  1
  Te  Te146  1  0.96318212  0.28488303  0.73026129  1
  Te  Te147  1  0.91069796  0.57397336  0.08076803  1
  Te  Te148  1  0.95035602  0.54670779  0.40249746  1
  Te  Te149  1  0.88673619  0.58375639  0.77481180  1
  Te  Te150  1  0.92017943  0.91897786  0.07097130  1
  Te  Te151  1  0.93973571  0.95031420  0.39117818  1
  Te  Te152  1  0.91260433  0.91067644  0.74162753  1
  Te  Te153  1  0.25339532  0.09991372  0.23969459  1
  Te  Te154  1  0.27337982  0.06662624  0.60703285  1
  Te  Te155  1  0.22260053  0.11126272  0.93822600  1
  Te  Te156  1  0.23154141  0.39380382  0.24772763  1
  Te  Te157  1  0.22024700  0.41444405  0.58331387  1
  Te  Te158  1  0.21883437  0.40341416  0.87889100  1
  Te  Te159  1  0.26721893  0.75621867  0.25048958  1
  Te  Te160  1  0.26726594  0.74799351  0.59386145  1
  Te  Te161  1  0.24543493  0.77756468  0.91664649  1
  Te  Te162  1  0.60368160  0.07705942  0.24781661  1
  Te  Te163  1  0.57365660  0.10819039  0.59666491  1
  Te  Te164  1  0.58744340  0.04680273  0.91233782  1
  Te  Te165  1  0.58440132  0.40341687  0.24356778  1
  Te  Te166  1  0.58961628  0.41857434  0.59754546  1
  Te  Te167  1  0.57777984  0.41640605  0.92166417  1
  Te  Te168  1  0.60853110  0.74771503  0.24450675  1
  Te  Te169  1  0.57796717  0.73843262  0.61054770  1
  Te  Te170  1  0.56202184  0.77308145  0.90356338  1
  Te  Te171  1  0.95906086  0.09428634  0.22522620  1
  Te  Te172  1  0.89771172  0.10093437  0.57150547  1
  Te  Te173  1  0.93697062  0.08227580  0.93675833  1
  Te  Te174  1  0.89248443  0.44015328  0.26223251  1
  Te  Te175  1  0.93591502  0.42887907  0.57510576  1
  Te  Te176  1  0.93820545  0.40751242  0.93455535  1
  Te  Te177  1  0.93951962  0.73830967  0.24678058  1
  Te  Te178  1  0.92258612  0.76036453  0.58060371  1
  Te  Te179  1  0.92632194  0.74407550  0.91824732  1
