# generated using pymatgen
data_In2Te3
_symmetry_space_group_name_H-M   'P 1'
_cell_length_a   18.94139270
_cell_length_b   18.93621623
_cell_length_c   18.92078963
_cell_angle_alpha   90.02233594
_cell_angle_beta   90.03053406
_cell_angle_gamma   89.88963286
_symmetry_Int_Tables_number   1
_chemical_formula_structural   In2Te3
_chemical_formula_sum   'In72 Te108'
_cell_volume   6786.46273824
_cell_formula_units_Z   36
loop_
 _symmetry_equiv_pos_site_id
 _symmetry_equiv_pos_as_xyz
  1  'x, y, z'
loop_
 _atom_site_type_symbol
 _atom_site_label
 _atom_site_symmetry_multiplicity
 _atom_site_fract_x
 _atom_site_fract_y
 _atom_site_fract_z
 _atom_site_occupancy
  In  In0  1  0.33848327  0.83712217  0.83251643  1
  In  In1  1  0.49399859  0.50067336  0.65523341  1
  In  In2  1  0.70196804  -0.02066049  0.64318085  1
  In  In3  1  0.16535204  0.31784660  0.83904429  1
  In  In4  1  0.19946301  0.51334382  0.31790111  1
  In  In5  1  0.66256531  0.48500230  0.17006018  1
  In  In6  1  0.82928606  0.70360803  0.87343033  1
  In  In7  1  0.45964982  0.81055394  0.04926766  1
  In  In8  1  0.51344917  0.35014637  0.48320131  1
  In  In9  1  0.83211912  0.16290427  0.66138472  1
  In  In10  1  0.02445253  0.67642864  0.68925815  1
  In  In11  1  0.16699603  0.33052644  0.50854445  1
  In  In12  1  -0.02102784  0.68172993  -0.02293349  1
  In  In13  1  0.49822563  0.66621564  0.49937634  1
  In  In14  1  0.49639664  0.33641165  0.16666531  1
  In  In15  1  0.66596934  0.17707786  0.16367651  1
  In  In16  1  0.46560778  0.66938962  0.84102937  1
  In  In17  1  0.34347068  0.00443671  0.66126808  1
  In  In18  1  0.64866181  -0.00564421  0.00463441  1
  In  In19  1  0.17461170  0.80945211  0.34752987  1
  In  In20  1  0.48226505  0.15231241  0.30905546  1
  In  In21  1  0.67280908  0.66402743  0.34164372  1
  In  In22  1  0.30777341  0.33017547  0.00910067  1
  In  In23  1  0.85992489  0.50893632  0.64958814  1
  In  In24  1  0.65985288  0.63369302  -0.00578310  1
  In  In25  1  0.84590966  0.84878213  -0.00722373  1
  In  In26  1  0.66678915  0.18369897  0.52020295  1
  In  In27  1  -0.00262841  0.49718961  0.82538104  1
  In  In28  1  0.66347385  0.48287692  0.82574264  1
  In  In29  1  0.32383343  0.35624047  0.69009626  1
  In  In30  1  0.68486899  0.01031799  0.32987450  1
  In  In31  1  0.83573913  0.14039020  -0.02259801  1
  In  In32  1  0.01801529  0.83270220  0.49282197  1
  In  In33  1  0.85393808  0.67033700  0.51142569  1
  In  In34  1  -0.00791600  0.83254789  0.15541601  1
  In  In35  1  0.18721546  0.17505914  0.27678287  1
  In  In36  1  0.17388494  0.50799473  0.68687754  1
  In  In37  1  -0.00751682  -0.01135738  0.70303103  1
  In  In38  1  0.66054209  0.67235246  0.65199275  1
  In  In39  1  0.83492702  0.18305115  0.35685788  1
  In  In40  1  0.51520622  0.00027967  0.82313776  1
  In  In41  1  0.83584179  0.33073574  0.83187691  1
  In  In42  1  0.47336057  0.84733935  0.28794346  1
  In  In43  1  0.01702132  0.16084635  0.85782423  1
  In  In44  1  0.15816348  0.01874960  0.49370156  1
  In  In45  1  0.84824990  0.66548877  0.13766111  1
  In  In46  1  -0.01168039  0.18014423  0.51411960  1
  In  In47  1  0.81263188  0.44648471  0.36206709  1
  In  In48  1  0.18901366  0.67838457  0.83845962  1
  In  In49  1  0.32774356  0.81559943  0.50225422  1
  In  In50  1  0.65471908  0.82429242  0.82452146  1
  In  In51  1  0.52488509  0.00273947  0.48846739  1
  In  In52  1  0.84006848  0.31480514  0.17299874  1
  In  In53  1  -0.00819165  0.49202993  0.47605977  1
  In  In54  1  0.66003466  0.16341088  0.82883530  1
  In  In55  1  0.48344234  0.32003369  0.85410962  1
  In  In56  1  0.00211013  0.01515654  0.33397871  1
  In  In57  1  0.33624069  -0.00547833  -0.00392716  1
  In  In58  1  0.47552984  0.52227228  0.30686577  1
  In  In59  1  0.17538788  0.66282848  0.16581762  1
  In  In60  1  0.48371025  0.18265778  0.68964918  1
  In  In61  1  0.35132132  0.34196619  0.30626765  1
  In  In62  1  0.82733438  0.82470176  0.33587701  1
  In  In63  1  0.01072667  0.15408928  0.16346762  1
  In  In64  1  0.86595925  0.48570568  0.02096351  1
  In  In65  1  0.16125884  -0.00773345  0.86793091  1
  In  In66  1  0.34668136  0.17032833  0.49059200  1
  In  In67  1  0.48360253  0.50934775  -0.02041824  1
  In  In68  1  0.66863047  0.82535326  0.18542334  1
  In  In69  1  0.18351651  0.64263986  0.49372660  1
  In  In70  1  0.14851097  0.47297520  0.02034747  1
  In  In71  1  0.16455996  -0.02059813  0.14152305  1
  Te  Te72  1  0.11481040  0.10047268  0.06916014  1
  Te  Te73  1  0.09514507  0.11719539  0.39583063  1
  Te  Te74  1  0.09915345  0.08234608  0.75751436  1
  Te  Te75  1  0.03768120  0.43578712  0.10875253  1
  Te  Te76  1  0.10633004  0.42293629  0.40511680  1
  Te  Te77  1  0.08026254  0.40269337  0.74218906  1
  Te  Te78  1  0.07945744  0.74655522  0.07011091  1
  Te  Te79  1  0.07268609  0.71716314  0.41089376  1
  Te  Te80  1  0.12185050  0.77080410  0.74388026  1
  Te  Te81  1  0.41590841  0.04674889  0.10829442  1
  Te  Te82  1  0.40936113  0.06140391  0.40584503  1
  Te  Te83  1  0.40150962  0.08922720  0.77519173  1
  Te  Te84  1  0.40867296  0.42276086  0.07899862  1
  Te  Te85  1  0.40677959  0.43206482  0.41398195  1
  Te  Te86  1  0.42231881  0.43480806  0.77350335  1
  Te  Te87  1  0.39117268  0.72496215  0.15199071  1
  Te  Te88  1  0.42018193  0.75671258  0.39737092  1
  Te  Te89  1  0.42452529  0.76419591  0.73845333  1
  Te  Te90  1  0.74928429  0.07537678  0.08362874  1
  Te  Te91  1  0.75464520  0.08486611  0.44166615  1
  Te  Te92  1  0.75503456  0.07102284  0.75427686  1
  Te  Te93  1  0.75326115  0.40347700  0.08005738  1
  Te  Te94  1  0.73607104  0.37822757  0.46379659  1
  Te  Te95  1  0.76297505  0.41913816  0.73291242  1
  Te  Te96  1  0.74384993  0.75373845  0.07071075  1
  Te  Te97  1  0.73884369  0.76092655  0.44379496  1
  Te  Te98  1  0.75689124  0.74839303  0.74389920  1
  Te  Te99  1  0.08408844  0.26885417  0.22558999  1
  Te  Te100  1  0.09456326  0.23927157  0.59573396  1
  Te  Te101  1  0.08348788  0.25766811  0.94556977  1
  Te  Te102  1  0.09069460  0.60078497  0.26950612  1
  Te  Te103  1  0.07107466  0.57403369  0.58600909  1
  Te  Te104  1  0.08239736  0.58751284  0.91229784  1
  Te  Te105  1  0.08220416  0.90824101  0.26092375  1
  Te  Te106  1  0.08364200  0.92974634  0.58880977  1
  Te  Te107  1  0.04422112  0.95103000  0.94990656  1
  Te  Te108  1  0.39699486  0.22854265  0.21207218  1
  Te  Te109  1  0.41698596  0.26968131  0.58363262  1
  Te  Te110  1  0.40271195  0.23811736  0.94373472  1
  Te  Te111  1  0.37030033  0.59096813  0.22946783  1
  Te  Te112  1  0.40638840  0.59878846  0.59316431  1
  Te  Te113  1  0.38284188  0.61261663  0.94841469  1
  Te  Te114  1  0.38364761  0.94535669  0.21297334  1
  Te  Te115  1  0.42308514  0.91849864  0.56638742  1
  Te  Te116  1  0.44784209  0.90372817  0.92010371  1
  Te  Te117  1  0.73533989  0.25993530  0.26986284  1
  Te  Te118  1  0.77728735  0.27131429  0.57129551  1
  Te  Te119  1  0.74504124  0.24922250  0.92135035  1
  Te  Te120  1  0.75097158  0.59237732  0.23130674  1
  Te  Te121  1  0.74913712  0.57799905  0.57067589  1
  Te  Te122  1  0.77101268  0.56170683  0.92037821  1
  Te  Te123  1  0.77086912  0.92438439  0.23566735  1
  Te  Te124  1  0.74294675  0.88189139  0.54682942  1
  Te  Te125  1  0.73954395  0.91980867  0.90872985  1
  Te  Te126  1  0.21980695  0.28897903  0.12382812  1
  Te  Te127  1  0.26027522  0.25327310  0.39666855  1
  Te  Te128  1  0.26374026  0.24311420  0.75828397  1
  Te  Te129  1  0.24684781  0.56863088  0.07573065  1
  Te  Te130  1  0.28633966  0.60582498  0.39369342  1
  Te  Te131  1  0.27162316  0.59733363  0.74756001  1
  Te  Te132  1  0.24294289  0.88996839  0.05042787  1
  Te  Te133  1  0.24772175  0.92018355  0.42071208  1
  Te  Te134  1  0.24919796  0.93056963  0.75338954  1
  Te  Te135  1  0.57645418  0.25279376  0.07683548  1
  Te  Te136  1  0.56867036  0.22807162  0.41297863  1
  Te  Te137  1  0.59056928  0.27124393  0.74888604  1
  Te  Te138  1  0.56575587  0.57576834  0.09485041  1
  Te  Te139  1  0.57999049  0.57033722  0.41373432  1
  Te  Te140  1  0.58482681  0.59519583  0.76418342  1
  Te  Te141  1  0.57136238  0.90425835  0.09949621  1
  Te  Te142  1  0.58099365  0.91179255  0.38047813  1
  Te  Te143  1  0.58655905  0.91379815  0.72231898  1
  Te  Te144  1  0.91523798  0.23114455  0.07051239  1
  Te  Te145  1  0.94430156  0.26691488  0.40486652  1
  Te  Te146  1  0.92477660  0.23523957  0.75590217  1
  Te  Te147  1  0.96545134  0.57099398  0.10005096  1
  Te  Te148  1  0.89077788  0.57579996  0.39948493  1
  Te  Te149  1  0.90750251  0.60380738  0.76370433  1
  Te  Te150  1  0.92948369  0.94122192  0.07526936  1
  Te  Te151  1  0.91847158  0.91836081  0.41572727  1
  Te  Te152  1  0.90430426  0.88732868  0.75837745  1
  Te  Te153  1  0.25650229  0.04881871  0.23943388  1
  Te  Te154  1  0.25175903  0.09877476  0.58395568  1
  Te  Te155  1  0.23428832  0.09377289  0.95051559  1
  Te  Te156  1  0.24667399  0.40601721  0.21871565  1
  Te  Te157  1  0.25491913  0.43261629  0.57904857  1
  Te  Te158  1  0.24332303  0.42706057  0.91024377  1
  Te  Te159  1  0.25807059  0.77362992  0.22966724  1
  Te  Te160  1  0.21948100  0.75536591  0.58159964  1
  Te  Te161  1  0.24880114  0.77572226  0.93578904  1
  Te  Te162  1  0.58323744  0.06911623  0.23282825  1
  Te  Te163  1  0.57490529  0.09320254  0.60427562  1
  Te  Te164  1  0.56656694  0.09768316  0.92854971  1
  Te  Te165  1  0.57727349  0.41200690  0.27128593  1
  Te  Te166  1  0.59428720  0.41982319  0.58407624  1
  Te  Te167  1  0.58724236  0.40875817  0.93060260  1
  Te  Te168  1  0.57205789  0.73026951  0.24959329  1
  Te  Te169  1  0.57738361  0.76526032  0.57519819  1
  Te  Te170  1  0.57873247  0.74254443  0.92889613  1
  Te  Te171  1  0.90182632  0.09260636  0.25218746  1
  Te  Te172  1  0.92089768  0.06616521  0.58635302  1
  Te  Te173  1  0.92987546  0.04574847  0.90507691  1
  Te  Te174  1  0.90678093  0.42015214  0.25260501  1
  Te  Te175  1  0.94144873  0.40681959  0.58444558  1
  Te  Te176  1  0.93883288  0.39628014  0.92227100  1
  Te  Te177  1  0.92000293  0.73956657  0.25070175  1
  Te  Te178  1  0.93360482  0.76301666  0.59905988  1
  Te  Te179  1  0.95359755  0.79903226  0.87617931  1
