# generated using pymatgen
data_In2Te3
_symmetry_space_group_name_H-M   'P 1'
_cell_length_a   18.96110053
_cell_length_b   18.97841972
_cell_length_c   18.98333348
_cell_angle_alpha   89.82089259
_cell_angle_beta   90.17035388
_cell_angle_gamma   90.05933107
_symmetry_Int_Tables_number   1
_chemical_formula_structural   In2Te3
_chemical_formula_sum   'In72 Te108'
_cell_volume   6831.11811721
_cell_formula_units_Z   36
loop_
 _symmetry_equiv_pos_site_id
 _symmetry_equiv_pos_as_xyz
  1  'x, y, z'
loop_
 _atom_site_type_symbol
 _atom_site_label
 _atom_site_symmetry_multiplicity
 _atom_site_fract_x
 _atom_site_fract_y
 _atom_site_fract_z
 _atom_site_occupancy
  In  In0  1  0.32568756  0.49864815  0.15957062  1
  In  In1  1  0.16483490  0.30011141  0.20019086  1
  In  In2  1  0.33976261  0.66470684  0.00797383  1
  In  In3  1  0.67295346  0.16256109  0.82286745  1
  In  In4  1  -0.00008154  0.66462715  0.66392515  1
  In  In5  1  0.81896847  0.66100358  0.47832382  1
  In  In6  1  0.31718626  0.68318674  0.32681766  1
  In  In7  1  0.51718039  0.47366158  0.68107749  1
  In  In8  1  0.17090240  0.84687894  0.01058466  1
  In  In9  1  0.35272227  0.50415660  0.82684312  1
  In  In10  1  0.31505688  0.19180991  0.44732971  1
  In  In11  1  -0.01627885  0.34479266  0.02441732  1
  In  In12  1  0.51641435  0.47879862  0.30254481  1
  In  In13  1  0.82925200  0.66052549  0.18301754  1
  In  In14  1  0.83988118  0.30719076  0.81113521  1
  In  In15  1  0.87781416  0.17495557  0.62047128  1
  In  In16  1  0.67890598  -0.00499728  0.67870569  1
  In  In17  1  0.00828618  0.50639333  0.84122761  1
  In  In18  1  0.49487185  -0.00173445  0.50499625  1
  In  In19  1  0.39003612  0.18783359  0.20211402  1
  In  In20  1  0.88861811  0.05884819  0.44267102  1
  In  In21  1  0.14857802  0.51572674  0.00600661  1
  In  In22  1  0.82696452  0.31135672  0.20009310  1
  In  In23  1  0.35693945  0.03351652  0.01176090  1
  In  In24  1  0.79520302  0.15923946  0.01406463  1
  In  In25  1  0.82822831  -0.01893048  0.84356836  1
  In  In26  1  0.86321608  0.67602873  0.83076604  1
  In  In27  1  0.48574974  0.66786093  0.84640242  1
  In  In28  1  0.81245555  0.05114118  0.19866569  1
  In  In29  1  0.86243505  0.48051170  0.32783600  1
  In  In30  1  0.66906083  0.48547173  0.85432857  1
  In  In31  1  0.84372475  0.83690733  0.68822146  1
  In  In32  1  -0.00135537  0.82781308  0.83950084  1
  In  In33  1  0.51890082  0.64914861  0.49368393  1
  In  In34  1  0.13688219  0.49322994  0.33210001  1
  In  In35  1  0.67328360  0.33471171  0.63111500  1
  In  In36  1  0.53547307  0.18901005  0.04845966  1
  In  In37  1  -0.03297345  0.68763489  0.02583235  1
  In  In38  1  0.34387942  0.50404229  0.49863262  1
  In  In39  1  0.18693792  0.31608957  0.81854571  1
  In  In40  1  0.67639817  0.81568756  0.49642075  1
  In  In41  1  0.67049818  0.82032928  0.83969163  1
  In  In42  1  0.66488403  0.17630304  0.43364718  1
  In  In43  1  0.85686087  0.49512975  0.56046645  1
  In  In44  1  0.68182030  0.66681327  0.02790536  1
  In  In45  1  0.28023985  0.19145998  0.81901534  1
  In  In46  1  0.67695088  0.48402451  0.45632320  1
  In  In47  1  0.33908537  0.35069212  0.01014066  1
  In  In48  1  0.28386219  0.01779906  0.66482288  1
  In  In49  1  0.13319728  0.00550717  0.47275448  1
  In  In50  1  0.50493361  0.80130949  0.32895791  1
  In  In51  1  -0.01038227  0.84714867  0.47509659  1
  In  In52  1  0.32017558  0.85869243  0.50432278  1
  In  In53  1  0.50088137  0.33330850  0.84531592  1
  In  In54  1  0.14443747  0.68655732  0.49633554  1
  In  In55  1  0.15010510  0.02384418  0.19340500  1
  In  In56  1  -0.01892817  -0.00544833  0.01357539  1
  In  In57  1  0.30585292  0.30613433  0.63508305  1
  In  In58  1  -0.04191017  0.84718315  0.18905718  1
  In  In59  1  0.32425641  0.68093644  0.66548519  1
  In  In60  1  0.47326902  0.17042078  0.65437499  1
  In  In61  1  0.84839508  0.51203099  0.03207950  1
  In  In62  1  0.32160357  0.82547850  0.17416955  1
  In  In63  1  0.19175722  0.51224701  0.66883462  1
  In  In64  1  0.17157759  0.18034980  0.00322639  1
  In  In65  1  0.52090277  0.66800395  0.16194232  1
  In  In66  1  0.31888762  -0.00685501  0.33963830  1
  In  In67  1  0.62959414  -0.00761319  0.21426771  1
  In  In68  1  0.02949902  0.14021482  0.83097227  1
  In  In69  1  0.33200566  0.86123687  0.83544005  1
  In  In70  1  0.50076922  0.00613915  0.83102841  1
  In  In71  1  0.93160945  0.31296241  0.46492711  1
  Te  Te72  1  0.07421300  0.09428924  0.08146680  1
  Te  Te73  1  0.08904442  0.07809968  0.34818110  1
  Te  Te74  1  0.13398421  0.08868226  0.74274955  1
  Te  Te75  1  0.10835297  0.39651081  0.09124842  1
  Te  Te76  1  0.05683434  0.37938278  0.39341969  1
  Te  Te77  1  0.09835454  0.42498244  0.75191448  1
  Te  Te78  1  0.06411599  0.78167529  0.09552143  1
  Te  Te79  1  0.04734952  0.73535470  0.39654145  1
  Te  Te80  1  0.08224008  0.74355998  0.75510650  1
  Te  Te81  1  0.45576506  0.07883113  0.11833134  1
  Te  Te82  1  0.42040093  0.08429256  0.40767348  1
  Te  Te83  1  0.39538511  0.09222385  0.75800303  1
  Te  Te84  1  0.42903265  0.40720663  0.11055744  1
  Te  Te85  1  0.40912318  0.42457277  0.39255568  1
  Te  Te86  1  0.39365162  0.39001235  0.73437708  1
  Te  Te87  1  0.42563635  0.76159235  0.08562636  1
  Te  Te88  1  0.40448242  0.74586454  0.44262510  1
  Te  Te89  1  0.41681884  0.76395417  0.75194368  1
  Te  Te90  1  0.69700598  0.06133031  0.08224464  1
  Te  Te91  1  0.73705711  0.04673371  0.42541732  1
  Te  Te92  1  0.77822110  0.09244125  0.73985136  1
  Te  Te93  1  0.76676386  0.41886256  0.10947219  1
  Te  Te94  1  0.78628735  0.38966926  0.42334865  1
  Te  Te95  1  0.74355473  0.40544845  0.74509343  1
  Te  Te96  1  0.74617231  0.76404660  0.11896088  1
  Te  Te97  1  0.74035823  0.74205952  0.38695494  1
  Te  Te98  1  0.74978058  0.73239676  0.74533620  1
  Te  Te99  1  0.06581124  0.20210806  0.25215636  1
  Te  Te100  1  0.06733247  0.24539769  0.48258740  1
  Te  Te101  1  0.07464230  0.26357144  0.91971785  1
  Te  Te102  1  0.06724503  0.57142843  0.23304993  1
  Te  Te103  1  0.08497818  0.57307501  0.57834273  1
  Te  Te104  1  0.06426677  0.61585421  0.92846821  1
  Te  Te105  1  0.05618552  0.93401871  0.26359473  1
  Te  Te106  1  0.07475936  0.91481625  0.57368416  1
  Te  Te107  1  0.08019151  0.92895499  0.92062041  1
  Te  Te108  1  0.42667407  0.27656895  0.31264897  1
  Te  Te109  1  0.41729457  0.25861487  0.54646680  1
  Te  Te110  1  0.39266159  0.25086739  0.91043073  1
  Te  Te111  1  0.41265648  0.59542008  0.24971289  1
  Te  Te112  1  0.41941758  0.57597625  0.61045111  1
  Te  Te113  1  0.43111699  0.56313552  0.94247858  1
  Te  Te114  1  0.41625703  0.90520201  0.26168164  1
  Te  Te115  1  0.40266254  0.93410684  0.60500348  1
  Te  Te116  1  0.42929560  0.92362503  0.93658677  1
  Te  Te117  1  0.72459294  0.20046163  0.22929743  1
  Te  Te118  1  0.74492225  0.22255080  0.56331552  1
  Te  Te119  1  0.73916202  0.26251075  0.91699051  1
  Te  Te120  1  0.76076961  0.54188626  0.23650336  1
  Te  Te121  1  0.72917798  0.57229977  0.57067397  1
  Te  Te122  1  0.77037645  0.58737436  0.92135689  1
  Te  Te123  1  0.75178193  0.94523097  0.28804736  1
  Te  Te124  1  0.76212370  0.91249348  0.58557239  1
  Te  Te125  1  0.71485531  0.93424579  0.92306774  1
  Te  Te126  1  0.27412857  0.24082535  0.09843840  1
  Te  Te127  1  0.19928494  0.27615778  0.41198821  1
  Te  Te128  1  0.18646226  0.23069523  0.68716040  1
  Te  Te129  1  0.23337248  0.60318244  0.09676400  1
  Te  Te130  1  0.24179509  0.58798558  0.41981816  1
  Te  Te131  1  0.25097095  0.60382779  0.77476667  1
  Te  Te132  1  0.25537740  0.94420509  0.09252854  1
  Te  Te133  1  0.21997155  0.89727589  0.39925675  1
  Te  Te134  1  0.22435741  0.91755456  0.75307876  1
  Te  Te135  1  0.60608458  0.26861070  0.15088276  1
  Te  Te136  1  0.56604718  0.27854450  0.38768743  1
  Te  Te137  1  0.57958837  0.25393238  0.73463257  1
  Te  Te138  1  0.60695371  0.56604650  0.10263581  1
  Te  Te139  1  0.59278868  0.58697567  0.37974830  1
  Te  Te140  1  0.58315468  0.57740992  0.76706033  1
  Te  Te141  1  0.61201478  0.93562515  0.07928650  1
  Te  Te142  1  0.57279177  0.90258561  0.42067055  1
  Te  Te143  1  0.57924078  0.90637112  0.74900443  1
  Te  Te144  1  0.90504541  0.23438179  0.08809951  1
  Te  Te145  1  0.88295595  0.19699558  0.37893365  1
  Te  Te146  1  0.95226164  0.23670681  0.73859773  1
  Te  Te147  1  0.96266844  0.56367799  0.11728443  1
  Te  Te148  1  0.92469632  0.55959280  0.44265849  1
  Te  Te149  1  0.91004422  0.56466999  0.73924115  1
  Te  Te150  1  0.87488080  0.94170794  0.10363009  1
  Te  Te151  1  0.89137225  0.91821708  0.39127871  1
  Te  Te152  1  0.93877113  0.93701766  0.74970548  1
  Te  Te153  1  0.27061607  0.10246323  0.24715260  1
  Te  Te154  1  0.24336098  0.08780321  0.53770773  1
  Te  Te155  1  0.24538370  0.07886745  0.91983823  1
  Te  Te156  1  0.24628122  0.41515255  0.25871189  1
  Te  Te157  1  0.23468652  0.41580771  0.55890710  1
  Te  Te158  1  0.24672951  0.43190943  0.91896508  1
  Te  Te159  1  0.21766335  0.75581513  0.24872658  1
  Te  Te160  1  0.22885308  0.77066707  0.58995209  1
  Te  Te161  1  0.25598513  0.75837673  0.92317140  1
  Te  Te162  1  0.60972490  0.11755993  0.29914403  1
  Te  Te163  1  0.58198404  0.08246701  0.59604110  1
  Te  Te164  1  0.56591499  0.11291605  0.91700309  1
  Te  Te165  1  0.61584216  0.37228240  0.27275285  1
  Te  Te166  1  0.57314198  0.41813450  0.55400144  1
  Te  Te167  1  0.58450996  0.40358223  0.94143350  1
  Te  Te168  1  0.60943160  0.76538883  0.23121801  1
  Te  Te169  1  0.57793780  0.74724138  0.58255024  1
  Te  Te170  1  0.58283456  0.74229341  0.93529728  1
  Te  Te171  1  0.93523854  0.11206640  0.26056681  1
  Te  Te172  1  0.96787933  0.07252253  0.56840929  1
  Te  Te173  1  0.90539561  0.09639589  0.91944645  1
  Te  Te174  1  0.94532015  0.38360969  0.25260377  1
  Te  Te175  1  0.93257252  0.37729000  0.59881980  1
  Te  Te176  1  0.90715454  0.41344417  0.91050832  1
  Te  Te177  1  0.92718446  0.72715879  0.27188842  1
  Te  Te178  1  0.90449737  0.74736921  0.57987763  1
  Te  Te179  1  0.88928297  0.78226740  0.93499129  1
