# generated using pymatgen
data_In2Te3
_symmetry_space_group_name_H-M   'P 1'
_cell_length_a   18.77020864
_cell_length_b   18.77961816
_cell_length_c   18.77281016
_cell_angle_alpha   89.95554369
_cell_angle_beta   90.09366592
_cell_angle_gamma   90.01226623
_symmetry_Int_Tables_number   1
_chemical_formula_structural   In2Te3
_chemical_formula_sum   'In72 Te108'
_cell_volume   6617.35486615
_cell_formula_units_Z   36
loop_
 _symmetry_equiv_pos_site_id
 _symmetry_equiv_pos_as_xyz
  1  'x, y, z'
loop_
 _atom_site_type_symbol
 _atom_site_label
 _atom_site_symmetry_multiplicity
 _atom_site_fract_x
 _atom_site_fract_y
 _atom_site_fract_z
 _atom_site_occupancy
  In  In0  1  0.18173044  0.13853424  0.65327436  1
  In  In1  1  0.33236190  0.19208958  0.18069238  1
  In  In2  1  0.32887809  0.31894933  0.33846761  1
  In  In3  1  0.65469809  0.34033738  -0.00324883  1
  In  In4  1  0.83331632  0.16884056  0.64722177  1
  In  In5  1  0.67232139  0.82884815  0.15686905  1
  In  In6  1  0.16943925  0.66891019  0.84206189  1
  In  In7  1  0.65735476  0.48064743  0.83527303  1
  In  In8  1  0.35186667  0.17187440  0.83811482  1
  In  In9  1  0.51416610  0.82657453  0.34339248  1
  In  In10  1  0.48432435  0.19654825  0.66391981  1
  In  In11  1  0.83816183  -0.02297089  0.83305113  1
  In  In12  1  0.19251661  0.15655492  0.01436863  1
  In  In13  1  0.34288200  0.00430591  -0.02633656  1
  In  In14  1  0.66525962  -0.02219209  0.66800835  1
  In  In15  1  0.47588658  0.18109318  0.33731474  1
  In  In16  1  0.50882052  0.62998153  0.11855138  1
  In  In17  1  0.51053025  0.66181926  0.84139349  1
  In  In18  1  0.19673800  0.34437144  0.84826155  1
  In  In19  1  0.00196248  -0.02185676  -0.01348994  1
  In  In20  1  0.19022171  0.84201639  0.31565157  1
  In  In21  1  -0.00436933  0.50674051  0.47589833  1
  In  In22  1  0.17877279  0.84656354  0.69315728  1
  In  In23  1  -0.01322351  0.35289665  0.64995159  1
  In  In24  1  0.48633534  0.82112457  -0.01903894  1
  In  In25  1  0.52501199  0.66558557  0.52239593  1
  In  In26  1  -0.00130493  0.66811012  0.33473578  1
  In  In27  1  0.79382261  0.34802805  0.80863254  1
  In  In28  1  0.82480877  0.82133387  -0.00640330  1
  In  In29  1  0.32991936  0.68708283  0.29736817  1
  In  In30  1  0.33259913  0.50271014  0.50827167  1
  In  In31  1  0.00048124  0.82447123  0.52676559  1
  In  In32  1  0.83066308  0.34903966  0.18890290  1
  In  In33  1  0.00664806  0.16044158  0.50583716  1
  In  In34  1  0.16482496  0.17383208  0.36105518  1
  In  In35  1  0.02596876  0.35643467  0.00512470  1
  In  In36  1  -0.00211567  0.34762504  0.33811975  1
  In  In37  1  0.18156569  0.35082391  0.14277104  1
  In  In38  1  0.15978821  0.49619744  0.65284928  1
  In  In39  1  0.82671663  0.68700148  0.80872777  1
  In  In40  1  -0.00335815  0.82822175  0.82686853  1
  In  In41  1  -0.00390974  0.52427409  0.84243803  1
  In  In42  1  0.48707478  -0.00353687  0.53134164  1
  In  In43  1  0.34605519  0.84852521  0.49918903  1
  In  In44  1  0.33343995  0.01507700  0.36955970  1
  In  In45  1  0.63102347  0.16341972  0.81525671  1
  In  In46  1  0.15614244  -0.01852720  0.17404753  1
  In  In47  1  0.02805968  0.16167003  0.80327251  1
  In  In48  1  -0.01734785  0.17868891  0.17685977  1
  In  In49  1  0.81431868  0.65042113  0.52150841  1
  In  In50  1  0.82521165  0.65098643  0.16903565  1
  In  In51  1  0.35672928  0.47158093  0.83136439  1
  In  In52  1  0.68109275  0.01344493  0.33690748  1
  In  In53  1  0.15817486  0.64458024  0.50838717  1
  In  In54  1  0.50020385  -0.00132067  0.17342086  1
  In  In55  1  0.82885688  0.16307619  0.33262866  1
  In  In56  1  0.84697114  0.81628106  0.36428433  1
  In  In57  1  0.33584942  0.81726589  0.16217352  1
  In  In58  1  0.50902039  0.18283563  -0.01069740  1
  In  In59  1  0.15174927  0.49321601  0.32320385  1
  In  In60  1  0.15277608  0.80962555  -0.00449735  1
  In  In61  1  0.67828323  0.35623533  0.34880191  1
  In  In62  1  0.83640022  0.01161311  0.14572381  1
  In  In63  1  0.49959359  0.82902846  0.66114620  1
  In  In64  1  0.83684532  0.51051718  -0.01220577  1
  In  In65  1  0.34630778  0.65633429  0.65364057  1
  In  In66  1  0.66799890  0.17255308  0.47905261  1
  In  In67  1  0.64637210  0.34909923  0.66679737  1
  In  In68  1  0.82076971  0.15027575  0.00876327  1
  In  In69  1  0.66831676  0.82891561  0.54200750  1
  In  In70  1  0.65324075  0.64588519  0.32216397  1
  In  In71  1  0.50762174  0.51437526  0.33361115  1
  Te  Te72  1  0.07225138  0.08791540  0.08413168  1
  Te  Te73  1  0.07142785  0.07076665  0.40590657  1
  Te  Te74  1  0.08511565  0.04933289  0.72556536  1
  Te  Te75  1  0.09713056  0.46154741  0.08437642  1
  Te  Te76  1  0.10219492  0.40433460  0.43684069  1
  Te  Te77  1  0.08440375  0.41265495  0.76400051  1
  Te  Te78  1  0.08974210  0.73924741  0.10568123  1
  Te  Te79  1  0.09992371  0.75152093  0.41380154  1
  Te  Te80  1  0.08210336  0.73656878  0.73757521  1
  Te  Te81  1  0.40596486  0.08644389  0.08995864  1
  Te  Te82  1  0.40455619  0.11419873  0.46386910  1
  Te  Te83  1  0.43555850  0.08699048  0.75008314  1
  Te  Te84  1  0.37968674  0.47422783  0.05030229  1
  Te  Te85  1  0.41961466  0.41959352  0.41471782  1
  Te  Te86  1  0.42225102  0.37860638  0.73261374  1
  Te  Te87  1  0.39783327  0.72339455  0.06084778  1
  Te  Te88  1  0.41775914  0.72721054  0.42690829  1
  Te  Te89  1  0.41076425  0.74596268  0.75547389  1
  Te  Te90  1  0.71955237  0.08022948  0.08938535  1
  Te  Te91  1  0.77567269  0.06970555  0.44250483  1
  Te  Te92  1  0.75293871  0.09082233  0.75447170  1
  Te  Te93  1  0.74860859  0.42723780  0.08211041  1
  Te  Te94  1  0.78867283  0.40110896  0.43336779  1
  Te  Te95  1  0.76485430  0.46166974  0.71297440  1
  Te  Te96  1  0.73240300  0.72264255  0.06814107  1
  Te  Te97  1  0.71974563  0.74908267  0.41864853  1
  Te  Te98  1  0.74241407  0.77026632  0.71859663  1
  Te  Te99  1  0.09523437  0.25974081  0.24184651  1
  Te  Te100  1  0.08727360  0.25338540  0.59700858  1
  Te  Te101  1  0.09362690  0.24490316  0.92294660  1
  Te  Te102  1  0.07309385  0.58348816  0.23719687  1
  Te  Te103  1  0.04876468  0.58664986  0.59586230  1
  Te  Te104  1  0.08557561  0.59183527  0.93801289  1
  Te  Te105  1  0.06746790  0.90503628  0.26210718  1
  Te  Te106  1  0.09565882  0.91953602  0.59382251  1
  Te  Te107  1  0.10412345  0.91557331  0.89506314  1
  Te  Te108  1  0.43971676  0.28695089  0.23126957  1
  Te  Te109  1  0.41078817  0.30544846  0.59651320  1
  Te  Te110  1  0.40706450  0.27454931  0.93062276  1
  Te  Te111  1  0.41428930  0.57894460  0.23073966  1
  Te  Te112  1  0.44534797  0.55446746  0.60110575  1
  Te  Te113  1  0.41713076  0.57402685  0.92561314  1
  Te  Te114  1  0.40361027  0.91731895  0.26613742  1
  Te  Te115  1  0.37965577  0.93288063  0.62698276  1
  Te  Te116  1  0.40744144  0.90549937  0.88259029  1
  Te  Te117  1  0.73691590  0.24487309  0.24623336  1
  Te  Te118  1  0.74130836  0.26736266  0.57696429  1
  Te  Te119  1  0.74139736  0.24198257  0.91065925  1
  Te  Te120  1  0.74474039  0.55503978  0.25166479  1
  Te  Te121  1  0.72461385  0.54942245  0.58706509  1
  Te  Te122  1  0.74380562  0.59023670  0.89804084  1
  Te  Te123  1  0.75676092  0.90790709  0.25653136  1
  Te  Te124  1  0.77585217  0.91799679  0.58991674  1
  Te  Te125  1  0.73919511  0.91887091  0.92376858  1
  Te  Te126  1  0.28319473  0.27228863  0.05731081  1
  Te  Te127  1  0.25086731  0.25649211  0.44737198  1
  Te  Te128  1  0.24964787  0.24318068  0.74840703  1
  Te  Te129  1  0.25381897  0.53550465  0.08584765  1
  Te  Te130  1  0.25468027  0.58910815  0.40197227  1
  Te  Te131  1  0.25717310  0.57116038  0.74712267  1
  Te  Te132  1  0.25769566  0.91983477  0.07755056  1
  Te  Te133  1  0.22941373  0.92809021  0.43756680  1
  Te  Te134  1  0.28951538  0.92335868  0.75353390  1
  Te  Te135  1  0.58081616  0.25770339  0.09470436  1
  Te  Te136  1  0.56692347  0.26987076  0.42283109  1
  Te  Te137  1  0.55842916  0.29237404  0.77789275  1
  Te  Te138  1  0.60172198  0.53473427  0.05508286  1
  Te  Te139  1  0.61094272  0.55748396  0.44570326  1
  Te  Te140  1  0.56972081  0.56262126  0.74758271  1
  Te  Te141  1  0.57455517  0.91272804  0.07454030  1
  Te  Te142  1  0.58595523  0.93221753  0.43088654  1
  Te  Te143  1  0.57919768  0.90385439  0.76080431  1
  Te  Te144  1  0.90666349  0.26289765  0.07424695  1
  Te  Te145  1  0.91350918  0.25255621  0.42203433  1
  Te  Te146  1  0.91548120  0.25561885  0.75343387  1
  Te  Te147  1  0.92373675  0.59172313  0.07498248  1
  Te  Te148  1  0.88779731  0.58690680  0.40260556  1
  Te  Te149  1  0.90873867  0.58249160  0.73884753  1
  Te  Te150  1  0.92148444  0.89904315  0.08695153  1
  Te  Te151  1  0.92663840  0.91657825  0.43522087  1
  Te  Te152  1  0.91877270  0.91017818  0.73101727  1
  Te  Te153  1  0.25028465  0.08448513  0.25371428  1
  Te  Te154  1  0.27273761  0.08744293  0.54984408  1
  Te  Te155  1  0.23503863  0.07731735  0.89372595  1
  Te  Te156  1  0.26574264  0.42496279  0.24739003  1
  Te  Te157  1  0.26018616  0.40344990  0.59401324  1
  Te  Te158  1  0.24551489  0.45560839  0.93911195  1
  Te  Te159  1  0.21120262  0.72737258  0.20268234  1
  Te  Te160  1  0.24932294  0.74777532  0.57853442  1
  Te  Te161  1  0.26528395  0.74865589  0.92172643  1
  Te  Te162  1  0.57908942  0.09698283  0.25919863  1
  Te  Te163  1  0.59340544  0.09747103  0.59100304  1
  Te  Te164  1  0.56714813  0.07218626  0.91094073  1
  Te  Te165  1  0.59736494  0.43134285  0.24890417  1
  Te  Te166  1  0.59717595  0.44668783  0.56669348  1
  Te  Te167  1  0.55393084  0.43856993  0.94102860  1
  Te  Te168  1  0.56411629  0.73893651  0.22514833  1
  Te  Te169  1  0.61729164  0.71873397  0.63881957  1
  Te  Te170  1  0.60090432  0.74748281  0.92225548  1
  Te  Te171  1  0.92284043  0.06656626  0.25985627  1
  Te  Te172  1  0.93552438  0.07326652  0.60377834  1
  Te  Te173  1  0.92714156  0.08984544  0.91211233  1
  Te  Te174  1  0.93672660  0.43821882  0.23899681  1
  Te  Te175  1  0.89466921  0.41763513  0.54994877  1
  Te  Te176  1  0.91029652  0.40189593  0.90466497  1
  Te  Te177  1  0.91340003  0.75535698  0.24182047  1
  Te  Te178  1  0.89696539  0.74450249  0.60017107  1
  Te  Te179  1  0.92577117  0.73348030  0.92139996  1
