# generated using pymatgen
data_In2Te3
_symmetry_space_group_name_H-M   'P 1'
_cell_length_a   18.93117258
_cell_length_b   18.88645326
_cell_length_c   18.91841952
_cell_angle_alpha   89.96960431
_cell_angle_beta   90.18214659
_cell_angle_gamma   89.95489034
_symmetry_Int_Tables_number   1
_chemical_formula_structural   In2Te3
_chemical_formula_sum   'In72 Te108'
_cell_volume   6764.10566921
_cell_formula_units_Z   36
loop_
 _symmetry_equiv_pos_site_id
 _symmetry_equiv_pos_as_xyz
  1  'x, y, z'
loop_
 _atom_site_type_symbol
 _atom_site_label
 _atom_site_symmetry_multiplicity
 _atom_site_fract_x
 _atom_site_fract_y
 _atom_site_fract_z
 _atom_site_occupancy
  In  In0  1  0.33195293  0.49045573  0.16725001  1
  In  In1  1  0.32987998  -0.01220477  -0.00605991  1
  In  In2  1  0.66859715  0.00509836  0.34416408  1
  In  In3  1  -0.01597089  0.84468595  0.49100018  1
  In  In4  1  0.18286982  0.15625525  0.67316307  1
  In  In5  1  0.66810610  0.34933544  -0.03103269  1
  In  In6  1  0.82519804  0.49251501  0.01357972  1
  In  In7  1  0.30428560  0.30768522  0.32400725  1
  In  In8  1  0.34159377  0.83499525  0.15707115  1
  In  In9  1  0.14623265  0.65706627  0.20578132  1
  In  In10  1  0.67699518  0.51495860  0.48622023  1
  In  In11  1  0.00269630  0.18222432  0.79170924  1
  In  In12  1  0.35688452  0.49304807  0.79511394  1
  In  In13  1  0.38451847  0.16746282  0.79004693  1
  In  In14  1  0.18044829  0.02247853  0.50977089  1
  In  In15  1  0.64168888  0.52078460  0.80756088  1
  In  In16  1  0.77643839  0.79858995  0.60153679  1
  In  In17  1  0.32561396  0.63675481  -0.03010436  1
  In  In18  1  0.35555204  0.19496530  0.50977432  1
  In  In19  1  0.34525086  0.61741770  0.64284331  1
  In  In20  1  0.19669007  -0.02314898  0.84389711  1
  In  In21  1  0.32810305  0.14421863  0.15816329  1
  In  In22  1  0.36261265  0.69351026  0.36192862  1
  In  In23  1  0.65178099  0.15362911  0.51202602  1
  In  In24  1  -0.00000546  0.18238155  0.49410487  1
  In  In25  1  0.66936491  0.66606829  0.01347811  1
  In  In26  1  0.68221800  0.18507235  0.16221381  1
  In  In27  1  0.32189148  0.01396027  0.33482012  1
  In  In28  1  0.82146059  0.17351799  -0.00223959  1
  In  In29  1  0.37605876  0.82334922  0.81703663  1
  In  In30  1  0.83515067  0.67160647  0.80574802  1
  In  In31  1  0.14080738  0.51688870  0.34772781  1
  In  In32  1  -0.01934506  0.62907947  0.01012219  1
  In  In33  1  0.52662239  0.79611367  0.64283924  1
  In  In34  1  -0.00792852  -0.02093394  0.66132680  1
  In  In35  1  0.34423967  0.30945606  -0.02862952  1
  In  In36  1  -0.02119379  0.36830105  0.35117753  1
  In  In37  1  0.80983386  0.18477134  0.65188041  1
  In  In38  1  -0.01493153  0.34537697  0.65185667  1
  In  In39  1  0.65579907  0.02552920  -0.01815813  1
  In  In40  1  0.67087096  0.84453412  0.82776184  1
  In  In41  1  -0.03940715  0.61563797  0.60391450  1
  In  In42  1  0.64904505  0.34230795  0.69388334  1
  In  In43  1  0.52211342  0.34931445  0.12834302  1
  In  In44  1  0.67140680  0.50863246  0.17208237  1
  In  In45  1  0.49119642  -0.00139008  0.15880111  1
  In  In46  1  0.80364968  0.83774369  0.36634062  1
  In  In47  1  0.48185843  0.53018479  0.39541827  1
  In  In48  1  0.81892323  0.03173722  0.83203241  1
  In  In49  1  0.50841380  0.35350241  0.50164856  1
  In  In50  1  0.82036593  -0.01426856  0.49376328  1
  In  In51  1  0.67986780  0.34267372  0.31652769  1
  In  In52  1  0.55907678  -0.03362721  0.53231900  1
  In  In53  1  0.47610138  0.18282966  0.32130407  1
  In  In54  1  0.16043391  0.33595147  0.80147816  1
  In  In55  1  -0.02050209  0.00054703  0.02457819  1
  In  In56  1  0.82827159  0.81107031  0.02845592  1
  In  In57  1  0.19109646  0.82384522  0.69040017  1
  In  In58  1  0.01789472  0.83778586  0.83748314  1
  In  In59  1  0.16107786  0.84431265  0.35362095  1
  In  In60  1  -0.03713119  0.63671754  0.37940369  1
  In  In61  1  -0.04646292  0.15790809  0.20057591  1
  In  In62  1  0.16910720  0.64810220  0.52126287  1
  In  In63  1  0.16122889  0.48159043  -0.00046997  1
  In  In64  1  -0.00696443  0.32894592  -0.01458445  1
  In  In65  1  0.54511614  0.66601911  0.21902941  1
  In  In66  1  0.12809628  0.31856040  0.16874075  1
  In  In67  1  0.18608255  0.82260481  0.04200199  1
  In  In68  1  0.00293978  0.81793963  0.20518931  1
  In  In69  1  0.16713708  0.14117426  0.00627050  1
  In  In70  1  0.19870745  0.65701017  0.83586827  1
  In  In71  1  0.50877983  0.82105696  0.01735685  1
  Te  Te72  1  0.06558069  0.09581270  0.10655683  1
  Te  Te73  1  0.07337419  0.07459643  0.42529198  1
  Te  Te74  1  0.09547285  0.05372675  0.75348865  1
  Te  Te75  1  0.05398542  0.42598874  0.09031712  1
  Te  Te76  1  0.08630256  0.41924829  0.44293342  1
  Te  Te77  1  0.05179122  0.42306151  0.75926801  1
  Te  Te78  1  0.06726881  0.73800827  0.08572419  1
  Te  Te79  1  0.07909737  0.73371080  0.42226582  1
  Te  Te80  1  0.08770268  0.73236602  0.75360806  1
  Te  Te81  1  0.42656556  0.09221705  0.05688354  1
  Te  Te82  1  0.42538287  0.08456980  0.42215728  1
  Te  Te83  1  0.47775167  0.05698009  0.75608825  1
  Te  Te84  1  0.40977134  0.42431455  0.05657463  1
  Te  Te85  1  0.40032324  0.39794200  0.39972142  1
  Te  Te86  1  0.43374104  0.39955325  0.71044060  1
  Te  Te87  1  0.40364533  0.72725123  0.07165781  1
  Te  Te88  1  0.44408066  0.75677542  0.47276181  1
  Te  Te89  1  0.43142791  0.71156095  0.73512639  1
  Te  Te90  1  0.75573935  0.07285476  0.08920717  1
  Te  Te91  1  0.75997801  0.10387131  0.41578744  1
  Te  Te92  1  0.73832634  0.07162586  0.71683705  1
  Te  Te93  1  0.74112982  0.39733768  0.09519254  1
  Te  Te94  1  0.76157871  0.44582515  0.38319814  1
  Te  Te95  1  0.74650895  0.44116460  0.74240642  1
  Te  Te96  1  0.73303208  0.74602390  0.12294451  1
  Te  Te97  1  0.76913949  0.73098936  0.46576050  1
  Te  Te98  1  0.71417965  0.72597820  0.72697536  1
  Te  Te99  1  0.05054386  0.24992563  0.27601947  1
  Te  Te100  1  0.09305666  0.24995437  0.59444587  1
  Te  Te101  1  0.09963195  0.24224687  0.91172907  1
  Te  Te102  1  0.02529715  0.56747602  0.25007484  1
  Te  Te103  1  0.08416098  0.53678107  0.56948939  1
  Te  Te104  1  0.08511742  0.58127617  0.91247824  1
  Te  Te105  1  0.09403023  0.92356650  0.25072742  1
  Te  Te106  1  0.10051161  0.90214375  0.58762945  1
  Te  Te107  1  0.08854871  0.92355837  0.94503201  1
  Te  Te108  1  0.41261798  0.26705816  0.21164798  1
  Te  Te109  1  0.44972721  0.26276081  0.60495531  1
  Te  Te110  1  0.44968438  0.26343196  0.88157553  1
  Te  Te111  1  0.41195213  0.58818257  0.25401866  1
  Te  Te112  1  0.44715283  0.57088199  0.53772963  1
  Te  Te113  1  0.43268682  0.57771876  0.89056543  1
  Te  Te114  1  0.41611401  0.91653498  0.26166810  1
  Te  Te115  1  0.43444867  0.89369720  0.57287368  1
  Te  Te116  1  0.43977151  0.91713271  0.91966514  1
  Te  Te117  1  0.77633480  0.25005655  0.25377555  1
  Te  Te118  1  0.71993305  0.27548106  0.57126657  1
  Te  Te119  1  0.74749817  0.24740915  0.89112240  1
  Te  Te120  1  0.76259259  0.61389995  0.22049029  1
  Te  Te121  1  0.77769729  0.59790094  0.56222966  1
  Te  Te122  1  0.75630024  0.59315799  0.91321761  1
  Te  Te123  1  0.73278112  0.90594487  0.25495708  1
  Te  Te124  1  0.70842001  0.93067478  0.57809668  1
  Te  Te125  1  0.76272864  0.91628503  0.92954236  1
  Te  Te126  1  0.23956477  0.26214665  0.07989370  1
  Te  Te127  1  0.23724907  0.24276734  0.43566123  1
  Te  Te128  1  0.27253365  0.26315115  0.73344930  1
  Te  Te129  1  0.23289866  0.58862633  0.08950338  1
  Te  Te130  1  0.25709220  0.59010578  0.41187382  1
  Te  Te131  1  0.23116720  0.55515636  0.73254579  1
  Te  Te132  1  0.24407376  0.94574865  0.11108234  1
  Te  Te133  1  0.26491750  0.91531152  0.43690298  1
  Te  Te134  1  0.29339484  0.92567588  0.73885383  1
  Te  Te135  1  0.59124720  0.23899823  0.05327228  1
  Te  Te136  1  0.58229557  0.25247062  0.40549549  1
  Te  Te137  1  0.62567009  0.22619143  0.78600312  1
  Te  Te138  1  0.56665281  0.58526022  0.09069915  1
  Te  Te139  1  0.60604424  0.61290539  0.39163658  1
  Te  Te140  1  0.59399299  0.62967190  0.71972274  1
  Te  Te141  1  0.59870865  0.92269716  0.08364093  1
  Te  Te142  1  0.58416667  0.89344714  0.40116988  1
  Te  Te143  1  0.56364628  0.90457881  0.74456180  1
  Te  Te144  1  0.90861690  0.25671321  0.08878777  1
  Te  Te145  1  0.89786320  0.27944586  0.44376999  1
  Te  Te146  1  0.88926076  0.27012445  0.74953105  1
  Te  Te147  1  0.87486055  0.59797750  0.11099138  1
  Te  Te148  1  0.89363561  0.53877451  0.47355910  1
  Te  Te149  1  0.90336708  0.56486867  0.73118670  1
  Te  Te150  1  0.90805499  0.90640796  0.11759513  1
  Te  Te151  1  0.92621460  0.94311787  0.38726603  1
  Te  Te152  1  0.90618408  0.91645265  0.76762196  1
  Te  Te153  1  0.23904357  0.11816281  0.27033762  1
  Te  Te154  1  0.28922771  0.08196570  0.59682452  1
  Te  Te155  1  0.27219076  0.09925947  0.89775517  1
  Te  Te156  1  0.21961983  0.42340977  0.24603497  1
  Te  Te157  1  0.34678116  0.46478111  0.60506238  1
  Te  Te158  1  0.25656561  0.41717807  0.90076030  1
  Te  Te159  1  0.25266782  0.75423315  0.25711743  1
  Te  Te160  1  0.26577612  0.74245826  0.58850324  1
  Te  Te161  1  0.25859166  0.77696363  0.91505739  1
  Te  Te162  1  0.57664394  0.09523263  0.24433224  1
  Te  Te163  1  0.54991277  0.09774924  0.60452167  1
  Te  Te164  1  0.59695777  0.09104077  0.86203319  1
  Te  Te165  1  0.56758403  0.42314962  0.25232434  1
  Te  Te166  1  0.59069256  0.44626559  0.58979255  1
  Te  Te167  1  0.56869037  0.43613045  0.90424831  1
  Te  Te168  1  0.58450574  0.79143472  0.28158807  1
  Te  Te169  1  0.57290949  0.70563672  0.53053580  1
  Te  Te170  1  0.58781580  0.74669335  0.91200623  1
  Te  Te171  1  0.89209354  0.06382003  0.29206774  1
  Te  Te172  1  0.91245364  0.08212067  0.58569440  1
  Te  Te173  1  0.93434869  0.09688987  0.91345216  1
  Te  Te174  1  0.91264110  0.46212814  0.26010590  1
  Te  Te175  1  0.89437158  0.40089177  0.54935945  1
  Te  Te176  1  0.90921400  0.42504964  0.91368474  1
  Te  Te177  1  0.90112934  0.74388993  0.28813772  1
  Te  Te178  1  0.92616737  0.76720491  0.60638835  1
  Te  Te179  1  0.91935949  0.74803249  0.92094695  1
