# generated using pymatgen
data_In2Te3
_symmetry_space_group_name_H-M   'P 1'
_cell_length_a   18.97380535
_cell_length_b   18.96691670
_cell_length_c   18.98473129
_cell_angle_alpha   89.77695465
_cell_angle_beta   89.82310172
_cell_angle_gamma   90.11479990
_symmetry_Int_Tables_number   1
_chemical_formula_structural   In2Te3
_chemical_formula_sum   'In72 Te108'
_cell_volume   6832.02409675
_cell_formula_units_Z   36
loop_
 _symmetry_equiv_pos_site_id
 _symmetry_equiv_pos_as_xyz
  1  'x, y, z'
loop_
 _atom_site_type_symbol
 _atom_site_label
 _atom_site_symmetry_multiplicity
 _atom_site_fract_x
 _atom_site_fract_y
 _atom_site_fract_z
 _atom_site_occupancy
  In  In0  1  0.31211178  0.15964777  0.17033092  1
  In  In1  1  0.16080267  0.15650003  0.31490906  1
  In  In2  1  0.65949819  0.33566856  0.68628592  1
  In  In3  1  0.67247418  0.70621018  0.02632641  1
  In  In4  1  0.86789096  0.14329097  0.67990725  1
  In  In5  1  0.50015978  0.87078175  -0.01717891  1
  In  In6  1  0.68031917  0.01463174  0.65302212  1
  In  In7  1  0.29035086  0.17058411  0.83311394  1
  In  In8  1  0.66715378  0.52617926  0.83548504  1
  In  In9  1  0.84208872  0.49329770  -0.01738034  1
  In  In10  1  0.30017500  0.30154623  0.66731577  1
  In  In11  1  0.31851623  0.47452335  0.47744054  1
  In  In12  1  0.29252301  0.00976319  -0.01972460  1
  In  In13  1  0.86680485  0.84534374  0.30626129  1
  In  In14  1  0.02696238  0.84543642  0.16314826  1
  In  In15  1  0.07271843  0.03255685  -0.04536215  1
  In  In16  1  0.03046041  0.48196003  0.81814081  1
  In  In17  1  0.48960444  0.16478471  0.35864158  1
  In  In18  1  0.46611256  0.53181062  0.36764251  1
  In  In19  1  0.68598963  0.15316889  0.52451272  1
  In  In20  1  0.65061226  0.16848386  0.14660050  1
  In  In21  1  0.46652816  0.15847536  -0.02809950  1
  In  In22  1  0.14272975  0.31067765  0.50408580  1
  In  In23  1  0.68885471  0.65595367  0.34349043  1
  In  In24  1  0.16957552  0.32010467  0.16619848  1
  In  In25  1  0.81301235  0.49637777  0.31492497  1
  In  In26  1  0.16596525  0.51390533  0.00907926  1
  In  In27  1  0.67766525  0.70366654  0.67287891  1
  In  In28  1  0.49947262  0.82371258  0.68229776  1
  In  In29  1  0.67658735  0.47936776  0.51481053  1
  In  In30  1  0.00454619  0.51252372  0.15417798  1
  In  In31  1  0.49725403  0.85812095  0.32654114  1
  In  In32  1  0.66396413  0.35020156  0.00208229  1
  In  In33  1  0.85976398  0.51789187  0.64795025  1
  In  In34  1  0.17870472  -0.01459698  0.51427523  1
  In  In35  1  0.69733164  0.30377027  0.33808336  1
  In  In36  1  0.49102881  0.49871834  0.67510383  1
  In  In37  1  0.01974750  0.00198407  0.34196278  1
  In  In38  1  0.30577448  0.71125570  0.69860572  1
  In  In39  1  0.68328275  0.82877225  0.17784651  1
  In  In40  1  0.48938291  0.02130932  0.82595866  1
  In  In41  1  0.64027791  0.53034624  0.17941655  1
  In  In42  1  0.33255226  0.83046223  0.15769585  1
  In  In43  1  0.68005018  0.04603103  0.34309362  1
  In  In44  1  0.32313747  0.34752555  0.30583860  1
  In  In45  1  0.85979334  0.33201156  0.13570814  1
  In  In46  1  0.48904080  0.31959811  0.83722314  1
  In  In47  1  0.88367069  0.29135346  0.50942536  1
  In  In48  1  0.36649253  0.51591804  0.01619671  1
  In  In49  1  0.14040915  0.15241664  0.66556337  1
  In  In50  1  0.31060901  0.15691890  0.51156245  1
  In  In51  1  0.28355063  0.49013877  0.83245178  1
  In  In52  1  0.00875089  0.71507559  -0.00979451  1
  In  In53  1  0.67598773  0.18121990  0.85258732  1
  In  In54  1  0.32961595  0.66746656  0.33126512  1
  In  In55  1  0.47979983  -0.01801049  0.49810704  1
  In  In56  1  0.87478795  0.14309847  -0.00542917  1
  In  In57  1  0.01743385  0.65894973  0.33054505  1
  In  In58  1  0.68771673  -0.02946799  0.01067981  1
  In  In59  1  0.17676457  0.69508402  0.83478619  1
  In  In60  1  0.03327283  0.81127998  0.50289875  1
  In  In61  1  0.85945318  0.86658398  0.68784732  1
  In  In62  1  0.48426015  0.68508773  0.54770523  1
  In  In63  1  0.49908747  0.37015991  0.17554213  1
  In  In64  1  0.84945131  0.69224855  0.47942096  1
  In  In65  1  0.85877027  0.32692829  0.81829998  1
  In  In66  1  0.01119097  0.64322113  0.68144831  1
  In  In67  1  0.48300598  0.68146877  0.16122051  1
  In  In68  1  0.32195661  0.82192941  0.51991965  1
  In  In69  1  0.69756685  0.84784651  0.83664818  1
  In  In70  1  0.88434339  -0.00004667  0.16551193  1
  In  In71  1  0.01096143  0.48091057  0.50779230  1
  Te  Te72  1  0.11031843  0.09669889  0.08717331  1
  Te  Te73  1  0.09551195  0.08885150  0.44040264  1
  Te  Te74  1  0.05488732  0.03578772  0.70550883  1
  Te  Te75  1  0.07870626  0.40627460  0.07686042  1
  Te  Te76  1  0.07141240  0.39454265  0.40778502  1
  Te  Te77  1  0.08814190  0.38968054  0.72254902  1
  Te  Te78  1  0.09733207  0.72954625  0.10545460  1
  Te  Te79  1  0.10444222  0.76413485  0.38461845  1
  Te  Te80  1  0.05716888  0.75847400  0.76365151  1
  Te  Te81  1  0.39937146  0.07440584  0.07499628  1
  Te  Te82  1  0.38792529  0.06716332  0.41265966  1
  Te  Te83  1  0.40316512  0.11506456  0.75433673  1
  Te  Te84  1  0.38743550  0.38596714  0.08334128  1
  Te  Te85  1  0.42686519  0.39281521  0.40875623  1
  Te  Te86  1  0.39766797  0.40117576  0.74596806  1
  Te  Te87  1  0.41913897  0.76006955  0.04958569  1
  Te  Te88  1  0.43174225  0.75196196  0.42240632  1
  Te  Te89  1  0.41702417  0.75362441  0.78133926  1
  Te  Te90  1  0.76233510  0.07982175  0.08472711  1
  Te  Te91  1  0.79483002  0.09519754  0.43314596  1
  Te  Te92  1  0.75379462  0.08571545  0.76574650  1
  Te  Te93  1  0.74277317  0.43570997  0.09709468  1
  Te  Te94  1  0.77620153  0.39931197  0.43442872  1
  Te  Te95  1  0.75530591  0.42883718  0.75780834  1
  Te  Te96  1  0.78762150  0.78662853  0.07939303  1
  Te  Te97  1  0.75686635  0.77780462  0.39948296  1
  Te  Te98  1  0.78728679  0.75011551  0.76331305  1
  Te  Te99  1  0.07148883  0.25433092  0.25411052  1
  Te  Te100  1  0.04979417  0.21180254  0.56426018  1
  Te  Te101  1  0.08884582  0.18840034  0.97047298  1
  Te  Te102  1  0.10047768  0.56558056  0.25214890  1
  Te  Te103  1  0.08402982  0.59407034  0.56471036  1
  Te  Te104  1  0.07889948  0.59490639  0.91156521  1
  Te  Te105  1  0.11150483  0.93261307  0.24932642  1
  Te  Te106  1  0.07402731  0.91775097  0.59943505  1
  Te  Te107  1  0.10305228  0.88532134  0.90810771  1
  Te  Te108  1  0.42374261  0.24240601  0.24367137  1
  Te  Te109  1  0.40281516  0.24806034  0.57793047  1
  Te  Te110  1  0.37325121  0.26495204  0.91978905  1
  Te  Te111  1  0.40910912  0.56945641  0.23624586  1
  Te  Te112  1  0.39667444  0.56783700  0.57838721  1
  Te  Te113  1  0.39661535  0.57023478  0.88445016  1
  Te  Te114  1  0.41099961  0.92898102  0.23491186  1
  Te  Te115  1  0.40218110  0.91422724  0.61065198  1
  Te  Te116  1  0.39283074  0.92726658  0.89188498  1
  Te  Te117  1  0.76239306  0.24190211  0.21752423  1
  Te  Te118  1  0.76360264  0.25720265  0.60856847  1
  Te  Te119  1  0.77064944  0.26054143  0.94086801  1
  Te  Te120  1  0.76519294  0.60802251  0.22288093  1
  Te  Te121  1  0.74784685  0.59726860  0.58060851  1
  Te  Te122  1  0.74724337  0.60347047  0.93505464  1
  Te  Te123  1  0.75877799  0.94602361  0.25133324  1
  Te  Te124  1  0.77439716  0.92509092  0.58084072  1
  Te  Te125  1  0.79488138  0.92354323  0.91936792  1
  Te  Te126  1  0.21950507  0.21084611  0.06138236  1
  Te  Te127  1  0.25349872  0.25075152  0.40094344  1
  Te  Te128  1  0.18208487  0.27096864  0.76207798  1
  Te  Te129  1  0.26324691  0.60763671  0.06430454  1
  Te  Te130  1  0.24313740  0.58244733  0.41505762  1
  Te  Te131  1  0.22643096  0.58524479  0.73190683  1
  Te  Te132  1  0.23440323  0.89977993  0.06250574  1
  Te  Te133  1  0.25536584  0.90437671  0.42010943  1
  Te  Te134  1  0.19114979  0.84465213  0.78656724  1
  Te  Te135  1  0.56055205  0.25480009  0.06026941  1
  Te  Te136  1  0.59740900  0.24114629  0.43367464  1
  Te  Te137  1  0.57340957  0.22794761  0.75057640  1
  Te  Te138  1  0.56750638  0.59508415  0.06621174  1
  Te  Te139  1  0.59180362  0.58148332  0.43589082  1
  Te  Te140  1  0.58086775  0.60461722  0.73914788  1
  Te  Te141  1  0.58206462  0.91648408  0.10421577  1
  Te  Te142  1  0.59626518  0.93595063  0.41153740  1
  Te  Te143  1  0.59348920  0.92668364  0.75336444  1
  Te  Te144  1  0.95328012  0.23080947  0.08275868  1
  Te  Te145  1  0.89578125  0.21187586  0.38884904  1
  Te  Te146  1  0.95032370  0.22613434  0.76832767  1
  Te  Te147  1  0.92496554  0.59406250  0.05486246  1
  Te  Te148  1  0.90665658  0.57202164  0.41247032  1
  Te  Te149  1  0.91279929  0.57489879  0.77559327  1
  Te  Te150  1  0.97150515  0.94202738  0.06249454  1
  Te  Te151  1  0.93681138  0.90433284  0.42356999  1
  Te  Te152  1  0.94234209  0.95171001  0.77464805  1
  Te  Te153  1  0.23503848  0.05216747  0.23947672  1
  Te  Te154  1  0.25575688  0.06573997  0.61954082  1
  Te  Te155  1  0.20752361  0.05061614  0.86255757  1
  Te  Te156  1  0.22980647  0.43596775  0.23842886  1
  Te  Te157  1  0.23045992  0.40602579  0.58178626  1
  Te  Te158  1  0.20832977  0.40119174  0.92237464  1
  Te  Te159  1  0.24472931  0.74829923  0.24394453  1
  Te  Te160  1  0.21752338  0.74343965  0.58758294  1
  Te  Te161  1  0.22120066  0.79327474  0.94280538  1
  Te  Te162  1  0.57036762  0.09000495  0.24812579  1
  Te  Te163  1  0.56293338  0.07883646  0.58157116  1
  Te  Te164  1  0.59405947  0.07444733  0.93232630  1
  Te  Te165  1  0.60704390  0.41239284  0.27044127  1
  Te  Te166  1  0.56774010  0.40122566  0.58534962  1
  Te  Te167  1  0.57530419  0.42536360  0.90576823  1
  Te  Te168  1  0.58285561  0.73797831  0.26049675  1
  Te  Te169  1  0.59839086  0.78184427  0.57047564  1
  Te  Te170  1  0.59269490  0.77008907  0.91366257  1
  Te  Te171  1  0.93166907  0.09671320  0.26601753  1
  Te  Te172  1  0.87693524  0.05633599  0.56301246  1
  Te  Te173  1  0.94015230  0.06688629  0.88563092  1
  Te  Te174  1  0.91940563  0.41695850  0.24562668  1
  Te  Te175  1  0.93907507  0.39619470  0.61225585  1
  Te  Te176  1  0.94371648  0.40087192  0.91891509  1
  Te  Te177  1  0.93344758  0.73655500  0.23064717  1
  Te  Te178  1  0.91994865  0.74844104  0.59726895  1
  Te  Te179  1  0.88837615  0.79126985  0.95274795  1
