# generated using pymatgen
data_In2Te3
_symmetry_space_group_name_H-M   'P 1'
_cell_length_a   18.99555928
_cell_length_b   19.00318600
_cell_length_c   18.97506560
_cell_angle_alpha   89.93271989
_cell_angle_beta   90.04935597
_cell_angle_gamma   89.97736815
_symmetry_Int_Tables_number   1
_chemical_formula_structural   In2Te3
_chemical_formula_sum   'In72 Te108'
_cell_volume   6849.53825395
_cell_formula_units_Z   36
loop_
 _symmetry_equiv_pos_site_id
 _symmetry_equiv_pos_as_xyz
  1  'x, y, z'
loop_
 _atom_site_type_symbol
 _atom_site_label
 _atom_site_symmetry_multiplicity
 _atom_site_fract_x
 _atom_site_fract_y
 _atom_site_fract_z
 _atom_site_occupancy
  In  In0  1  -0.01080917  0.02965916  0.34729448  1
  In  In1  1  -0.00222213  -0.00315020  0.01140036  1
  In  In2  1  0.67418987  -0.03717502  -0.03239628  1
  In  In3  1  0.01231812  0.65774813  -0.00079034  1
  In  In4  1  0.34670326  0.00042537  0.66273779  1
  In  In5  1  0.19319692  0.48067374  0.35793520  1
  In  In6  1  0.63631385  0.49105661  0.52071160  1
  In  In7  1  0.83324378  0.51241576  0.01673897  1
  In  In8  1  0.65808880  0.68168306  0.67072427  1
  In  In9  1  0.70051125  0.67516444  0.34684837  1
  In  In10  1  0.50630258  0.64087838  0.16464263  1
  In  In11  1  0.34254769  0.32689451  0.01682134  1
  In  In12  1  0.16125517  0.04152722  0.16301614  1
  In  In13  1  -0.00228980  0.52399731  0.82403657  1
  In  In14  1  0.84457082  0.14952641  0.00673420  1
  In  In15  1  0.51060367  0.33452895  0.83624622  1
  In  In16  1  0.83463344  0.67038476  0.83927969  1
  In  In17  1  0.50681216  0.67032423  0.50080386  1
  In  In18  1  0.51760487  -0.00750088  0.83176694  1
  In  In19  1  0.48765309  0.48578732  0.32990207  1
  In  In20  1  0.17288712  0.01414012  0.49789152  1
  In  In21  1  -0.00248618  0.66423590  0.33388131  1
  In  In22  1  0.46749586  0.14959139  0.01421907  1
  In  In23  1  0.18268390  0.48274992  0.02016183  1
  In  In24  1  0.32390996  0.00345734  0.33028910  1
  In  In25  1  -0.00298523  0.49364050  0.49453585  1
  In  In26  1  0.17666104  0.31043420  0.50338820  1
  In  In27  1  0.20965086  0.28402542  0.82126526  1
  In  In28  1  0.49839986  0.82917320  0.34350889  1
  In  In29  1  -0.01426278  0.15837221  0.83514944  1
  In  In30  1  0.34084564  0.83939794  0.81595448  1
  In  In31  1  -0.01339036  0.84029421  0.16125386  1
  In  In32  1  0.16638332  0.69160059  0.50882919  1
  In  In33  1  -0.00151494  0.00654453  0.66633358  1
  In  In34  1  0.34381970  0.68233887  -0.02188826  1
  In  In35  1  0.17099776  0.86625328  0.34145717  1
  In  In36  1  0.65902052  0.31903085  0.34091916  1
  In  In37  1  0.66557650  -0.02141901  0.66044122  1
  In  In38  1  0.48291373  0.14134768  0.65151964  1
  In  In39  1  0.67216935  0.32022180  0.00008972  1
  In  In40  1  0.50812004  0.66779391  0.82699251  1
  In  In41  1  0.66313272  0.84503783  0.15896047  1
  In  In42  1  -0.00336905  0.33096073  -0.00035770  1
  In  In43  1  0.18864524  0.04668562  0.85560609  1
  In  In44  1  0.83192862  0.16107023  0.66376614  1
  In  In45  1  0.49807910  0.17742909  0.32903777  1
  In  In46  1  0.67026961  0.02254456  0.34006771  1
  In  In47  1  0.65875007  0.17144488  0.16895685  1
  In  In48  1  0.49246189  -0.00967320  0.50140423  1
  In  In49  1  -0.03502168  0.44869617  0.21325024  1
  In  In50  1  0.15201684  0.84703696  0.65527797  1
  In  In51  1  0.35242191  0.51147022  0.51421696  1
  In  In52  1  0.79856794  0.50639434  0.67465158  1
  In  In53  1  0.14858063  0.68058565  0.17936183  1
  In  In54  1  0.84157724  0.32526104  0.48259783  1
  In  In55  1  0.16461969  0.50811861  0.67035600  1
  In  In56  1  0.82989281  0.01025482  0.49144202  1
  In  In57  1  0.86770091  0.68635467  0.51368119  1
  In  In58  1  0.14394026  0.29522949  0.19384806  1
  In  In59  1  0.68185316  0.17470086  0.83974832  1
  In  In60  1  0.67310061  0.33807285  0.67052713  1
  In  In61  1  0.31283070  0.85601243  0.16987073  1
  In  In62  1  0.34655252  0.49745182  0.15420958  1
  In  In63  1  0.82066194  0.67324424  0.15389925  1
  In  In64  1  -0.00827537  0.85397752  0.82702117  1
  In  In65  1  0.36096268  0.49304688  0.82712887  1
  In  In66  1  0.66730384  0.48904171  0.16864534  1
  In  In67  1  0.83201073  0.00554048  0.17814377  1
  In  In68  1  0.49674242  0.83039793  -0.01387322  1
  In  In69  1  0.17395960  0.69302412  0.80841204  1
  In  In70  1  0.01357858  0.32226917  0.65654574  1
  In  In71  1  0.33989840  0.31876073  0.33593293  1
  Te  Te72  1  0.06190925  0.11068141  0.07684994  1
  Te  Te73  1  0.10957414  0.10242506  0.39623472  1
  Te  Te74  1  0.09171291  0.09538388  0.74808631  1
  Te  Te75  1  0.07800877  0.41436781  0.10319647  1
  Te  Te76  1  0.08091861  0.39878270  0.41437117  1
  Te  Te77  1  0.08250725  0.41536848  0.75702788  1
  Te  Te78  1  0.08721834  0.76908416  0.07350497  1
  Te  Te79  1  0.07838166  0.76608921  0.41077759  1
  Te  Te80  1  0.05318518  0.74591362  0.73141698  1
  Te  Te81  1  0.35442384  0.06789009  0.06278625  1
  Te  Te82  1  0.41241101  0.08790143  0.41990796  1
  Te  Te83  1  0.41074475  0.08227650  0.77311144  1
  Te  Te84  1  0.43807374  0.42524839  0.06831908  1
  Te  Te85  1  0.42100565  0.40056056  0.43433010  1
  Te  Te86  1  0.41562714  0.39143220  0.73825923  1
  Te  Te87  1  0.41391706  0.75312997  0.09574116  1
  Te  Te88  1  0.40873008  0.74865539  0.42368518  1
  Te  Te89  1  0.40606941  0.73223385  0.74245071  1
  Te  Te90  1  0.73380447  0.07215579  0.07800525  1
  Te  Te91  1  0.76796323  0.11031146  0.40253008  1
  Te  Te92  1  0.74868044  0.07221735  0.75295461  1
  Te  Te93  1  0.76358495  0.40000552  0.09233277  1
  Te  Te94  1  0.73413788  0.41865736  0.42956782  1
  Te  Te95  1  0.74590125  0.41347700  0.77374405  1
  Te  Te96  1  0.73703214  0.75711654  0.06910117  1
  Te  Te97  1  0.77571797  0.76658944  0.43138451  1
  Te  Te98  1  0.75304058  0.76503570  0.75408076  1
  Te  Te99  1  0.04572732  0.22708734  0.28020704  1
  Te  Te100  1  0.07971562  0.22401003  0.57372566  1
  Te  Te101  1  0.08224190  0.25316513  0.90332373  1
  Te  Te102  1  0.09935362  0.57059367  0.27110426  1
  Te  Te103  1  0.07601332  0.59045545  0.58013556  1
  Te  Te104  1  0.11040094  0.58403015  0.90882820  1
  Te  Te105  1  0.07735993  0.93126339  0.24097163  1
  Te  Te106  1  0.06705999  0.92445512  0.55783779  1
  Te  Te107  1  0.08952705  0.93787714  0.90645302  1
  Te  Te108  1  0.41395218  0.24876730  0.23173974  1
  Te  Te109  1  0.37406320  0.21833526  0.58750849  1
  Te  Te110  1  0.41128099  0.24468231  0.90951616  1
  Te  Te111  1  0.40026965  0.58957878  0.26195604  1
  Te  Te112  1  0.44704587  0.58033469  0.60226700  1
  Te  Te113  1  0.43414184  0.57402918  0.93167471  1
  Te  Te114  1  0.42344220  0.92274058  0.24863077  1
  Te  Te115  1  0.44503272  0.90249314  0.61184507  1
  Te  Te116  1  0.40560996  0.92946264  0.91751161  1
  Te  Te117  1  0.75489025  0.24275389  0.25525385  1
  Te  Te118  1  0.74733379  0.24808156  0.57338628  1
  Te  Te119  1  0.78201934  0.25503292  0.91728871  1
  Te  Te120  1  0.76238250  0.57358761  0.25184134  1
  Te  Te121  1  0.74253950  0.59340331  0.56432925  1
  Te  Te122  1  0.75103349  0.57884967  0.91630549  1
  Te  Te123  1  0.74776894  0.91410695  0.26347410  1
  Te  Te124  1  0.78462206  0.91693256  0.59831161  1
  Te  Te125  1  0.71428495  0.87323617  0.86084791  1
  Te  Te126  1  0.22769794  0.25228664  0.07438792  1
  Te  Te127  1  0.23907124  0.22960577  0.39609603  1
  Te  Te128  1  0.26988390  0.22351144  0.70322091  1
  Te  Te129  1  0.24941302  0.60429461  0.08316911  1
  Te  Te130  1  0.25767734  0.59507898  0.43018075  1
  Te  Te131  1  0.26502819  0.58740570  0.75047125  1
  Te  Te132  1  0.23616608  0.94151964  0.07848593  1
  Te  Te133  1  0.27173507  0.91304196  0.44346937  1
  Te  Te134  1  0.23169746  0.93458039  0.75044634  1
  Te  Te135  1  0.56492066  0.24906689  0.08016221  1
  Te  Te136  1  0.57063867  0.24906383  0.43350551  1
  Te  Te137  1  0.58056636  0.22600970  0.74058160  1
  Te  Te138  1  0.60469344  0.58378295  0.07590197  1
  Te  Te139  1  0.58849227  0.57672232  0.39596723  1
  Te  Te140  1  0.57987136  0.57665732  0.73591211  1
  Te  Te141  1  0.56974436  0.92997547  0.07451396  1
  Te  Te142  1  0.59616291  0.91508156  0.42036713  1
  Te  Te143  1  0.56491918  0.89463647  0.73263049  1
  Te  Te144  1  0.92754981  0.23790727  0.09073420  1
  Te  Te145  1  0.94028726  0.26129794  0.39111779  1
  Te  Te146  1  0.91062503  0.25862239  0.74905846  1
  Te  Te147  1  0.94030386  0.58088432  0.10743997  1
  Te  Te148  1  0.90363060  0.57366331  0.40869539  1
  Te  Te149  1  0.90800448  0.59688845  0.72771532  1
  Te  Te150  1  0.88750701  0.91115899  0.07207630  1
  Te  Te151  1  0.91566731  0.92183660  0.41028350  1
  Te  Te152  1  0.90010330  0.91542449  0.72831409  1
  Te  Te153  1  0.26432164  0.10731740  0.24438301  1
  Te  Te154  1  0.25815314  0.09849376  0.58929559  1
  Te  Te155  1  0.24767457  0.12538477  0.96909155  1
  Te  Te156  1  0.25276197  0.41046307  0.23636282  1
  Te  Te157  1  0.24889859  0.42122113  0.58158862  1
  Te  Te158  1  0.25307568  0.41117352  0.90849658  1
  Te  Te159  1  0.24635733  0.75823935  0.26449605  1
  Te  Te160  1  0.25457173  0.75425542  0.60767488  1
  Te  Te161  1  0.24057137  0.77393823  0.91647905  1
  Te  Te162  1  0.56859515  0.07445498  0.24093176  1
  Te  Te163  1  0.59546730  0.07879921  0.57048103  1
  Te  Te164  1  0.58729366  0.09488780  0.92742523  1
  Te  Te165  1  0.57169554  0.39766924  0.24214856  1
  Te  Te166  1  0.55730668  0.40232359  0.60627143  1
  Te  Te167  1  0.61070371  0.41481961  0.90576644  1
  Te  Te168  1  0.59131387  0.73952361  0.25152541  1
  Te  Te169  1  0.60040118  0.76298039  0.56436417  1
  Te  Te170  1  0.59611980  0.75499528  0.90943007  1
  Te  Te171  1  0.92837525  0.10270669  0.23266572  1
  Te  Te172  1  0.93210496  0.10277246  0.56893610  1
  Te  Te173  1  0.90024373  0.05472721  0.90352383  1
  Te  Te174  1  0.87658016  0.36066108  0.28948145  1
  Te  Te175  1  0.90547495  0.41954122  0.59243782  1
  Te  Te176  1  0.92082185  0.43380383  0.91788723  1
  Te  Te177  1  0.90486080  0.75346813  0.25278890  1
  Te  Te178  1  0.95897519  0.75074320  0.60591921  1
  Te  Te179  1  0.92499549  0.75644371  0.92555905  1
