# generated using pymatgen
data_In2Te3
_symmetry_space_group_name_H-M   'P 1'
_cell_length_a   19.02045115
_cell_length_b   19.00663180
_cell_length_c   19.00583547
_cell_angle_alpha   89.76036635
_cell_angle_beta   89.95696384
_cell_angle_gamma   89.78698965
_symmetry_Int_Tables_number   1
_chemical_formula_structural   In2Te3
_chemical_formula_sum   'In72 Te108'
_cell_volume   6870.77969305
_cell_formula_units_Z   36
loop_
 _symmetry_equiv_pos_site_id
 _symmetry_equiv_pos_as_xyz
  1  'x, y, z'
loop_
 _atom_site_type_symbol
 _atom_site_label
 _atom_site_symmetry_multiplicity
 _atom_site_fract_x
 _atom_site_fract_y
 _atom_site_fract_z
 _atom_site_occupancy
  In  In0  1  0.29668625  0.68077150  0.68498255  1
  In  In1  1  0.86266095  0.87756225  0.67913058  1
  In  In2  1  0.48083505  0.28271434  0.76275335  1
  In  In3  1  0.33212669  0.51645652  0.17103942  1
  In  In4  1  0.30563163  0.15624962  0.83485433  1
  In  In5  1  0.49625449  0.13245876  -0.01651558  1
  In  In6  1  0.16156399  0.32504076  0.14808231  1
  In  In7  1  0.34930905  0.34117435  0.35473818  1
  In  In8  1  0.13035311  -0.02101457  0.51901664  1
  In  In9  1  0.33257498  0.83415880  0.83750412  1
  In  In10  1  0.68495555  0.31749713  0.00824404  1
  In  In11  1  0.88270331  0.47094255  0.60639006  1
  In  In12  1  0.81894787  0.67490011  0.49096211  1
  In  In13  1  0.84486221  0.49005639  0.00160655  1
  In  In14  1  0.84267824  0.13096931  0.66947643  1
  In  In15  1  0.51058239  0.65928119  0.51328109  1
  In  In16  1  0.13183026  0.65424988  0.81636266  1
  In  In17  1  0.01833923  0.25559989  0.00575416  1
  In  In18  1  0.81248615  0.15059744  -0.01137817  1
  In  In19  1  0.70748873  0.84868938  0.49768096  1
  In  In20  1  0.84855754  0.85261650  -0.00913885  1
  In  In21  1  0.34846902  0.68010936  0.33025956  1
  In  In22  1  0.34380076  0.19436035  0.16162135  1
  In  In23  1  -0.00488631  0.47434327  0.83393672  1
  In  In24  1  0.52058872  0.35207307  0.16557345  1
  In  In25  1  0.01106639  0.70376237  -0.00925402  1
  In  In26  1  0.66660227  0.50611202  0.49116207  1
  In  In27  1  0.31364060  0.65102502  0.01171546  1
  In  In28  1  0.00983629  0.51877084  0.14832037  1
  In  In29  1  0.84320026  0.28308031  0.80855295  1
  In  In30  1  0.36221802  0.87678187  0.13910757  1
  In  In31  1  0.47456354  0.47572801  0.67495760  1
  In  In32  1  -0.01077433  0.66584263  0.67877279  1
  In  In33  1  0.14762972  0.86155800  0.33681039  1
  In  In34  1  0.49856289  0.29282466  0.53936168  1
  In  In35  1  0.68274147  -0.00012225  0.33338166  1
  In  In36  1  0.17005818  0.67918350  0.16625747  1
  In  In37  1  0.16278746  0.32355961  0.80977998  1
  In  In38  1  0.52523700  0.83799560  0.35070085  1
  In  In39  1  0.69580864  0.70257580  0.32049356  1
  In  In40  1  0.82372978  0.33143547  0.18778198  1
  In  In41  1  0.33477958  0.01778297  0.35425486  1
  In  In42  1  0.84071347  0.01663030  0.16575645  1
  In  In43  1  0.12483656  0.72667243  0.53505562  1
  In  In44  1  0.15937763  0.51839572  0.30128997  1
  In  In45  1  -0.01035044  0.17021923  0.48231445  1
  In  In46  1  0.16984973  0.00938911  0.81134136  1
  In  In47  1  0.67814731  0.45177201  0.81607033  1
  In  In48  1  0.66116440  0.52003957  0.20508021  1
  In  In49  1  0.32434312  0.50220906  0.49101478  1
  In  In50  1  0.02072291  0.34107148  0.33642476  1
  In  In51  1  0.64546293  0.65142469  0.67548480  1
  In  In52  1  -0.01778280  -0.00623740  0.32642258  1
  In  In53  1  0.84789469  0.50553596  0.36410843  1
  In  In54  1  0.65715135  0.84427872  0.82865595  1
  In  In55  1  0.51877204  0.14998724  0.36162860  1
  In  In56  1  0.49492003  -0.02065298  0.83758775  1
  In  In57  1  0.67097085  0.30279677  0.66753213  1
  In  In58  1  0.48648546  0.85348913  0.67020897  1
  In  In59  1  0.51108950  0.66813791  0.87393696  1
  In  In60  1  0.49208248  0.67550371  0.20726873  1
  In  In61  1  0.17576712  0.85293900  -0.00176593  1
  In  In62  1  0.01263943  0.02033137  -0.01885462  1
  In  In63  1  0.31859612  0.01039440  0.64797235  1
  In  In64  1  0.82504056  0.67439426  0.86144847  1
  In  In65  1  0.69138687  0.66268242  0.03238710  1
  In  In66  1  0.30485219  0.32109266  -0.02590829  1
  In  In67  1  0.17293425  0.34450168  0.48103496  1
  In  In68  1  0.67645735  0.15165228  0.17502727  1
  In  In69  1  0.68181481  0.13506941  0.50620952  1
  In  In70  1  0.49906498  0.49205655  -0.00053708  1
  In  In71  1  0.17748419  0.19024546  0.33635626  1
  Te  Te72  1  0.05937750  0.12731320  0.06956669  1
  Te  Te73  1  0.09338406  0.08643602  0.40660361  1
  Te  Te74  1  0.07270794  0.11258342  0.76101033  1
  Te  Te75  1  0.05367930  0.39531471  0.07011165  1
  Te  Te76  1  0.08538683  0.45181820  0.41414003  1
  Te  Te77  1  0.06362104  0.39991467  0.72987076  1
  Te  Te78  1  0.08356941  0.78215535  0.09655825  1
  Te  Te79  1  0.04508917  0.78762144  0.41972488  1
  Te  Te80  1  0.08323240  0.76898791  0.73552838  1
  Te  Te81  1  0.41991813  0.08103479  0.10021507  1
  Te  Te82  1  0.41828903  0.09162285  0.45008501  1
  Te  Te83  1  0.40510391  0.06934082  0.75835740  1
  Te  Te84  1  0.39784902  0.40882160  0.08522867  1
  Te  Te85  1  0.43903121  0.41139017  0.45123883  1
  Te  Te86  1  0.40073421  0.40588617  0.77951393  1
  Te  Te87  1  0.40425291  0.73317711  0.09699966  1
  Te  Te88  1  0.42637875  0.75734957  0.43381877  1
  Te  Te89  1  0.43638837  0.74299800  0.76047927  1
  Te  Te90  1  0.72672921  0.05590035  0.06931898  1
  Te  Te91  1  0.77776005  0.08982088  0.40165396  1
  Te  Te92  1  0.79584637  0.05027724  0.78654079  1
  Te  Te93  1  0.73690407  0.43224036  0.09445299  1
  Te  Te94  1  0.75774464  0.41145079  0.42814259  1
  Te  Te95  1  0.78395036  0.39924049  0.72034226  1
  Te  Te96  1  0.75694384  0.78591993  0.09199945  1
  Te  Te97  1  0.79708759  0.79084573  0.38949013  1
  Te  Te98  1  0.74006922  0.74150202  0.75322688  1
  Te  Te99  1  0.07231905  0.23987127  0.23798499  1
  Te  Te100  1  0.07724119  0.26166333  0.56353163  1
  Te  Te101  1  0.08672486  0.21160290  0.87873674  1
  Te  Te102  1  0.05762223  0.62035469  0.25090627  1
  Te  Te103  1  0.08236996  0.59779238  0.58795810  1
  Te  Te104  1  0.06289247  0.57743680  0.92645707  1
  Te  Te105  1  0.09250949  0.95400322  0.23861593  1
  Te  Te106  1  0.07386477  0.88017740  0.61838001  1
  Te  Te107  1  0.08354095  0.91615341  0.89682980  1
  Te  Te108  1  0.43789474  0.25463208  0.26519296  1
  Te  Te109  1  0.39731548  0.25958853  0.64128552  1
  Te  Te110  1  0.41857193  0.24284124  0.91095584  1
  Te  Te111  1  0.42637614  0.55801027  0.27872443  1
  Te  Te112  1  0.40810087  0.59074203  0.60040708  1
  Te  Te113  1  0.40001451  0.57205174  0.91610745  1
  Te  Te114  1  0.41735391  0.91497139  0.27699874  1
  Te  Te115  1  0.41515611  0.93005713  0.57015430  1
  Te  Te116  1  0.43239712  0.88361528  0.93643811  1
  Te  Te117  1  0.72001080  0.26064400  0.26101908  1
  Te  Te118  1  0.77069502  0.23293180  0.58061997  1
  Te  Te119  1  0.72552388  0.23158581  0.89161718  1
  Te  Te120  1  0.78172613  0.59778828  0.24926514  1
  Te  Te121  1  0.75144038  0.57776557  0.59562899  1
  Te  Te122  1  0.73085601  0.56152112  0.91725236  1
  Te  Te123  1  0.75951431  0.91811176  0.23928996  1
  Te  Te124  1  0.76517685  0.94428131  0.59240520  1
  Te  Te125  1  0.77076993  0.92613897  0.88355347  1
  Te  Te126  1  0.23311947  0.22194181  0.06168600  1
  Te  Te127  1  0.27690396  0.23917338  0.43873608  1
  Te  Te128  1  0.25153084  0.23838014  0.72459049  1
  Te  Te129  1  0.21646585  0.55995585  0.08376644  1
  Te  Te130  1  0.24440515  0.59531835  0.40166365  1
  Te  Te131  1  0.23040359  0.57047401  0.74964712  1
  Te  Te132  1  0.25259620  0.95329697  0.07128795  1
  Te  Te133  1  0.24479603  0.92345525  0.43296067  1
  Te  Te134  1  0.25019092  0.90304224  0.73608884  1
  Te  Te135  1  0.57694183  0.23906870  0.08152644  1
  Te  Te136  1  0.59931091  0.25096252  0.43797793  1
  Te  Te137  1  0.59661049  0.18900002  0.72871188  1
  Te  Te138  1  0.56818935  0.58659794  0.09519666  1
  Te  Te139  1  0.60234815  0.61095393  0.40324766  1
  Te  Te140  1  0.57267535  0.56322281  0.77462008  1
  Te  Te141  1  0.48573865  0.93167444  0.07492398  1
  Te  Te142  1  0.59579244  0.93495676  0.44094464  1
  Te  Te143  1  0.59686738  0.93776702  0.72514313  1
  Te  Te144  1  0.88687046  0.23925234  0.08682146  1
  Te  Te145  1  0.90987950  0.27593141  0.41018191  1
  Te  Te146  1  0.94957079  0.21883659  0.72770674  1
  Te  Te147  1  0.90662399  0.61434223  0.06973680  1
  Te  Te148  1  0.93126505  0.60329930  0.43071779  1
  Te  Te149  1  0.90327344  0.58017311  0.77147490  1
  Te  Te150  1  0.93622635  0.93371402  0.08219127  1
  Te  Te151  1  0.94600605  0.90136131  0.43336511  1
  Te  Te152  1  0.97925403  0.97175301  0.69582232  1
  Te  Te153  1  0.26094274  0.09994546  0.24895279  1
  Te  Te154  1  0.20341226  0.08230177  0.59184000  1
  Te  Te155  1  0.26161897  0.04596685  0.92329222  1
  Te  Te156  1  0.24723497  0.39882336  0.25134622  1
  Te  Te157  1  0.24990812  0.41720383  0.58126700  1
  Te  Te158  1  0.21412271  0.41527218  0.91313250  1
  Te  Te159  1  0.24736951  0.76747821  0.25937927  1
  Te  Te160  1  0.26337365  0.75810156  0.56763811  1
  Te  Te161  1  0.23741874  0.73703618  0.91230538  1
  Te  Te162  1  0.57477150  0.06718793  0.24905017  1
  Te  Te163  1  0.56336023  0.12758084  0.59317653  1
  Te  Te164  1  0.59590947  0.05195388  0.91521890  1
  Te  Te165  1  0.59151927  0.41398069  0.27601157  1
  Te  Te166  1  0.59170822  0.41961129  0.59897297  1
  Te  Te167  1  0.58305703  0.39374330  0.92111825  1
  Te  Te168  1  0.59826885  0.77916793  0.23091638  1
  Te  Te169  1  0.60328340  0.76041706  0.57809414  1
  Te  Te170  1  0.60604025  0.75781260  0.94667807  1
  Te  Te171  1  0.89106162  0.10056221  0.27685126  1
  Te  Te172  1  0.93115759  0.06229300  0.56804909  1
  Te  Te173  1  0.90369886  0.07967017  0.89385060  1
  Te  Te174  1  0.92701109  0.43096389  0.24158489  1
  Te  Te175  1  0.95308433  0.35689430  0.54660330  1
  Te  Te176  1  0.89939619  0.38300108  0.91269286  1
  Te  Te177  1  0.86975219  0.72254026  0.16999557  1
  Te  Te178  1  0.89442763  0.75424680  0.59870485  1
  Te  Te179  1  0.93125006  0.77859701  0.88640889  1
