# generated using pymatgen
data_In2Te3
_symmetry_space_group_name_H-M   'P 1'
_cell_length_a   18.90730399
_cell_length_b   18.88950147
_cell_length_c   18.91430268
_cell_angle_alpha   90.06957277
_cell_angle_beta   90.07781496
_cell_angle_gamma   89.95246136
_symmetry_Int_Tables_number   1
_chemical_formula_structural   In2Te3
_chemical_formula_sum   'In72 Te108'
_cell_volume   6755.22110066
_cell_formula_units_Z   36
loop_
 _symmetry_equiv_pos_site_id
 _symmetry_equiv_pos_as_xyz
  1  'x, y, z'
loop_
 _atom_site_type_symbol
 _atom_site_label
 _atom_site_symmetry_multiplicity
 _atom_site_fract_x
 _atom_site_fract_y
 _atom_site_fract_z
 _atom_site_occupancy
  In  In0  1  0.31198468  0.35947112  0.31805664  1
  In  In1  1  0.76801476  0.42328836  0.00053766  1
  In  In2  1  0.16346935  0.16537697  0.00003114  1
  In  In3  1  0.48878973  0.65720723  0.20729929  1
  In  In4  1  -0.00628366  0.84491999  0.83837416  1
  In  In5  1  0.84251949  0.84728020  0.35455369  1
  In  In6  1  0.15438721  0.00271867  0.51606320  1
  In  In7  1  0.84444455  -0.00618963  0.17534054  1
  In  In8  1  0.81677098  0.18754699  0.30914476  1
  In  In9  1  0.18403603  -0.01898649  0.18051166  1
  In  In10  1  0.51335581  0.83482907  0.34320032  1
  In  In11  1  0.34508975  0.47423809  0.83425264  1
  In  In12  1  0.16467032  0.52773477  0.03482234  1
  In  In13  1  0.53200571  0.18583505  0.32968526  1
  In  In14  1  0.64349161  0.85620965  0.82386617  1
  In  In15  1  0.82167338  0.49580287  0.65217185  1
  In  In16  1  0.33694692  0.00806806  0.34954049  1
  In  In17  1  0.49913539  0.84871091  0.00752775  1
  In  In18  1  0.00011865  0.00738485  0.66443664  1
  In  In19  1  0.50267603  0.66557309  0.83908989  1
  In  In20  1  -0.00244296  0.32949450  0.00750153  1
  In  In21  1  0.50783066  0.02227716  0.83583520  1
  In  In22  1  -0.02448638  0.30713708  0.67486473  1
  In  In23  1  0.82837615  0.32498641  0.52403108  1
  In  In24  1  0.16361051  0.84587811  -0.02806939  1
  In  In25  1  0.17216888  0.65068170  0.18049909  1
  In  In26  1  0.31820112  0.63981828  0.33991530  1
  In  In27  1  0.16817291  0.32861957  0.84098194  1
  In  In28  1  0.65235120  0.02020144  0.00001022  1
  In  In29  1  0.33794010  0.82305462  0.51952054  1
  In  In30  1  0.79790919  0.65647227  0.83219969  1
  In  In31  1  0.80383250  0.83826643  -0.00336982  1
  In  In32  1  0.34087100  0.03439287  0.00632647  1
  In  In33  1  -0.02818923  0.03276910  -0.00521446  1
  In  In34  1  0.82852793  0.02285939  0.48615325  1
  In  In35  1  0.30340917  0.64444084  -0.00605193  1
  In  In36  1  0.17572448  0.66567602  0.50584949  1
  In  In37  1  -0.01424336  0.49703921  0.16742330  1
  In  In38  1  0.00169999  0.64665252  0.36164536  1
  In  In39  1  0.85515069  0.83500817  0.64589829  1
  In  In40  1  0.01681621  0.36257818  0.35648247  1
  In  In41  1  -0.01645453  0.67023541  0.03187683  1
  In  In42  1  -0.02776499  0.49416984  0.82833690  1
  In  In43  1  0.66215672  0.65166449  0.65190756  1
  In  In44  1  0.34213602  0.78471443  0.19236540  1
  In  In45  1  0.52297311  0.34585497  0.46821753  1
  In  In46  1  0.50256829  0.01620307  0.17588277  1
  In  In47  1  0.35290647  0.33221128  0.01123829  1
  In  In48  1  0.49094788  0.50135478  0.65312094  1
  In  In49  1  0.34179206  0.19754025  0.84060544  1
  In  In50  1  0.00265379  0.15433156  0.49779002  1
  In  In51  1  0.66299830  0.32383380  0.66523786  1
  In  In52  1  0.80842540  0.18779695  -0.01405902  1
  In  In53  1  -0.00015737  0.18251974  0.18645770  1
  In  In54  1  0.51826149  0.85205636  0.68178238  1
  In  In55  1  -0.00014504  0.68989743  0.63635215  1
  In  In56  1  0.16860210  0.16611936  0.66000851  1
  In  In57  1  0.35086462  0.15657683  0.16528839  1
  In  In58  1  0.15423089  0.64683079  0.81209549  1
  In  In59  1  0.35843558  0.20047793  0.46991426  1
  In  In60  1  0.51874381  0.63008593  0.47831809  1
  In  In61  1  0.51818637  0.15650326  0.62970678  1
  In  In62  1  0.67417315  0.83364649  0.48495466  1
  In  In63  1  0.56107996  0.35128817  0.20113071  1
  In  In64  1  0.00829201  0.84280908  0.18713018  1
  In  In65  1  0.81870154  0.48025159  0.33709442  1
  In  In66  1  0.67831908  0.64215892  0.02057072  1
  In  In67  1  0.19041664  0.47335278  0.64683744  1
  In  In68  1  0.53676257  0.46559308  0.00603879  1
  In  In69  1  0.32669999  0.85457726  0.78213685  1
  In  In70  1  0.32935986  -0.00712163  0.65771898  1
  In  In71  1  0.83132845  0.62526365  0.18069207  1
  Te  Te72  1  0.08486200  0.07692628  0.09655181  1
  Te  Te73  1  0.09989617  0.08849018  0.41061073  1
  Te  Te74  1  0.06727957  0.10859478  0.74813403  1
  Te  Te75  1  0.08955481  0.40821389  0.09743498  1
  Te  Te76  1  0.12522314  0.43078387  0.43711750  1
  Te  Te77  1  0.07936231  0.41592591  0.75142327  1
  Te  Te78  1  0.10703820  0.75295562  0.07926191  1
  Te  Te79  1  0.08398751  0.74962606  0.42591504  1
  Te  Te80  1  0.08103149  0.76251669  0.74443085  1
  Te  Te81  1  0.45563715  0.11222571  0.06328356  1
  Te  Te82  1  0.44511600  0.08769141  0.41583684  1
  Te  Te83  1  0.41008368  0.09489653  0.74280794  1
  Te  Te84  1  0.44475876  0.40225330  0.10841897  1
  Te  Te85  1  0.41291431  0.43060530  0.40374992  1
  Te  Te86  1  0.42604369  0.39960274  0.73878371  1
  Te  Te87  1  0.41261438  0.73824851  0.06568814  1
  Te  Te88  1  0.41430223  0.74256819  0.41201005  1
  Te  Te89  1  0.42335385  0.74381650  0.73617461  1
  Te  Te90  1  0.75815868  0.08389015  0.08917895  1
  Te  Te91  1  0.73640221  0.09818359  0.39604572  1
  Te  Te92  1  0.74631648  0.17540277  0.71909189  1
  Te  Te93  1  0.70305531  0.40091358  0.13602778  1
  Te  Te94  1  0.73864008  0.38307875  0.41869433  1
  Te  Te95  1  0.75660356  0.40721402  0.75100733  1
  Te  Te96  1  0.75958234  0.74059434  0.10259536  1
  Te  Te97  1  0.76000482  0.73897129  0.41091379  1
  Te  Te98  1  0.73556948  0.76239462  0.74109894  1
  Te  Te99  1  0.08652166  0.27412894  0.26102316  1
  Te  Te100  1  0.08110041  0.25920814  0.57708934  1
  Te  Te101  1  0.06621366  0.23734587  0.90726345  1
  Te  Te102  1  0.08398578  0.56115670  0.26286689  1
  Te  Te103  1  0.08611048  0.57463292  0.59307609  1
  Te  Te104  1  0.07003822  0.57994911  0.92050779  1
  Te  Te105  1  0.08850759  0.92533665  0.27635389  1
  Te  Te106  1  0.04846053  0.90903017  0.56362437  1
  Te  Te107  1  0.07597569  0.95133922  0.90958053  1
  Te  Te108  1  0.42066271  0.25754520  0.25462758  1
  Te  Te109  1  0.43526356  0.27254020  0.57727826  1
  Te  Te110  1  0.44840280  0.27129871  0.91422434  1
  Te  Te111  1  0.42612522  0.54914017  0.28814774  1
  Te  Te112  1  0.40820266  0.57512028  0.55570686  1
  Te  Te113  1  0.42747882  0.56531561  0.92801988  1
  Te  Te114  1  0.40211032  0.91645099  0.24014685  1
  Te  Te115  1  0.43639907  0.92508228  0.57475164  1
  Te  Te116  1  0.41834272  0.91318278  0.89618642  1
  Te  Te117  1  0.71764504  0.26399724  0.22230035  1
  Te  Te118  1  0.73025429  0.21718298  0.57164049  1
  Te  Te119  1  0.70791447  0.29372622  0.94022827  1
  Te  Te120  1  0.72175687  0.57076007  0.26368104  1
  Te  Te121  1  0.74764095  0.57997394  0.55706118  1
  Te  Te122  1  0.73001558  0.54842502  0.91299528  1
  Te  Te123  1  0.75636356  0.90817458  0.25337788  1
  Te  Te124  1  0.75390624  0.92465423  0.57887154  1
  Te  Te125  1  0.74424924  0.94006846  0.90412987  1
  Te  Te126  1  0.25279763  0.24802720  0.09006542  1
  Te  Te127  1  0.23859042  0.26774059  0.41205941  1
  Te  Te128  1  0.25804282  0.26837891  0.73522817  1
  Te  Te129  1  0.29034377  0.55878278  0.12529109  1
  Te  Te130  1  0.22499642  0.55222139  0.41743670  1
  Te  Te131  1  0.26428538  0.56818200  0.74282058  1
  Te  Te132  1  0.26448143  0.91816958  0.06615450  1
  Te  Te133  1  0.25241458  0.91561996  0.43302736  1
  Te  Te134  1  0.21642553  0.93533472  0.73184714  1
  Te  Te135  1  0.62634251  0.26571066  0.09462830  1
  Te  Te136  1  0.61849283  0.22865456  0.44498683  1
  Te  Te137  1  0.59029179  0.21805248  0.74734749  1
  Te  Te138  1  0.57467879  0.57537309  0.10557167  1
  Te  Te139  1  0.60377257  0.56231349  0.37978726  1
  Te  Te140  1  0.58753389  0.57167156  0.75678495  1
  Te  Te141  1  0.59568196  0.91728320  0.09821696  1
  Te  Te142  1  0.58934386  0.93471083  0.41755225  1
  Te  Te143  1  0.61173975  0.97340852  0.72425498  1
  Te  Te144  1  0.90146925  0.25065665  0.09351856  1
  Te  Te145  1  0.91551787  0.25299995  0.41379559  1
  Te  Te146  1  0.85708643  0.27619211  0.75739862  1
  Te  Te147  1  0.89063240  0.55071625  0.06054665  1
  Te  Te148  1  0.91355080  0.54981505  0.42713922  1
  Te  Te149  1  0.91022104  0.60443911  0.74218070  1
  Te  Te150  1  0.92883460  0.90019796  0.06992626  1
  Te  Te151  1  0.93368691  0.92787428  0.43825182  1
  Te  Te152  1  0.89878844  0.92898800  0.75642780  1
  Te  Te153  1  0.24954160  0.09485893  0.25983284  1
  Te  Te154  1  0.27197599  0.10373725  0.56343344  1
  Te  Te155  1  0.25002618  0.08960825  0.89939989  1
  Te  Te156  1  0.24319721  0.44257094  0.21868624  1
  Te  Te157  1  0.23909270  0.38859369  0.53553234  1
  Te  Te158  1  0.24068492  0.42045825  0.93888326  1
  Te  Te159  1  0.22539891  0.75250311  0.28082145  1
  Te  Te160  1  0.24476117  0.75156807  0.60584056  1
  Te  Te161  1  0.24968104  0.74729354  0.89088294  1
  Te  Te162  1  0.60715682  0.09194785  0.24388676  1
  Te  Te163  1  0.60042667  0.04264475  0.58757516  1
  Te  Te164  1  0.60452703  0.11579811  0.89793583  1
  Te  Te165  1  0.59002298  0.41190084  0.33808769  1
  Te  Te166  1  0.59818402  0.42877481  0.57468488  1
  Te  Te167  1  0.57885475  0.37585322  0.89870359  1
  Te  Te168  1  0.58688757  0.75885240  0.24207130  1
  Te  Te169  1  0.57154290  0.74863377  0.57556998  1
  Te  Te170  1  0.59881449  0.74746804  0.92804382  1
  Te  Te171  1  0.92364508  0.08136235  0.26969706  1
  Te  Te172  1  0.90115767  0.10092909  0.59619698  1
  Te  Te173  1  0.89275876  0.10601583  0.89633517  1
  Te  Te174  1  0.90874325  0.39633125  0.24702312  1
  Te  Te175  1  0.93353273  0.42036840  0.58151815  1
  Te  Te176  1  0.89794576  0.39551999  0.91423991  1
  Te  Te177  1  0.93239371  0.72586667  0.24271227  1
  Te  Te178  1  0.88742769  0.72910256  0.54951356  1
  Te  Te179  1  0.89984604  0.74378369  0.91257566  1
