# generated using pymatgen
data_In2Te3
_symmetry_space_group_name_H-M   'P 1'
_cell_length_a   18.90838722
_cell_length_b   18.90158747
_cell_length_c   18.89893605
_cell_angle_alpha   90.03634444
_cell_angle_beta   90.08241013
_cell_angle_gamma   90.04709250
_symmetry_Int_Tables_number   1
_chemical_formula_structural   In2Te3
_chemical_formula_sum   'In72 Te108'
_cell_volume   6754.44142275
_cell_formula_units_Z   36
loop_
 _symmetry_equiv_pos_site_id
 _symmetry_equiv_pos_as_xyz
  1  'x, y, z'
loop_
 _atom_site_type_symbol
 _atom_site_label
 _atom_site_symmetry_multiplicity
 _atom_site_fract_x
 _atom_site_fract_y
 _atom_site_fract_z
 _atom_site_occupancy
  In  In0  1  0.31994522  0.34281068  0.34940626  1
  In  In1  1  0.67781223  0.86928952  0.20554920  1
  In  In2  1  -0.00908216  0.35832778  0.34434081  1
  In  In3  1  0.35978706  0.46925676  0.80595040  1
  In  In4  1  0.66879051  0.15557386  0.53793533  1
  In  In5  1  0.48385790  0.33868957  0.16635922  1
  In  In6  1  0.65370222  0.33281475  0.66528693  1
  In  In7  1  0.84704471  0.51387024  0.34735647  1
  In  In8  1  -0.00325557  0.16446107  0.17156566  1
  In  In9  1  -0.01214824  0.01385602  -0.01859798  1
  In  In10  1  0.82944113  0.00187693  0.50683638  1
  In  In11  1  0.16450033  0.82281300  0.33863356  1
  In  In12  1  0.35672683  0.00487162  -0.01165196  1
  In  In13  1  0.48612098  0.34173943  0.52434143  1
  In  In14  1  0.67009353  0.83301397  0.82734391  1
  In  In15  1  0.15534211  0.83773595  0.65433564  1
  In  In16  1  0.50896915  -0.00550392  0.14248892  1
  In  In17  1  0.84072192  0.50468726  0.64266290  1
  In  In18  1  -0.01502525  -0.01036507  0.66498087  1
  In  In19  1  0.82841708  0.49115352  -0.00104510  1
  In  In20  1  0.17646906  0.52312149  -0.00494939  1
  In  In21  1  0.33950139  -0.00368200  0.65380184  1
  In  In22  1  0.50230232  0.80848612  0.35007047  1
  In  In23  1  0.51411642  0.63446294  0.79258261  1
  In  In24  1  0.00175351  0.50090884  0.17319904  1
  In  In25  1  0.82937342  0.83340891  0.66708092  1
  In  In26  1  0.14220498  0.34601769  0.80972393  1
  In  In27  1  0.68220765  0.66253526  0.00665203  1
  In  In28  1  0.47532832  0.65288025  0.50681368  1
  In  In29  1  0.15821424  -0.00020895  0.16989096  1
  In  In30  1  0.83672411  0.15793314  0.00598579  1
  In  In31  1  0.50647653  0.82760085  0.65733803  1
  In  In32  1  0.33610181  0.01753202  0.34281595  1
  In  In33  1  0.82845217  0.67212403  0.84387765  1
  In  In34  1  0.65536524  0.49221754  0.14938449  1
  In  In35  1  0.50981993  0.48006285  -0.02837033  1
  In  In36  1  0.49715468  0.18988340  0.34011741  1
  In  In37  1  0.17526439  0.17892778  0.37423276  1
  In  In38  1  0.32728723  0.33315182  0.01520351  1
  In  In39  1  0.02236136  0.49512219  0.51550020  1
  In  In40  1  0.83676065  0.32105272  0.82719184  1
  In  In41  1  0.84280063  0.17898253  0.33265156  1
  In  In42  1  0.16799490  0.50997228  0.31646053  1
  In  In43  1  0.17304113  0.66458384  0.48528859  1
  In  In44  1  0.15844578  0.83602127  0.00317734  1
  In  In45  1  0.84997718  0.83123825  -0.00426584  1
  In  In46  1  0.46094146  0.63031756  0.20260625  1
  In  In47  1  0.16707900  0.32721270  0.15883073  1
  In  In48  1  0.33537436  0.15524652  0.82690907  1
  In  In49  1  0.02118976  0.82171568  0.17050518  1
  In  In50  1  0.32939873  0.65587156  0.66769844  1
  In  In51  1  0.84280730  0.66604213  0.18013117  1
  In  In52  1  0.51352254  0.01638518  0.51340957  1
  In  In53  1  0.48370609  0.82740041  -0.02001309  1
  In  In54  1  0.14676070  0.19110758  0.65587209  1
  In  In55  1  0.15418791  0.00292096  0.49774795  1
  In  In56  1  0.17156744  -0.00560959  0.82260267  1
  In  In57  1  0.67928745  0.82671752  0.51307780  1
  In  In58  1  0.17261816  0.67156601  0.83246237  1
  In  In59  1  0.67467460  0.17772896  0.81415520  1
  In  In60  1  0.32191681  0.82768022  0.20033563  1
  In  In61  1  0.32929787  0.66589091  0.00506462  1
  In  In62  1  0.49664525  0.17245814  -0.01344888  1
  In  In63  1  0.68236288  0.01556350  -0.01114545  1
  In  In64  1  0.84642375  0.17094493  0.67214165  1
  In  In65  1  0.67044051  0.69198495  0.34621360  1
  In  In66  1  -0.00220204  0.66658208  0.65768576  1
  In  In67  1  -0.00372839  0.31199210  -0.02268572  1
  In  In68  1  0.65775667  0.16090343  0.15070899  1
  In  In69  1  0.69343045  -0.02191348  0.31249017  1
  In  In70  1  0.67182388  0.35043551  0.33810476  1
  In  In71  1  0.68595103  0.51348101  0.48953590  1
  Te  Te72  1  0.08433990  0.09013924  0.07221917  1
  Te  Te73  1  0.06810244  0.08842794  0.41464231  1
  Te  Te74  1  0.07958931  0.08237866  0.74172194  1
  Te  Te75  1  0.07909804  0.41665096  0.07049369  1
  Te  Te76  1  0.11074620  0.41330851  0.41977041  1
  Te  Te77  1  0.04669098  0.41973833  0.72233366  1
  Te  Te78  1  0.10124325  0.73029800  0.08663745  1
  Te  Te79  1  0.07167262  0.75691339  0.43245835  1
  Te  Te80  1  0.07397597  0.75864137  0.75399938  1
  Te  Te81  1  0.41359702  0.10070371  0.09293496  1
  Te  Te82  1  0.41555378  0.10620999  0.43810965  1
  Te  Te83  1  0.42776201  0.08198185  0.73739628  1
  Te  Te84  1  0.41031133  0.44142534  0.08235218  1
  Te  Te85  1  0.43515314  0.41493481  0.40836489  1
  Te  Te86  1  0.40777982  0.39971176  0.68150163  1
  Te  Te87  1  0.41660296  0.75673992  0.09724327  1
  Te  Te88  1  0.39040669  0.73092845  0.40808384  1
  Te  Te89  1  0.41933458  0.74517680  0.75253931  1
  Te  Te90  1  0.76591105  0.06414450  0.10581390  1
  Te  Te91  1  0.73339995  0.09068732  0.41559501  1
  Te  Te92  1  0.76574206  0.07927333  0.75437892  1
  Te  Te93  1  0.73756600  0.40123762  0.07118001  1
  Te  Te94  1  0.77745549  0.40717241  0.43152799  1
  Te  Te95  1  0.75953537  0.41676735  0.73894497  1
  Te  Te96  1  0.75348540  0.76111350  0.09832831  1
  Te  Te97  1  0.77680764  0.76935388  0.41492553  1
  Te  Te98  1  0.73643384  0.73061660  0.73836769  1
  Te  Te99  1  0.07996277  0.25795389  0.26230975  1
  Te  Te100  1  0.08265525  0.28271831  0.55847161  1
  Te  Te101  1  0.09595692  0.23984015  0.89996518  1
  Te  Te102  1  0.05026844  0.59401078  0.27954530  1
  Te  Te103  1  0.11291747  0.58497043  0.60124094  1
  Te  Te104  1  0.07924060  0.58440053  0.90481055  1
  Te  Te105  1  0.07426794  0.92635772  0.26998755  1
  Te  Te106  1  0.05622501  0.90400999  0.56067749  1
  Te  Te107  1  0.07267699  0.91286073  0.90461547  1
  Te  Te108  1  0.39410154  0.24799311  0.24739810  1
  Te  Te109  1  0.41812091  0.26014371  0.62320569  1
  Te  Te110  1  0.40955049  0.26578651  0.90598981  1
  Te  Te111  1  0.38247658  0.59336916  0.32100890  1
  Te  Te112  1  0.40140224  0.55316818  0.58852625  1
  Te  Te113  1  0.41045487  0.58473735  0.90390780  1
  Te  Te114  1  0.43009286  0.92526896  0.26080058  1
  Te  Te115  1  0.41976427  0.90583080  0.55949053  1
  Te  Te116  1  0.43034975  0.92781906  0.88851372  1
  Te  Te117  1  0.73865962  0.25107256  0.24432397  1
  Te  Te118  1  0.76214793  0.26468919  0.58423134  1
  Te  Te119  1  0.74457484  0.25111193  0.92707804  1
  Te  Te120  1  0.73669692  0.58021952  0.25122396  1
  Te  Te121  1  0.77525745  0.60809162  0.55938979  1
  Te  Te122  1  0.73347746  0.56574723  0.90415744  1
  Te  Te123  1  0.81601569  0.90018364  0.26336276  1
  Te  Te124  1  0.73142534  0.93705446  0.60201954  1
  Te  Te125  1  0.76762926  0.92081280  0.90515927  1
  Te  Te126  1  0.24224299  0.23175790  0.07734852  1
  Te  Te127  1  0.26872384  0.25552782  0.45676294  1
  Te  Te128  1  0.25515366  0.25489510  0.74571760  1
  Te  Te129  1  0.24081106  0.60067180  0.10434433  1
  Te  Te130  1  0.26311609  0.56017015  0.42297049  1
  Te  Te131  1  0.24897605  0.56155876  0.75585613  1
  Te  Te132  1  0.26436710  0.92104317  0.09001089  1
  Te  Te133  1  0.25459824  0.91773431  0.42057161  1
  Te  Te134  1  0.26094510  0.90162407  0.74430792  1
  Te  Te135  1  0.58001262  0.26656903  0.07279532  1
  Te  Te136  1  0.59555810  0.25794136  0.43530900  1
  Te  Te137  1  0.56724446  0.27640632  0.77605992  1
  Te  Te138  1  0.56588929  0.58996175  0.07408759  1
  Te  Te139  1  0.58065228  0.58971789  0.41063820  1
  Te  Te140  1  0.58383978  0.51737642  0.74027478  1
  Te  Te141  1  0.59899781  0.90449745  0.06096593  1
  Te  Te142  1  0.58969792  0.91474084  0.41752865  1
  Te  Te143  1  0.58439676  0.91719898  0.74383978  1
  Te  Te144  1  0.91035795  0.26047803  0.09130236  1
  Te  Te145  1  0.92035733  0.25984492  0.42738280  1
  Te  Te146  1  0.94175843  0.24987400  0.75307402  1
  Te  Te147  1  0.91938956  0.58601252  0.07599356  1
  Te  Te148  1  0.93955398  0.58757607  0.43451032  1
  Te  Te149  1  0.91336013  0.58300143  0.75268047  1
  Te  Te150  1  0.93448535  0.91784958  0.08637580  1
  Te  Te151  1  0.87751305  0.90509181  0.40788536  1
  Te  Te152  1  0.91860345  0.90193531  0.76166015  1
  Te  Te153  1  0.23920474  0.09467917  0.25698647  1
  Te  Te154  1  0.24142630  0.08968354  0.58651146  1
  Te  Te155  1  0.24301385  0.08242011  0.92368742  1
  Te  Te156  1  0.25839879  0.42371904  0.23133170  1
  Te  Te157  1  0.16880095  0.37332315  0.64209877  1
  Te  Te158  1  0.25224867  0.42017513  0.91095361  1
  Te  Te159  1  0.22985935  0.72474388  0.24835769  1
  Te  Te160  1  0.25677156  0.75490706  0.57794941  1
  Te  Te161  1  0.26102481  0.76686230  0.91438926  1
  Te  Te162  1  0.57361716  0.08601582  0.25451181  1
  Te  Te163  1  0.56274565  0.10236858  0.62466549  1
  Te  Te164  1  0.58142673  0.08262045  0.89999776  1
  Te  Te165  1  0.56820253  0.42805024  0.25727123  1
  Te  Te166  1  0.59128421  0.45346980  0.59171764  1
  Te  Te167  1  0.57468786  0.41162129  0.85851363  1
  Te  Te168  1  0.57957143  0.74733632  0.23445938  1
  Te  Te169  1  0.58803264  0.72424339  0.58109738  1
  Te  Te170  1  0.58136239  0.73119785  0.90885950  1
  Te  Te171  1  0.92195684  0.07713629  0.26228361  1
  Te  Te172  1  0.93078402  0.09542232  0.56894693  1
  Te  Te173  1  0.90415121  0.09501816  0.89198134  1
  Te  Te174  1  0.89464399  0.41689801  0.23995995  1
  Te  Te175  1  0.94045547  0.39932999  0.59899963  1
  Te  Te176  1  0.92419714  0.42298128  0.90354706  1
  Te  Te177  1  0.94903134  0.72709471  0.26271695  1
  Te  Te178  1  0.90494041  0.74658548  0.57450659  1
  Te  Te179  1  0.93239638  0.73020549  0.93030369  1
