# generated using pymatgen
data_In2Te3
_symmetry_space_group_name_H-M   'P 1'
_cell_length_a   18.78620304
_cell_length_b   18.79436496
_cell_length_c   18.80244697
_cell_angle_alpha   89.97466521
_cell_angle_beta   89.97659746
_cell_angle_gamma   89.99524253
_symmetry_Int_Tables_number   1
_chemical_formula_structural   In2Te3
_chemical_formula_sum   'In72 Te108'
_cell_volume   6638.66815363
_cell_formula_units_Z   36
loop_
 _symmetry_equiv_pos_site_id
 _symmetry_equiv_pos_as_xyz
  1  'x, y, z'
loop_
 _atom_site_type_symbol
 _atom_site_label
 _atom_site_symmetry_multiplicity
 _atom_site_fract_x
 _atom_site_fract_y
 _atom_site_fract_z
 _atom_site_occupancy
  In  In0  1  0.00294365  0.34082679  -0.00381176  1
  In  In1  1  0.81562749  0.32209786  0.81526003  1
  In  In2  1  0.66677045  0.83097543  0.85122556  1
  In  In3  1  0.14771103  0.34925445  0.48797078  1
  In  In4  1  0.65772487  0.48602423  0.85152847  1
  In  In5  1  0.01477111  0.82469299  0.84265782  1
  In  In6  1  0.33089351  -0.00816881  0.65305000  1
  In  In7  1  0.79882037  -0.00738394  0.80458072  1
  In  In8  1  0.67548956  0.49912401  0.15467003  1
  In  In9  1  0.50163401  0.48927242  0.01217515  1
  In  In10  1  0.16776140  0.82869907  0.02178736  1
  In  In11  1  0.33559312  0.33383263  0.68218504  1
  In  In12  1  0.01714873  0.35881106  0.65064975  1
  In  In13  1  0.80477896  0.64332453  0.81886491  1
  In  In14  1  0.67767225  0.48814095  0.48942996  1
  In  In15  1  0.67043102  0.67431743  0.33096167  1
  In  In16  1  0.51507949  0.49566339  0.65835197  1
  In  In17  1  -0.02471323  0.01677645  0.02604353  1
  In  In18  1  0.83296643  0.66188120  0.17148384  1
  In  In19  1  0.66793247  0.83884212  0.49933600  1
  In  In20  1  0.68040451  0.01918388  0.33424355  1
  In  In21  1  0.81917047  -0.01213353  0.15882164  1
  In  In22  1  -0.00890027  0.49473758  0.82488038  1
  In  In23  1  -0.00934809  0.16863838  0.83009741  1
  In  In24  1  0.16003290  0.16863985  0.35903256  1
  In  In25  1  0.14528486  0.16410843  0.02282464  1
  In  In26  1  0.33177346  0.17858894  0.49230610  1
  In  In27  1  -0.00980306  0.66016188  0.02293377  1
  In  In28  1  0.17783259  0.32906744  0.16921825  1
  In  In29  1  0.48628533  0.33235081  0.15302194  1
  In  In30  1  0.16372907  0.85987048  0.65347114  1
  In  In31  1  0.48226618  0.81803293  0.68734275  1
  In  In32  1  0.33615693  -0.01369052  0.01154997  1
  In  In33  1  0.32847972  0.66697324  0.32104837  1
  In  In34  1  0.50386433  0.82592004  0.32509199  1
  In  In35  1  0.51379164  0.84156882  0.01825104  1
  In  In36  1  0.65208950  0.67292371  -0.00490057  1
  In  In37  1  0.18422982  0.65902447  0.82896411  1
  In  In38  1  0.35361914  -0.00789838  0.31686199  1
  In  In39  1  0.17327988  0.50097850  0.30182200  1
  In  In40  1  -0.01277001  0.14397568  0.17020283  1
  In  In41  1  0.17012738  0.69026039  0.48476185  1
  In  In42  1  0.83132221  0.83855192  0.00104867  1
  In  In43  1  0.83173744  0.34596640  0.18715958  1
  In  In44  1  0.51786205  0.16802038  0.33873031  1
  In  In45  1  0.18543957  0.49662350  0.01194893  1
  In  In46  1  -0.01542569  0.17424758  0.48603446  1
  In  In47  1  0.85574864  0.85628863  0.35743599  1
  In  In48  1  0.66331302  0.64929706  0.66245996  1
  In  In49  1  0.33107685  0.48951236  0.84601270  1
  In  In50  1  0.49312622  0.51159480  0.33605829  1
  In  In51  1  0.86006527  0.81009284  0.62863743  1
  In  In52  1  0.51319899  0.17619398  -0.00315635  1
  In  In53  1  0.66702848  0.01851783  0.65315179  1
  In  In54  1  0.16091860  0.51798473  0.67163906  1
  In  In55  1  0.00351126  0.64382425  0.33275100  1
  In  In56  1  0.52839811  0.17503666  0.66347835  1
  In  In57  1  0.67104411  0.31842262  0.33715281  1
  In  In58  1  0.15950067  -0.00059043  0.50888014  1
  In  In59  1  0.79973850  0.15752626  0.00841835  1
  In  In60  1  -0.03326241  0.02508449  0.65427310  1
  In  In61  1  0.84800024  0.49982060  0.66208732  1
  In  In62  1  0.82950495  0.17149124  0.33429206  1
  In  In63  1  0.17620407  -0.00142076  0.82870809  1
  In  In64  1  0.36522331  0.49964660  0.50214499  1
  In  In65  1  0.34327491  0.67034474  0.02236486  1
  In  In66  1  0.34938587  0.18672069  0.83770423  1
  In  In67  1  0.34677917  0.15812190  0.16112456  1
  In  In68  1  -0.01289883  0.49581781  0.49453531  1
  In  In69  1  0.51212164  0.01238944  0.85711320  1
  In  In70  1  0.13657881  0.84550873  0.30737708  1
  In  In71  1  0.34872225  0.83723774  0.49460582  1
  Te  Te72  1  0.10412503  0.04742685  0.11563670  1
  Te  Te73  1  0.06002912  0.06331822  0.41003992  1
  Te  Te74  1  0.08145476  0.08076138  0.74130858  1
  Te  Te75  1  0.07872884  0.42281292  0.09756471  1
  Te  Te76  1  0.06786094  0.42013069  0.38020792  1
  Te  Te77  1  0.10437593  0.41168300  0.76522789  1
  Te  Te78  1  0.07449730  0.74834171  0.10539270  1
  Te  Te79  1  0.06105929  0.76519384  0.41282586  1
  Te  Te80  1  0.09706292  0.74910337  0.74008125  1
  Te  Te81  1  0.44261817  0.06909382  0.08386984  1
  Te  Te82  1  0.42014010  0.07583674  0.42395737  1
  Te  Te83  1  0.41759222  0.07807101  0.74806667  1
  Te  Te84  1  0.39124184  0.42955764  0.09356517  1
  Te  Te85  1  0.43423641  0.40196693  0.41794249  1
  Te  Te86  1  0.43601736  0.41376588  0.76249070  1
  Te  Te87  1  0.41775244  0.76996607  0.10722469  1
  Te  Te88  1  0.42701176  0.73147347  0.41896038  1
  Te  Te89  1  0.37729639  0.72843442  0.73287460  1
  Te  Te90  1  0.71130902  0.07241379  0.09595965  1
  Te  Te91  1  0.75941253  0.09161454  0.43931876  1
  Te  Te92  1  0.75246418  0.11596548  0.73371026  1
  Te  Te93  1  0.75355349  0.40196862  0.07615537  1
  Te  Te94  1  0.76947021  0.40361065  0.40843162  1
  Te  Te95  1  0.73543761  0.42546630  0.73256914  1
  Te  Te96  1  0.74017034  0.75436001  0.08941584  1
  Te  Te97  1  0.76592767  0.74996520  0.42506881  1
  Te  Te98  1  0.74891620  0.76362245  0.74038391  1
  Te  Te99  1  0.08179887  0.23726735  0.24662178  1
  Te  Te100  1  0.08713793  0.24282642  0.57777388  1
  Te  Te101  1  0.09133410  0.25179114  0.90901911  1
  Te  Te102  1  0.09268942  0.59734578  0.22179828  1
  Te  Te103  1  0.07299170  0.59691508  0.57570424  1
  Te  Te104  1  0.08059423  0.58242027  0.91490755  1
  Te  Te105  1  0.06264313  0.94719720  0.23180117  1
  Te  Te106  1  0.04261049  0.91395059  0.56763926  1
  Te  Te107  1  0.08003665  0.93211911  0.92985910  1
  Te  Te108  1  0.41451545  0.25050761  0.26149007  1
  Te  Te109  1  0.42296980  0.25996279  0.58192221  1
  Te  Te110  1  0.43575685  0.27686250  0.91621192  1
  Te  Te111  1  0.40766609  0.57728309  0.23413798  1
  Te  Te112  1  0.43058976  0.59788022  0.58997729  1
  Te  Te113  1  0.42158758  0.58512652  0.92208568  1
  Te  Te114  1  0.42353152  0.90177558  0.22232590  1
  Te  Te115  1  0.44307233  0.92234929  0.57821613  1
  Te  Te116  1  0.41773547  0.90642361  0.91043421  1
  Te  Te117  1  0.73854827  0.23194725  0.22897006  1
  Te  Te118  1  0.67945790  0.22993057  0.64586472  1
  Te  Te119  1  0.72815272  0.24271439  0.90795202  1
  Te  Te120  1  0.75707546  0.56613877  0.26497263  1
  Te  Te121  1  0.76699280  0.59112661  0.57036505  1
  Te  Te122  1  0.75206141  0.57063682  0.94030192  1
  Te  Te123  1  0.74536551  0.90052863  0.26061947  1
  Te  Te124  1  0.76706948  0.91996197  0.58216480  1
  Te  Te125  1  0.73120991  0.93939505  0.93938981  1
  Te  Te126  1  0.26381258  0.24850945  0.07011630  1
  Te  Te127  1  0.25530299  0.27907966  0.40527849  1
  Te  Te128  1  0.24425378  0.23907057  0.74852812  1
  Te  Te129  1  0.23759844  0.60112753  0.10148208  1
  Te  Te130  1  0.24246828  0.57016533  0.42453746  1
  Te  Te131  1  0.28316492  0.58822220  0.73247776  1
  Te  Te132  1  0.25851038  0.90693805  0.10981854  1
  Te  Te133  1  0.24682402  0.91755600  0.41313375  1
  Te  Te134  1  0.26931949  0.90090792  0.75938590  1
  Te  Te135  1  0.59543501  0.25372029  0.09411101  1
  Te  Te136  1  0.60615937  0.23204599  0.44120945  1
  Te  Te137  1  0.59120747  0.27058195  0.75653445  1
  Te  Te138  1  0.57113232  0.59557393  0.09858599  1
  Te  Te139  1  0.58461551  0.59304563  0.42779813  1
  Te  Te140  1  0.57793542  0.58891683  0.77115650  1
  Te  Te141  1  0.61778102  0.93762374  0.05677907  1
  Te  Te142  1  0.58114801  0.92513272  0.41098452  1
  Te  Te143  1  0.58824138  0.92262816  0.74788973  1
  Te  Te144  1  0.91524398  0.23861950  0.07308392  1
  Te  Te145  1  0.92528496  0.27410597  0.38880744  1
  Te  Te146  1  0.92321212  0.25910053  0.72803644  1
  Te  Te147  1  0.90578742  0.56124080  0.09058421  1
  Te  Te148  1  0.89656425  0.57770013  0.41170156  1
  Te  Te149  1  0.92930154  0.60420733  0.73914172  1
  Te  Te150  1  0.93064454  0.89168749  0.10310211  1
  Te  Te151  1  0.93885725  0.93420710  0.44998214  1
  Te  Te152  1  0.92110115  0.91067865  0.75543690  1
  Te  Te153  1  0.25216612  0.09113212  0.26112971  1
  Te  Te154  1  0.24278794  0.09893074  0.58916645  1
  Te  Te155  1  0.25090120  0.08778807  0.92866216  1
  Te  Te156  1  0.27732132  0.41532230  0.23871208  1
  Te  Te157  1  0.24373911  0.42208612  0.58335837  1
  Te  Te158  1  0.24356818  0.39746866  0.92014473  1
  Te  Te159  1  0.24380095  0.76330020  0.24829680  1
  Te  Te160  1  0.26000874  0.75562874  0.58931158  1
  Te  Te161  1  0.25689940  0.75349941  0.92292626  1
  Te  Te162  1  0.57328508  0.06901863  0.24500391  1
  Te  Te163  1  0.58864413  0.09549612  0.55076738  1
  Te  Te164  1  0.60696719  0.12164523  0.89066328  1
  Te  Te165  1  0.58574633  0.41632616  0.25244292  1
  Te  Te166  1  0.58179897  0.40366253  0.56401607  1
  Te  Te167  1  0.57719631  0.38939436  0.93082052  1
  Te  Te168  1  0.58930581  0.74754311  0.23215818  1
  Te  Te169  1  0.57862408  0.74980652  0.58572682  1
  Te  Te170  1  0.55518363  0.74359719  0.90118537  1
  Te  Te171  1  0.90599960  0.05792208  0.26459370  1
  Te  Te172  1  0.87829059  0.11010983  0.56977265  1
  Te  Te173  1  0.89582608  0.07613969  0.90664374  1
  Te  Te174  1  0.93343910  0.39482538  0.27911438  1
  Te  Te175  1  0.89564597  0.39165812  0.56508226  1
  Te  Te176  1  0.89795614  0.41274513  0.91129186  1
  Te  Te177  1  0.91724479  0.75145131  0.26032170  1
  Te  Te178  1  0.96048357  0.72033074  0.57589808  1
  Te  Te179  1  0.90210055  0.73964031  0.90790762  1
