# generated using pymatgen
data_In2Te3
_symmetry_space_group_name_H-M   'P 1'
_cell_length_a   18.78197847
_cell_length_b   18.77163197
_cell_length_c   18.77695775
_cell_angle_alpha   90.02448237
_cell_angle_beta   89.80966595
_cell_angle_gamma   89.82992086
_symmetry_Int_Tables_number   1
_chemical_formula_structural   In2Te3
_chemical_formula_sum   'In72 Te108'
_cell_volume   6620.09538681
_cell_formula_units_Z   36
loop_
 _symmetry_equiv_pos_site_id
 _symmetry_equiv_pos_as_xyz
  1  'x, y, z'
loop_
 _atom_site_type_symbol
 _atom_site_label
 _atom_site_symmetry_multiplicity
 _atom_site_fract_x
 _atom_site_fract_y
 _atom_site_fract_z
 _atom_site_occupancy
  In  In0  1  -0.00756003  0.50307342  0.47182989  1
  In  In1  1  0.49172541  0.34635375  0.17478071  1
  In  In2  1  -0.04346919  0.47581908  0.86598786  1
  In  In3  1  0.19653367  0.68042132  0.86501372  1
  In  In4  1  0.48672596  0.35341066  0.49351066  1
  In  In5  1  0.32538833  0.19277317  0.18049711  1
  In  In6  1  0.16357011  0.15622818  -0.00204045  1
  In  In7  1  0.82753940  0.01834626  0.49786947  1
  In  In8  1  0.00550224  0.18855547  0.48663273  1
  In  In9  1  0.49212643  0.50610992  -0.00163696  1
  In  In10  1  0.83415392  0.19169939  0.01240335  1
  In  In11  1  0.20660576  0.84372713  0.68611960  1
  In  In12  1  0.66822387  0.36173770  0.01355884  1
  In  In13  1  -0.01960164  0.48746692  0.16888179  1
  In  In14  1  0.18361276  0.52276862  0.01309588  1
  In  In15  1  0.48351493  -0.00358096  0.82355433  1
  In  In16  1  0.82400574  0.83952923  0.33217813  1
  In  In17  1  0.15312573  0.00924972  0.15166476  1
  In  In18  1  0.02605954  0.81795436  0.15572686  1
  In  In19  1  0.15141260  0.18196364  0.34864414  1
  In  In20  1  0.18306240  0.84061707  0.30266258  1
  In  In21  1  0.00918079  0.85107797  0.83641564  1
  In  In22  1  0.16691693  0.68168080  0.49664753  1
  In  In23  1  0.67379608  0.34683783  0.33103313  1
  In  In24  1  0.80353539  0.63875602  0.19983566  1
  In  In25  1  0.17423839  0.32993726  0.83821218  1
  In  In26  1  0.81518145  -0.01109116  0.84242372  1
  In  In27  1  0.48600474  0.33419353  0.86838641  1
  In  In28  1  -0.02199453  0.83451970  0.51316028  1
  In  In29  1  0.64147136  0.82678953  0.49423480  1
  In  In30  1  -0.00807960  0.64985034  0.33529200  1
  In  In31  1  0.84795235  0.02123098  0.19588878  1
  In  In32  1  0.00415356  0.16803198  0.81901506  1
  In  In33  1  0.36722647  0.68238132  0.35435388  1
  In  In34  1  0.50158630  0.00825827  0.19604065  1
  In  In35  1  0.66524320  0.16555123  0.19387132  1
  In  In36  1  0.17273082  0.47346639  0.65563272  1
  In  In37  1  0.34915410  -0.00086169  0.33916532  1
  In  In38  1  0.83249370  0.33010158  0.48846824  1
  In  In39  1  0.66122603  0.14692988  0.84431922  1
  In  In40  1  0.50129516  0.15041855  0.66527684  1
  In  In41  1  0.33302724  0.33005503  0.67607319  1
  In  In42  1  0.67348706  0.34826362  0.68069006  1
  In  In43  1  -0.01360275  0.68748484  0.65999552  1
  In  In44  1  0.79448035  0.52580693  0.64284136  1
  In  In45  1  0.51429632  0.80893146  -0.00031698  1
  In  In46  1  0.02270689  -0.01286854  -0.01720166  1
  In  In47  1  0.66668588  0.66058916  -0.01626657  1
  In  In48  1  0.19287655  0.31948947  0.51318105  1
  In  In49  1  0.01344278  0.65634582  0.01313064  1
  In  In50  1  0.33958123  0.34500720  0.33805645  1
  In  In51  1  -0.02300287  0.34399070  0.32765909  1
  In  In52  1  0.34723863  0.50638891  0.82263606  1
  In  In53  1  0.69074725  -0.03049265  -0.00853500  1
  In  In54  1  0.82368295  0.79601518  0.66836709  1
  In  In55  1  0.36507302  0.65092333  0.65991409  1
  In  In56  1  0.66741727  0.16974567  0.50964529  1
  In  In57  1  0.33678511  0.00182701  -0.00362004  1
  In  In58  1  -0.00770982  0.31530155  0.66340154  1
  In  In59  1  0.17093404  0.50960860  0.32043253  1
  In  In60  1  0.47895644  0.19747226  -0.01117617  1
  In  In61  1  0.66473165  0.00364703  0.66605912  1
  In  In62  1  0.19804124  0.02434687  0.51275276  1
  In  In63  1  0.81557537  0.66043855  0.82606493  1
  In  In64  1  0.35020808  0.83188971  0.16992833  1
  In  In65  1  0.65367076  0.81249697  0.18901186  1
  In  In66  1  0.83507249  0.84278486  -0.00572010  1
  In  In67  1  0.53531554  0.53551885  0.66332336  1
  In  In68  1  0.50493254  0.66109608  0.18205125  1
  In  In69  1  0.15976764  0.33650543  0.17417170  1
  In  In70  1  0.01328331  0.00819193  0.65419018  1
  In  In71  1  0.48602985  0.83696567  0.64991133  1
  Te  Te72  1  0.05091202  0.09934326  0.08455984  1
  Te  Te73  1  0.08127578  0.06913913  0.42403436  1
  Te  Te74  1  0.08998069  0.05851256  0.76936635  1
  Te  Te75  1  0.08434302  0.42287443  0.07393997  1
  Te  Te76  1  0.09933069  0.40062991  0.41299288  1
  Te  Te77  1  0.07194850  0.41356956  0.75489804  1
  Te  Te78  1  0.12229226  0.74775546  0.06348970  1
  Te  Te79  1  0.07448014  0.76058841  0.40362770  1
  Te  Te80  1  0.09295078  0.74953200  0.74881286  1
  Te  Te81  1  0.41360234  0.09109016  0.09708789  1
  Te  Te82  1  0.42559157  0.04914972  0.45513668  1
  Te  Te83  1  0.39486725  0.04294591  0.70471130  1
  Te  Te84  1  0.40827050  0.40363988  0.06745378  1
  Te  Te85  1  0.44041999  0.44506506  0.38503696  1
  Te  Te86  1  0.44131934  0.42021002  0.73752903  1
  Te  Te87  1  0.41303920  0.72646949  0.07819977  1
  Te  Te88  1  0.43283963  0.78156820  0.44596498  1
  Te  Te89  1  0.40083547  0.76351426  0.75015675  1
  Te  Te90  1  0.74805426  0.08098978  0.08273712  1
  Te  Te91  1  0.72954848  0.08016419  0.40648680  1
  Te  Te92  1  0.76188681  0.09229701  0.74181449  1
  Te  Te93  1  0.78602394  0.40272049  0.09654790  1
  Te  Te94  1  0.74171398  0.43617807  0.43362240  1
  Te  Te95  1  0.76294881  0.43698976  0.75750867  1
  Te  Te96  1  0.75077882  0.75109407  0.08592267  1
  Te  Te97  1  0.73305880  0.74664698  0.40331569  1
  Te  Te98  1  0.71185237  0.71516834  0.72989183  1
  Te  Te99  1  0.06090635  0.24119389  0.24157958  1
  Te  Te100  1  0.10215134  0.23059483  0.59809836  1
  Te  Te101  1  0.07156448  0.25578430  0.92413944  1
  Te  Te102  1  0.08083588  0.58937806  0.22738107  1
  Te  Te103  1  0.08240579  0.57992999  0.57744116  1
  Te  Te104  1  0.08034822  0.57430721  0.90081936  1
  Te  Te105  1  0.06951179  0.92931364  0.25211236  1
  Te  Te106  1  0.09718370  0.90209139  0.58135020  1
  Te  Te107  1  0.12312115  0.90344952  0.91441527  1
  Te  Te108  1  0.43636113  0.24023748  0.27051053  1
  Te  Te109  1  0.41842847  0.24560030  0.57904097  1
  Te  Te110  1  0.38617686  0.22577839  0.87791915  1
  Te  Te111  1  0.42498147  0.57018965  0.27066661  1
  Te  Te112  1  0.44636825  0.58507545  0.55492628  1
  Te  Te113  1  0.40834379  0.59969273  0.91822998  1
  Te  Te114  1  0.44581187  0.88491071  0.27546941  1
  Te  Te115  1  0.42280368  0.91380888  0.53420616  1
  Te  Te116  1  0.40770082  0.89212835  0.91275371  1
  Te  Te117  1  0.76237620  0.26658287  0.23894739  1
  Te  Te118  1  0.76022946  0.25151551  0.59773251  1
  Te  Te119  1  0.73583181  0.25806389  0.91565923  1
  Te  Te120  1  0.68728724  0.57468231  0.27009340  1
  Te  Te121  1  0.69473078  0.60746845  0.56191492  1
  Te  Te122  1  0.76098771  0.56327765  0.92298014  1
  Te  Te123  1  0.73509453  0.93082768  0.24793186  1
  Te  Te124  1  0.75159296  0.90681504  0.57952215  1
  Te  Te125  1  0.73171754  0.86753598  0.88450250  1
  Te  Te126  1  0.24819247  0.26192596  0.07067579  1
  Te  Te127  1  0.27588115  0.22999685  0.42066572  1
  Te  Te128  1  0.23670008  0.23638328  0.73986009  1
  Te  Te129  1  0.23454950  0.63147662  0.09575961  1
  Te  Te130  1  0.25767080  0.58779674  0.41777183  1
  Te  Te131  1  0.23855924  0.58264058  0.74081980  1
  Te  Te132  1  0.25031401  0.91140422  0.08577332  1
  Te  Te133  1  0.24970721  0.90949568  0.41744333  1
  Te  Te134  1  0.26691809  0.96183587  0.74776190  1
  Te  Te135  1  0.58878178  0.24771590  0.08308222  1
  Te  Te136  1  0.58274213  0.25859423  0.41903139  1
  Te  Te137  1  0.57834404  0.24509917  0.75700858  1
  Te  Te138  1  0.59367964  0.57618467  0.08785015  1
  Te  Te139  1  0.64334320  0.56975181  0.42219538  1
  Te  Te140  1  0.59806144  0.61000010  0.77384233  1
  Te  Te141  1  0.57627829  0.91333380  0.09294042  1
  Te  Te142  1  0.54428344  0.89623835  0.40380396  1
  Te  Te143  1  0.58508989  0.90703994  0.75085304  1
  Te  Te144  1  0.90745990  0.29340420  0.09268226  1
  Te  Te145  1  0.88983507  0.22428967  0.39055008  1
  Te  Te146  1  0.90177377  0.25929616  0.76555259  1
  Te  Te147  1  0.89902321  0.58978528  0.08560416  1
  Te  Te148  1  0.88383860  0.57415438  0.40141100  1
  Te  Te149  1  0.91712425  0.57916392  0.74196088  1
  Te  Te150  1  0.92128640  0.92156885  0.09098950  1
  Te  Te151  1  0.91895199  0.93062609  0.41048636  1
  Te  Te152  1  0.90909822  0.91274410  0.73621823  1
  Te  Te153  1  0.24469340  0.08229610  0.25278595  1
  Te  Te154  1  0.27028273  0.09409398  0.61811737  1
  Te  Te155  1  0.25587096  0.08556434  0.90495909  1
  Te  Te156  1  0.26643271  0.42917000  0.23129683  1
  Te  Te157  1  0.28503828  0.43037577  0.56279355  1
  Te  Te158  1  0.26007026  0.42545533  0.91932724  1
  Te  Te159  1  0.26102709  0.72484046  0.24476505  1
  Te  Te160  1  0.27002005  0.75059832  0.58262358  1
  Te  Te161  1  0.29495004  0.78006151  0.90044665  1
  Te  Te162  1  0.58326743  0.08681028  0.29029282  1
  Te  Te163  1  0.57151029  0.06032805  0.55993947  1
  Te  Te164  1  0.56992773  0.06464878  0.93356723  1
  Te  Te165  1  0.59812416  0.43269550  0.23178769  1
  Te  Te166  1  0.59485044  0.42267811  0.57503846  1
  Te  Te167  1  0.59208520  0.43584724  0.90294505  1
  Te  Te168  1  0.59510903  0.71799363  0.29017125  1
  Te  Te169  1  0.57351817  0.72876044  0.58666546  1
  Te  Te170  1  0.56566266  0.72077312  0.88846596  1
  Te  Te171  1  0.92498188  0.12129786  0.26634332  1
  Te  Te172  1  0.91771079  0.10418279  0.58513223  1
  Te  Te173  1  0.90548490  0.07840402  0.92529717  1
  Te  Te174  1  0.87638184  0.42882068  0.25900728  1
  Te  Te175  1  0.91715951  0.42392347  0.58151621  1
  Te  Te176  1  0.88896478  0.39638003  0.97304465  1
  Te  Te177  1  0.91295423  0.75135481  0.23647949  1
  Te  Te178  1  0.88601255  0.71895210  0.54965196  1
  Te  Te179  1  0.92543299  0.74428140  0.91049435  1
