# generated using pymatgen
data_In2Te3
_symmetry_space_group_name_H-M   'P 1'
_cell_length_a   18.93179247
_cell_length_b   18.92594145
_cell_length_c   18.93440263
_cell_angle_alpha   90.01799336
_cell_angle_beta   89.88917271
_cell_angle_gamma   90.01184167
_symmetry_Int_Tables_number   1
_chemical_formula_structural   In2Te3
_chemical_formula_sum   'In72 Te108'
_cell_volume   6784.22108243
_cell_formula_units_Z   36
loop_
 _symmetry_equiv_pos_site_id
 _symmetry_equiv_pos_as_xyz
  1  'x, y, z'
loop_
 _atom_site_type_symbol
 _atom_site_label
 _atom_site_symmetry_multiplicity
 _atom_site_fract_x
 _atom_site_fract_y
 _atom_site_fract_z
 _atom_site_occupancy
  In  In0  1  0.52068391  0.50789886  -0.01159929  1
  In  In1  1  0.16804209  0.66048007  0.49660235  1
  In  In2  1  0.83921333  0.33124839  0.81957380  1
  In  In3  1  -0.03591816  0.34150887  0.65426784  1
  In  In4  1  0.36311850  0.32927807  0.00665082  1
  In  In5  1  0.51334761  0.31383222  0.19418310  1
  In  In6  1  0.49769526  0.51677411  0.65256939  1
  In  In7  1  0.51430422  0.83648235  0.65132149  1
  In  In8  1  0.15501622  0.31750796  0.16057677  1
  In  In9  1  0.15999408  0.16431262  0.66615937  1
  In  In10  1  0.32582920  0.49998966  0.83543252  1
  In  In11  1  0.35608452  0.51289695  0.49486353  1
  In  In12  1  0.66338582  0.66920017  0.65320736  1
  In  In13  1  0.69302968  0.48056592  0.84249445  1
  In  In14  1  0.35501088  0.02466118  0.32122232  1
  In  In15  1  0.49765010  0.67565832  0.83301539  1
  In  In16  1  0.00115148  -0.01923974  0.00797305  1
  In  In17  1  0.67253706  -0.01314643  0.02108946  1
  In  In18  1  0.66708300  0.15906437  0.80907024  1
  In  In19  1  0.75745405  -0.02204029  0.45585624  1
  In  In20  1  0.00476084  0.00047697  0.65383370  1
  In  In21  1  0.51649253  0.84504840  0.37444533  1
  In  In22  1  0.32849415  0.36087041  0.34079046  1
  In  In23  1  0.80071987  -0.01279031  0.21137709  1
  In  In24  1  0.33938988  0.81967702  0.50019099  1
  In  In25  1  -0.02765205  0.80343910  0.17938982  1
  In  In26  1  0.53650531  0.18816311  0.33146132  1
  In  In27  1  -0.01164362  0.82116169  0.48671295  1
  In  In28  1  0.00820028  0.82139716  0.84197758  1
  In  In29  1  0.51607517  0.65068843  0.17135964  1
  In  In30  1  0.34429917  -0.02110635  0.67719623  1
  In  In31  1  0.32218586  0.51632412  0.15025723  1
  In  In32  1  0.82158983  0.51451066  0.66234510  1
  In  In33  1  0.15101905  -0.01691982  0.51400710  1
  In  In34  1  0.32967992  0.33768443  0.66007610  1
  In  In35  1  0.66745327  0.50250948  0.50322054  1
  In  In36  1  0.19234255  0.16721432  0.32618113  1
  In  In37  1  0.66700363  0.34415381  0.01416157  1
  In  In38  1  0.00296772  0.65430225  -0.00662138  1
  In  In39  1  0.00280405  -0.00535371  0.33367525  1
  In  In40  1  0.14656016  0.32466126  0.83864947  1
  In  In41  1  0.15677265  0.49875088  0.02360598  1
  In  In42  1  0.50741038  0.84336811  0.00737760  1
  In  In43  1  0.82241364  0.78799078  0.05801703  1
  In  In44  1  -0.00442623  0.14213014  0.15489015  1
  In  In45  1  0.81117979  0.34158593  0.49514697  1
  In  In46  1  0.51938267  0.49628735  0.32862863  1
  In  In47  1  0.12912111  0.52109903  0.33774171  1
  In  In48  1  0.35608010  0.83863586  0.17137955  1
  In  In49  1  0.19165683  0.69914625  0.85145984  1
  In  In50  1  0.34889368  -0.01668672  0.00389614  1
  In  In51  1  -0.01309675  0.18554963  0.50069085  1
  In  In52  1  -0.00603668  0.30915211  0.00749001  1
  In  In53  1  -0.01392651  0.35902150  0.34561478  1
  In  In54  1  0.67839518  0.67397221  0.35470910  1
  In  In55  1  -0.02674503  0.50504324  0.82399460  1
  In  In56  1  0.16907046  0.52558428  0.66570497  1
  In  In57  1  0.34062267  0.14534270  0.14710020  1
  In  In58  1  0.17231453  0.85174358  0.32501756  1
  In  In59  1  0.47728454  -0.00648413  0.84364053  1
  In  In60  1  0.83731406  0.15759303  0.00781707  1
  In  In61  1  0.20561696  -0.00247414  0.83767413  1
  In  In62  1  0.33779440  0.17482258  0.48602308  1
  In  In63  1  0.52013877  0.14168388  0.64016801  1
  In  In64  1  0.15341456  0.68510236  0.17689136  1
  In  In65  1  0.64657976  0.83433849  0.82987618  1
  In  In66  1  0.82185494  0.18715074  0.65421354  1
  In  In67  1  0.82307009  0.53196237  0.02820775  1
  In  In68  1  0.81832652  0.00353279  0.83138575  1
  In  In69  1  0.48814615  0.16182586  -0.00891408  1
  In  In70  1  0.84603942  0.53483191  0.34395265  1
  In  In71  1  0.83637371  0.83268614  0.63788002  1
  Te  Te72  1  0.09346001  0.08001329  0.06687097  1
  Te  Te73  1  0.09068563  0.09310821  0.42465881  1
  Te  Te74  1  0.08852436  0.06960841  0.75783070  1
  Te  Te75  1  0.05655071  0.41511005  0.09914245  1
  Te  Te76  1  0.08003418  0.42467429  0.43531722  1
  Te  Te77  1  0.07428273  0.41574649  0.74065260  1
  Te  Te78  1  0.07512038  0.76253976  0.07275033  1
  Te  Te79  1  0.08529411  0.74921249  0.39361603  1
  Te  Te80  1  0.07872261  0.72166865  0.76139765  1
  Te  Te81  1  0.44995507  0.05611111  0.09354029  1
  Te  Te82  1  0.44571134  0.09333314  0.41962235  1
  Te  Te83  1  0.41632685  0.09129689  0.74640696  1
  Te  Te84  1  0.43543074  0.42752064  0.09692636  1
  Te  Te85  1  0.44319792  0.40612713  0.42611492  1
  Te  Te86  1  0.41997420  0.42173041  0.74836696  1
  Te  Te87  1  0.42716387  0.73702912  0.08338208  1
  Te  Te88  1  0.41019946  0.74602175  0.39631494  1
  Te  Te89  1  0.42376497  0.75050776  0.73093650  1
  Te  Te90  1  0.74500366  0.08894384  0.10607375  1
  Te  Te91  1  0.73863506  0.09874752  0.36979372  1
  Te  Te92  1  0.74525901  0.06808332  0.71658001  1
  Te  Te93  1  0.76270892  0.41609513  0.09716523  1
  Te  Te94  1  0.74248639  0.42970817  0.39381572  1
  Te  Te95  1  0.74459682  0.39849661  0.72400584  1
  Te  Te96  1  0.73750622  0.68888279  0.12379146  1
  Te  Te97  1  0.77531761  0.77352436  0.41114924  1
  Te  Te98  1  0.74561173  0.75951125  0.74361056  1
  Te  Te99  1  0.07410341  0.23860629  0.26144425  1
  Te  Te100  1  0.08146953  0.26618210  0.58642017  1
  Te  Te101  1  0.08304104  0.22658424  0.92637038  1
  Te  Te102  1  0.05066600  0.59110536  0.23248731  1
  Te  Te103  1  0.06912880  0.58797192  0.57927013  1
  Te  Te104  1  0.09404115  0.56650461  0.90233860  1
  Te  Te105  1  0.07252791  0.91296836  0.22828606  1
  Te  Te106  1  0.08002277  0.88119070  0.59747576  1
  Te  Te107  1  0.10131788  0.91225501  0.91749715  1
  Te  Te108  1  0.38587364  0.25067950  0.25031633  1
  Te  Te109  1  0.42578552  0.25391979  0.57892437  1
  Te  Te110  1  0.42221457  0.25199603  0.89752657  1
  Te  Te111  1  0.41118033  0.57714258  0.25561716  1
  Te  Te112  1  0.40855931  0.61279493  0.58842007  1
  Te  Te113  1  0.40947949  0.58941406  0.92527851  1
  Te  Te114  1  0.44653190  0.92408546  0.25824835  1
  Te  Te115  1  0.42680717  0.92711050  0.56290718  1
  Te  Te116  1  0.40048758  0.87158771  0.89288294  1
  Te  Te117  1  0.68287097  0.23168448  0.29364665  1
  Te  Te118  1  0.72224116  0.23523479  0.55500797  1
  Te  Te119  1  0.75170422  0.24378887  0.91371917  1
  Te  Te120  1  0.74377931  0.59263531  0.24676621  1
  Te  Te121  1  0.76439024  0.60696612  0.55624509  1
  Te  Te122  1  0.76497443  0.58976900  0.90730989  1
  Te  Te123  1  0.75341092  0.87003035  0.28983026  1
  Te  Te124  1  0.71897563  0.89777788  0.57523844  1
  Te  Te125  1  0.75315904  0.90258476  0.92274051  1
  Te  Te126  1  0.25281716  0.24423575  0.07098844  1
  Te  Te127  1  0.23773221  0.27289871  0.42608945  1
  Te  Te128  1  0.24949719  0.24857229  0.75493827  1
  Te  Te129  1  0.24047182  0.61608595  0.07064289  1
  Te  Te130  1  0.25355409  0.57931604  0.40006869  1
  Te  Te131  1  0.26570727  0.60714895  0.74859420  1
  Te  Te132  1  0.25706053  0.89015961  0.07292032  1
  Te  Te133  1  0.25895561  0.94142139  0.41265651  1
  Te  Te134  1  0.23716646  0.89847153  0.73375722  1
  Te  Te135  1  0.58451787  0.23670473  0.08387024  1
  Te  Te136  1  0.61960294  0.26276941  0.43124463  1
  Te  Te137  1  0.58624657  0.24413230  0.72394455  1
  Te  Te138  1  0.61174728  0.58417612  0.07668696  1
  Te  Te139  1  0.57158252  0.59505367  0.43033510  1
  Te  Te140  1  0.59699579  0.58039129  0.76373134  1
  Te  Te141  1  0.60893321  0.88542925  0.10455061  1
  Te  Te142  1  0.60553977  0.94806209  0.44030217  1
  Te  Te143  1  0.57896395  0.93908062  0.74504357  1
  Te  Te144  1  0.89848724  0.25079426  0.11096125  1
  Te  Te145  1  0.89354659  0.25062466  0.40391111  1
  Te  Te146  1  0.93029369  0.23062403  0.75343439  1
  Te  Te147  1  0.93110257  0.59410210  0.10911077  1
  Te  Te148  1  0.94214011  0.64463189  0.37023936  1
  Te  Te149  1  0.89417020  0.60443841  0.75308178  1
  Te  Te150  1  0.89258145  0.92077809  0.10021622  1
  Te  Te151  1  0.90922473  0.93864171  0.43604092  1
  Te  Te152  1  0.91640958  0.91419822  0.75229151  1
  Te  Te153  1  0.24009437  0.06229554  0.22744026  1
  Te  Te154  1  0.25576283  0.08177414  0.57894247  1
  Te  Te155  1  0.28448580  0.08671177  0.92312718  1
  Te  Te156  1  0.23314171  0.42590278  0.23798043  1
  Te  Te157  1  0.25176768  0.43456042  0.57483511  1
  Te  Te158  1  0.24618474  0.41031715  0.93226512  1
  Te  Te159  1  0.26389603  0.75079729  0.25847973  1
  Te  Te160  1  0.24132394  0.75295873  0.58463192  1
  Te  Te161  1  0.26969288  0.79481248  0.93026737  1
  Te  Te162  1  0.62001106  0.07904522  0.27188986  1
  Te  Te163  1  0.59372775  0.07217980  0.53406984  1
  Te  Te164  1  0.59683468  0.07141960  0.91584664  1
  Te  Te165  1  0.60512480  0.41982913  0.23721310  1
  Te  Te166  1  0.58897565  0.41897817  0.59397221  1
  Te  Te167  1  0.57946925  0.39728184  0.90255404  1
  Te  Te168  1  0.57749476  0.74850120  0.26939792  1
  Te  Te169  1  0.58921037  0.75099749  0.55638582  1
  Te  Te170  1  0.59278919  0.73886228  0.93372377  1
  Te  Te171  1  0.90444110  0.08653124  0.26443640  1
  Te  Te172  1  0.90514832  0.08205294  0.57474996  1
  Te  Te173  1  0.92280860  0.07474036  0.91480839  1
  Te  Te174  1  0.89456533  0.42601927  0.25533123  1
  Te  Te175  1  0.90857352  0.44157143  0.55768818  1
  Te  Te176  1  0.90993171  0.41195347  0.92636652  1
  Te  Te177  1  0.88050377  0.76524017  0.29352030  1
  Te  Te178  1  0.92260831  0.72836098  0.58029031  1
  Te  Te179  1  0.90445147  0.75343726  0.93425187  1
