# generated using pymatgen
data_In2Te3
_symmetry_space_group_name_H-M   'P 1'
_cell_length_a   18.91295602
_cell_length_b   18.88986619
_cell_length_c   18.92638585
_cell_angle_alpha   89.89172932
_cell_angle_beta   90.08161884
_cell_angle_gamma   89.87678863
_symmetry_Int_Tables_number   1
_chemical_formula_structural   In2Te3
_chemical_formula_sum   'In72 Te108'
_cell_volume   6761.66672516
_cell_formula_units_Z   36
loop_
 _symmetry_equiv_pos_site_id
 _symmetry_equiv_pos_as_xyz
  1  'x, y, z'
loop_
 _atom_site_type_symbol
 _atom_site_label
 _atom_site_symmetry_multiplicity
 _atom_site_fract_x
 _atom_site_fract_y
 _atom_site_fract_z
 _atom_site_occupancy
  In  In0  1  0.51501408  0.50383463  0.68845920  1
  In  In1  1  0.32471780  0.32599414  0.01420878  1
  In  In2  1  0.17333020  0.18317685  -0.00410668  1
  In  In3  1  0.66128657  0.84836516  0.18300184  1
  In  In4  1  0.50217849  0.29483514  0.18838704  1
  In  In5  1  0.67971470  0.53673445  0.84342648  1
  In  In6  1  0.17177360  0.14871888  0.32847116  1
  In  In7  1  0.48306807  0.48507738  0.31970151  1
  In  In8  1  0.65879943  0.17503759  0.84328672  1
  In  In9  1  0.31979510  -0.00585240  0.65799746  1
  In  In10  1  0.01836342  0.16051372  0.15942871  1
  In  In11  1  0.83364318  0.33922022  0.17162143  1
  In  In12  1  0.82202563  0.69863059  0.87056965  1
  In  In13  1  0.51129450  0.70122628  0.86613833  1
  In  In14  1  0.82497327  0.49864832  0.66621390  1
  In  In15  1  0.49041207  0.15349432  0.01807895  1
  In  In16  1  0.49293821  0.52700400  0.02479457  1
  In  In17  1  0.34397814  0.16888578  0.80356340  1
  In  In18  1  0.17335093  0.82352381  0.30985623  1
  In  In19  1  0.82742033  0.81158163  0.33600133  1
  In  In20  1  0.82503162  0.15759012  0.00890525  1
  In  In21  1  0.67321163  -0.00085581  -0.01461660  1
  In  In22  1  0.13732205  0.52725744  -0.01441183  1
  In  In23  1  0.33809773  0.84459737  0.51269914  1
  In  In24  1  0.66447970  0.66677727  0.33627759  1
  In  In25  1  0.68120001  0.29833238  0.66272257  1
  In  In26  1  0.00398711  0.65453209  0.32243523  1
  In  In27  1  0.19971116  -0.00940556  0.13330102  1
  In  In28  1  0.15346311  -0.01188317  0.49753447  1
  In  In29  1  -0.01397037  0.13837441  0.82623697  1
  In  In30  1  0.66257632  -0.02209579  0.67555794  1
  In  In31  1  0.00376382  -0.06128227  0.00074196  1
  In  In32  1  0.17945445  -0.00773763  0.84289186  1
  In  In33  1  0.66630686  0.47161918  0.48945216  1
  In  In34  1  0.00219046  0.36711247  -0.01613130  1
  In  In35  1  -0.01210351  -0.01877580  0.69094839  1
  In  In36  1  0.15575076  0.70832416  0.13129615  1
  In  In37  1  -0.01050591  0.83011119  0.52411287  1
  In  In38  1  0.49409167  0.31647945  0.47901955  1
  In  In39  1  0.83853446  0.68149213  0.16778297  1
  In  In40  1  0.19346532  0.49498556  0.33490553  1
  In  In41  1  0.82284433  -0.04590825  0.83163313  1
  In  In42  1  0.82868685  0.67029645  0.51484338  1
  In  In43  1  0.17909113  0.33370439  0.81672466  1
  In  In44  1  0.53974185  0.31187984  0.83125528  1
  In  In45  1  0.00230585  0.56220431  0.82493168  1
  In  In46  1  0.66082302  0.52675385  0.15833615  1
  In  In47  1  0.49321904  0.84643208  0.66748984  1
  In  In48  1  0.00023598  0.50655398  0.50022462  1
  In  In49  1  0.32324735  0.65150887  0.65152625  1
  In  In50  1  0.48209223  0.12751429  0.35332821  1
  In  In51  1  0.66678691  0.00915647  0.34996708  1
  In  In52  1  0.86018010  0.35154102  0.83075284  1
  In  In53  1  0.49525061  0.67847317  0.51920015  1
  In  In54  1  0.35529827  0.69390046  0.00446277  1
  In  In55  1  0.33191626  0.49516136  0.80136763  1
  In  In56  1  0.33803492  0.32316498  0.62427474  1
  In  In57  1  0.66092783  0.35767945  0.01433864  1
  In  In58  1  0.01345480  0.32744974  0.65032991  1
  In  In59  1  -0.02440709  0.30012174  0.35769039  1
  In  In60  1  0.77347377  0.13210492  0.62433990  1
  In  In61  1  -0.00742203  0.01241282  0.31283475  1
  In  In62  1  0.49670812  0.87429273  0.34674145  1
  In  In63  1  0.17761209  0.31467441  0.48919286  1
  In  In64  1  0.16513613  0.64274808  0.49139682  1
  In  In65  1  0.68439621  0.31285456  0.33249094  1
  In  In66  1  0.33350573  0.51211753  0.17097980  1
  In  In67  1  0.36103930  0.84175297  0.84890861  1
  In  In68  1  0.47677519  -0.00257564  0.16666852  1
  In  In69  1  0.81718933  -0.00989219  0.50583120  1
  In  In70  1  0.15294170  0.52653129  0.66647841  1
  In  In71  1  0.00361037  0.49900743  0.16088343  1
  Te  Te72  1  0.08460015  0.07111070  0.05327546  1
  Te  Te73  1  0.06589393  0.08811520  0.42121007  1
  Te  Te74  1  0.09816179  0.07919278  0.74514082  1
  Te  Te75  1  0.10443491  0.41327094  0.08506604  1
  Te  Te76  1  0.08298356  0.41858827  0.41018479  1
  Te  Te77  1  0.07123385  0.42674220  0.75693790  1
  Te  Te78  1  0.06001844  0.81441347  0.08239456  1
  Te  Te79  1  0.07746629  0.75159426  0.41641953  1
  Te  Te80  1  0.07426140  0.68419870  0.77455044  1
  Te  Te81  1  0.38597286  0.10013751  0.10578438  1
  Te  Te82  1  0.40044866  0.06821812  0.46305899  1
  Te  Te83  1  0.41995560  0.05915706  0.74440826  1
  Te  Te84  1  0.43638840  0.40023128  0.08937148  1
  Te  Te85  1  0.40244562  0.41368767  0.41843824  1
  Te  Te86  1  0.42012250  0.38752070  0.74127534  1
  Te  Te87  1  0.45239425  0.79456512  0.04990491  1
  Te  Te88  1  0.41506502  0.75556494  0.41754927  1
  Te  Te89  1  0.41050147  0.73516916  0.74354209  1
  Te  Te90  1  0.74820229  0.06649152  0.09317728  1
  Te  Te91  1  0.77963445  0.09496477  0.40335277  1
  Te  Te92  1  0.75828707  0.08149489  0.77378087  1
  Te  Te93  1  0.76689049  0.44168957  0.08060221  1
  Te  Te94  1  0.76477342  0.41717528  0.39719105  1
  Te  Te95  1  0.73266738  0.41330335  0.75791529  1
  Te  Te96  1  0.73151234  0.75202204  0.09413051  1
  Te  Te97  1  0.72970090  0.75918465  0.43793576  1
  Te  Te98  1  0.71568648  0.75184739  0.78129043  1
  Te  Te99  1  0.08084774  0.25560629  0.25886693  1
  Te  Te100  1  0.07993452  0.23289555  0.56223240  1
  Te  Te101  1  0.07186760  0.25306208  0.89852518  1
  Te  Te102  1  0.10799803  0.59315187  0.23169902  1
  Te  Te103  1  0.05087351  0.61322809  0.59302122  1
  Te  Te104  1  0.07385759  0.65604773  0.92909118  1
  Te  Te105  1  0.09917602  0.93542548  0.23705613  1
  Te  Te106  1  0.09144715  0.90251340  0.60869634  1
  Te  Te107  1  0.07405792  0.89213903  0.87801148  1
  Te  Te108  1  0.40741627  0.23998916  0.28699422  1
  Te  Te109  1  0.41761807  0.21636410  0.55942482  1
  Te  Te110  1  0.42029387  0.25638547  0.91549706  1
  Te  Te111  1  0.43767063  0.59454257  0.23137969  1
  Te  Te112  1  0.41907992  0.55742251  0.58305257  1
  Te  Te113  1  0.41271863  0.57958264  0.90355485  1
  Te  Te114  1  0.39323691  0.90530752  0.24666529  1
  Te  Te115  1  0.44129276  0.95035621  0.55884072  1
  Te  Te116  1  0.39984399  0.91792635  0.97219681  1
  Te  Te117  1  0.75499343  0.23218973  0.23145634  1
  Te  Te118  1  0.77376170  0.26453306  0.55114403  1
  Te  Te119  1  0.75714137  0.27061665  0.92109587  1
  Te  Te120  1  0.76278665  0.58283846  0.25683694  1
  Te  Te121  1  0.72635269  0.57831750  0.58242563  1
  Te  Te122  1  0.73349217  0.61185910  0.95637473  1
  Te  Te123  1  0.76317263  0.92714458  0.26198618  1
  Te  Te124  1  0.77175704  0.89827364  0.61438336  1
  Te  Te125  1  0.76063621  0.88310705  0.94658402  1
  Te  Te126  1  0.24722977  0.24386585  0.10715931  1
  Te  Te127  1  0.26579321  0.24415198  0.39440922  1
  Te  Te128  1  0.24236927  0.24192974  0.71664020  1
  Te  Te129  1  0.25336786  0.59051086  0.06560535  1
  Te  Te130  1  0.27311127  0.59425286  0.40658508  1
  Te  Te131  1  0.23131627  0.60574481  0.77237552  1
  Te  Te132  1  0.25698884  0.89548548  0.03438316  1
  Te  Te133  1  0.24996080  0.91310000  0.40759815  1
  Te  Te134  1  0.25523922  0.89359700  0.75134827  1
  Te  Te135  1  0.59964064  0.23742161  0.08434991  1
  Te  Te136  1  0.59219643  0.22387927  0.41227140  1
  Te  Te137  1  0.56985502  0.21163686  0.72200684  1
  Te  Te138  1  0.59170554  0.62627634  0.07088862  1
  Te  Te139  1  0.57307884  0.57542258  0.41924913  1
  Te  Te140  1  0.58564462  0.61968829  0.75636898  1
  Te  Te141  1  0.57485762  0.91875240  0.07773322  1
  Te  Te142  1  0.59653990  0.92097273  0.44343067  1
  Te  Te143  1  0.56944668  0.91882588  0.77567953  1
  Te  Te144  1  0.93032298  0.26174896  0.06750163  1
  Te  Te145  1  0.87698970  0.21641322  0.42640469  1
  Te  Te146  1  0.91649105  0.24534731  0.73972052  1
  Te  Te147  1  0.93542549  0.60453474  0.07911472  1
  Te  Te148  1  0.90364845  0.58546324  0.41247030  1
  Te  Te149  1  0.87605990  0.60979142  0.75200403  1
  Te  Te150  1  0.91788990  0.87688645  0.10214877  1
  Te  Te151  1  0.92207924  0.91198968  0.41480996  1
  Te  Te152  1  0.93778588  0.87328983  0.78230514  1
  Te  Te153  1  0.26293619  0.06705414  0.24312095  1
  Te  Te154  1  0.25501862  0.08122818  0.55567947  1
  Te  Te155  1  0.26692682  0.09568632  0.91319784  1
  Te  Te156  1  0.26010217  0.40682834  0.23973734  1
  Te  Te157  1  0.23058868  0.42822690  0.58404063  1
  Te  Te158  1  0.24933925  0.42457178  0.91632906  1
  Te  Te159  1  0.26519338  0.75529862  0.21747817  1
  Te  Te160  1  0.23588076  0.74905446  0.57728642  1
  Te  Te161  1  0.25070976  0.77389421  0.93188440  1
  Te  Te162  1  0.57908315  0.07918091  0.24672665  1
  Te  Te163  1  0.63599564  0.09127835  0.58399268  1
  Te  Te164  1  0.56299323  0.07704200  0.91002031  1
  Te  Te165  1  0.59544209  0.41319634  0.23754495  1
  Te  Te166  1  0.57952554  0.39907903  0.59440496  1
  Te  Te167  1  0.57513098  0.43822462  0.91531913  1
  Te  Te168  1  0.57007810  0.75989673  0.26523592  1
  Te  Te169  1  0.58847470  0.76401609  0.59144188  1
  Te  Te170  1  0.61944117  0.80427040  0.88411621  1
  Te  Te171  1  0.90669458  0.08902627  0.22102815  1
  Te  Te172  1  0.91414666  0.07004918  0.59493392  1
  Te  Te173  1  0.90652234  0.05782527  0.92667872  1
  Te  Te174  1  0.92833247  0.41580115  0.26190175  1
  Te  Te175  1  0.90881229  0.41163574  0.57485863  1
  Te  Te176  1  0.91218943  0.46570301  0.91380144  1
  Te  Te177  1  0.94190157  0.76934478  0.24352274  1
  Te  Te178  1  0.88550051  0.76942494  0.61019725  1
  Te  Te179  1  0.93281137  0.72055541  0.96912378  1
