# generated using pymatgen
data_In2Te3
_symmetry_space_group_name_H-M   'P 1'
_cell_length_a   18.81485003
_cell_length_b   18.81953521
_cell_length_c   18.82714740
_cell_angle_alpha   89.95721088
_cell_angle_beta   89.91986159
_cell_angle_gamma   89.95541752
_symmetry_Int_Tables_number   1
_chemical_formula_structural   In2Te3
_chemical_formula_sum   'In72 Te108'
_cell_volume   6666.43271614
_cell_formula_units_Z   36
loop_
 _symmetry_equiv_pos_site_id
 _symmetry_equiv_pos_as_xyz
  1  'x, y, z'
loop_
 _atom_site_type_symbol
 _atom_site_label
 _atom_site_symmetry_multiplicity
 _atom_site_fract_x
 _atom_site_fract_y
 _atom_site_fract_z
 _atom_site_occupancy
  In  In0  1  -0.01919338  0.17432116  0.83561675  1
  In  In1  1  0.18055219  0.49968215  0.65020627  1
  In  In2  1  0.16801682  0.85107567  0.00205492  1
  In  In3  1  0.33707149  0.17462820  0.52390169  1
  In  In4  1  0.17250907  0.13876038  0.33122816  1
  In  In5  1  0.49625051  0.81483352  0.35309839  1
  In  In6  1  0.83919520  0.50520465  -0.01081569  1
  In  In7  1  0.83879698  0.84476089  0.65801543  1
  In  In8  1  0.34773636  0.49006289  0.83630212  1
  In  In9  1  0.34354042  0.66069209  0.00845668  1
  In  In10  1  0.33819108  0.33063347  0.00917946  1
  In  In11  1  -0.02326119  0.50667473  0.82861155  1
  In  In12  1  0.48256690  0.83572116  0.65823214  1
  In  In13  1  0.33218461  -0.00242967  0.33123433  1
  In  In14  1  0.82900769  0.16510678  0.31148656  1
  In  In15  1  -0.00123709  0.67794654  -0.00510247  1
  In  In16  1  0.81822591  0.33552103  0.17412583  1
  In  In17  1  0.66698204  0.83250470  0.50887874  1
  In  In18  1  0.65498496  0.47068877  0.49773685  1
  In  In19  1  0.33143152  0.00099810  0.00651518  1
  In  In20  1  0.00865882  0.51351667  0.16739203  1
  In  In21  1  0.81056556  0.49545946  0.34912639  1
  In  In22  1  0.51006842  0.17436301  0.68696109  1
  In  In23  1  0.15240221  -0.01620064  0.18389278  1
  In  In24  1  0.67920731  0.67004061  0.33504951  1
  In  In25  1  0.51416112  0.47083237  -0.00355244  1
  In  In26  1  0.16609421  0.34509287  0.50657730  1
  In  In27  1  0.35227423  0.50188974  0.16538839  1
  In  In28  1  0.00544912  0.34209781  0.36965221  1
  In  In29  1  0.86203165  -0.02284105  0.47547713  1
  In  In30  1  -0.00970446  0.18113634  0.50367730  1
  In  In31  1  0.83091907  0.83565661  -0.00958253  1
  In  In32  1  0.00514009  0.16200907  0.16589970  1
  In  In33  1  0.33749241  0.17342983  0.82299299  1
  In  In34  1  -0.01310554  0.34494411  0.00377976  1
  In  In35  1  0.34455022  0.81408524  0.48532534  1
  In  In36  1  0.51376631  0.00751097  0.83805101  1
  In  In37  1  -0.00559303  0.68695879  0.32432517  1
  In  In38  1  0.19763400  0.33095950  0.18028298  1
  In  In39  1  0.83503958  0.68058410  0.51176354  1
  In  In40  1  0.64005183  0.66606455  0.66059459  1
  In  In41  1  0.51520230  0.00995242  0.16648562  1
  In  In42  1  0.13216775  0.66613771  0.83437075  1
  In  In43  1  0.80864590  0.02343663  0.13672704  1
  In  In44  1  0.52113383  0.34692567  0.81824418  1
  In  In45  1  0.17630812  0.66068640  0.47875293  1
  In  In46  1  0.21688425  0.67891409  0.19311537  1
  In  In47  1  0.49672879  0.50330875  0.33128679  1
  In  In48  1  0.50375016  0.50258399  0.66024984  1
  In  In49  1  0.00199661  0.49658849  0.52515058  1
  In  In50  1  0.64895272  0.48426513  0.16771416  1
  In  In51  1  0.66614443  0.64597702  -0.00088932  1
  In  In52  1  0.66395540  0.85445092  0.16455077  1
  In  In53  1  0.81294138  0.48438772  0.69368843  1
  In  In54  1  -0.02326150  0.03715376  -0.00587486  1
  In  In55  1  -0.01715198  0.82928452  0.82324983  1
  In  In56  1  0.33086377  0.83308619  0.80969367  1
  In  In57  1  0.35113645  0.65400487  0.65544233  1
  In  In58  1  0.67457745  0.84053293  0.83733316  1
  In  In59  1  0.66769519  0.17290738  0.49787248  1
  In  In60  1  0.50957252  -0.00583917  0.49858034  1
  In  In61  1  -0.01622803  0.33520503  0.65115594  1
  In  In62  1  0.17212434  0.32276887  0.83149307  1
  In  In63  1  0.18106689  -0.00457625  0.82769334  1
  In  In64  1  0.17176696  0.00191288  0.50026691  1
  In  In65  1  0.79259388  0.14901606  0.68433872  1
  In  In66  1  -0.00587707  0.82141291  0.18375924  1
  In  In67  1  0.54460402  0.17792126  0.00429983  1
  In  In68  1  0.36402603  0.33267721  0.34144017  1
  In  In69  1  0.00905880  -0.00285092  0.67118847  1
  In  In70  1  0.50550721  0.82414450  0.02503371  1
  In  In71  1  0.51493803  0.17589166  0.31216315  1
  Te  Te72  1  0.09838678  0.08122196  0.07713400  1
  Te  Te73  1  0.06352841  0.07942392  0.41744604  1
  Te  Te74  1  0.08687391  0.09618564  0.75761528  1
  Te  Te75  1  0.09120765  0.40821691  0.09541011  1
  Te  Te76  1  0.10441836  0.45505573  0.40923332  1
  Te  Te77  1  0.07878439  0.41847904  0.74377460  1
  Te  Te78  1  0.09753946  0.74604099  0.09015485  1
  Te  Te79  1  0.07508294  0.75832917  0.42655074  1
  Te  Te80  1  0.08861888  0.76947075  0.74030750  1
  Te  Te81  1  0.43198529  0.09629317  0.07101666  1
  Te  Te82  1  0.41796098  0.08858185  0.41738113  1
  Te  Te83  1  0.41005036  0.06622323  0.74340993  1
  Te  Te84  1  0.44044799  0.39288256  0.10433326  1
  Te  Te85  1  0.41955580  0.43097678  0.43772621  1
  Te  Te86  1  0.40554544  0.39833726  0.73426730  1
  Te  Te87  1  0.40521898  0.75272359  0.10523971  1
  Te  Te88  1  0.38825662  0.71066916  0.38501181  1
  Te  Te89  1  0.43270831  0.73188590  0.75862190  1
  Te  Te90  1  0.71591868  0.12883272  0.07489627  1
  Te  Te91  1  0.76189003  0.07809190  0.41751668  1
  Te  Te92  1  0.71431544  0.06423873  0.77553765  1
  Te  Te93  1  0.74312707  0.41506800  0.06850023  1
  Te  Te94  1  0.71900123  0.38675111  0.39068003  1
  Te  Te95  1  0.71986576  0.41126587  0.78208887  1
  Te  Te96  1  0.74244524  0.75144470  0.08110529  1
  Te  Te97  1  0.76592806  0.77100050  0.40969765  1
  Te  Te98  1  0.74448183  0.75120784  0.73439329  1
  Te  Te99  1  0.07862837  0.25403940  0.26376864  1
  Te  Te100  1  0.09338137  0.24451712  0.59579783  1
  Te  Te101  1  0.07849682  0.24821047  0.92733391  1
  Te  Te102  1  0.09859721  0.59879287  0.25375669  1
  Te  Te103  1  0.08346021  0.60171185  0.59521557  1
  Te  Te104  1  0.07603065  0.56189409  0.93119441  1
  Te  Te105  1  0.06304198  0.91220199  0.28337648  1
  Te  Te106  1  0.07524026  0.91251799  0.57074235  1
  Te  Te107  1  0.06663951  0.92612479  0.91648300  1
  Te  Te108  1  0.40970832  0.24365351  0.23346064  1
  Te  Te109  1  0.45305719  0.25269342  0.57180199  1
  Te  Te110  1  0.43404199  0.25402030  0.91276456  1
  Te  Te111  1  0.41198254  0.60293997  0.25720800  1
  Te  Te112  1  0.41451492  0.56506701  0.55668409  1
  Te  Te113  1  0.43747169  0.57971105  0.91923019  1
  Te  Te114  1  0.43197150  0.91372584  0.25352908  1
  Te  Te115  1  0.39501407  0.92786614  0.57431092  1
  Te  Te116  1  0.41483762  0.90873235  0.91548648  1
  Te  Te117  1  0.72045976  0.24274809  0.24161414  1
  Te  Te118  1  0.74484553  0.25601456  0.59413817  1
  Te  Te119  1  0.78409484  0.21356245  0.96703559  1
  Te  Te120  1  0.75020157  0.57734847  0.23631696  1
  Te  Te121  1  0.73858359  0.58115420  0.57623271  1
  Te  Te122  1  0.75724230  0.58809279  0.89859932  1
  Te  Te123  1  0.76215258  0.93176374  0.24233923  1
  Te  Te124  1  0.74943132  0.93812385  0.57832572  1
  Te  Te125  1  0.74385745  0.93720749  0.92605177  1
  Te  Te126  1  0.24806863  0.23751842  0.07953567  1
  Te  Te127  1  0.24406776  0.24790446  0.41034072  1
  Te  Te128  1  0.25999036  0.25982427  0.73155002  1
  Te  Te129  1  0.24344729  0.57339333  0.08397976  1
  Te  Te130  1  0.23094241  0.54412096  0.40759057  1
  Te  Te131  1  0.25027356  0.58725519  0.76369192  1
  Te  Te132  1  0.26270222  0.90726898  0.10615031  1
  Te  Te133  1  0.23943760  0.89902525  0.40036883  1
  Te  Te134  1  0.23505675  0.90492744  0.72511755  1
  Te  Te135  1  0.61649699  0.24880660  0.11090835  1
  Te  Te136  1  0.56110574  0.25377713  0.43037293  1
  Te  Te137  1  0.62004469  0.26034595  0.74507192  1
  Te  Te138  1  0.56166801  0.58254424  0.09118403  1
  Te  Te139  1  0.58870504  0.58740458  0.42290723  1
  Te  Te140  1  0.58025532  0.57786201  0.76164938  1
  Te  Te141  1  0.59674318  0.94130787  0.05593479  1
  Te  Te142  1  0.59844961  0.91870544  0.40172188  1
  Te  Te143  1  0.58456281  0.91650538  0.73613911  1
  Te  Te144  1  0.90276637  0.23984471  0.08143866  1
  Te  Te145  1  0.88963572  0.25808871  0.41927813  1
  Te  Te146  1  0.89230255  0.25629600  0.74319661  1
  Te  Te147  1  0.90899160  0.59776342  0.08957415  1
  Te  Te148  1  0.91839698  0.57870212  0.41824309  1
  Te  Te149  1  0.91473625  0.58749843  0.72307598  1
  Te  Te150  1  0.92732146  0.91872285  0.07940298  1
  Te  Te151  1  0.95525019  0.89269819  0.39730601  1
  Te  Te152  1  0.89899684  0.93944224  0.76191552  1
  Te  Te153  1  0.26574015  0.08518645  0.22570774  1
  Te  Te154  1  0.24045453  0.09146216  0.59583581  1
  Te  Te155  1  0.24804113  0.09547312  0.92072420  1
  Te  Te156  1  0.26229056  0.43372168  0.27034330  1
  Te  Te157  1  0.27612945  0.42074370  0.57032173  1
  Te  Te158  1  0.24635928  0.41897961  0.92521751  1
  Te  Te159  1  0.25769565  0.77593154  0.29554626  1
  Te  Te160  1  0.25252817  0.74540650  0.58551762  1
  Te  Te161  1  0.24486398  0.74958520  0.91699551  1
  Te  Te162  1  0.60805613  0.07310702  0.26195339  1
  Te  Te163  1  0.58953861  0.07927671  0.59356002  1
  Te  Te164  1  0.61057082  0.11573806  0.88085244  1
  Te  Te165  1  0.59207542  0.40150902  0.27666599  1
  Te  Te166  1  0.59123783  0.39437047  0.60622515  1
  Te  Te167  1  0.62386396  0.41364203  0.90743392  1
  Te  Te168  1  0.58501283  0.74922693  0.24597294  1
  Te  Te169  1  0.55422429  0.74398360  0.55957362  1
  Te  Te170  1  0.58241924  0.74853459  0.91837070  1
  Te  Te171  1  0.91917093  0.06440097  0.24285438  1
  Te  Te172  1  0.90808806  0.08524609  0.58939650  1
  Te  Te173  1  0.86935394  0.09824154  0.90745626  1
  Te  Te174  1  0.92370138  0.41895646  0.25609671  1
  Te  Te175  1  0.88373967  0.41361432  0.56883557  1
  Te  Te176  1  0.89492639  0.39633381  0.89478833  1
  Te  Te177  1  0.88484849  0.74075220  0.24061542  1
  Te  Te178  1  0.93438187  0.76812839  0.57569150  1
  Te  Te179  1  0.89432915  0.73031312  0.89733881  1
