# generated using pymatgen
data_In2Te3
_symmetry_space_group_name_H-M   'P 1'
_cell_length_a   18.97167445
_cell_length_b   18.94847291
_cell_length_c   18.92681683
_cell_angle_alpha   89.86951340
_cell_angle_beta   90.22450547
_cell_angle_gamma   90.09336738
_symmetry_Int_Tables_number   1
_chemical_formula_structural   In2Te3
_chemical_formula_sum   'In72 Te108'
_cell_volume   6803.81391949
_cell_formula_units_Z   36
loop_
 _symmetry_equiv_pos_site_id
 _symmetry_equiv_pos_as_xyz
  1  'x, y, z'
loop_
 _atom_site_type_symbol
 _atom_site_label
 _atom_site_symmetry_multiplicity
 _atom_site_fract_x
 _atom_site_fract_y
 _atom_site_fract_z
 _atom_site_occupancy
  In  In0  1  0.49727892  0.50377346  0.31599698  1
  In  In1  1  0.83637117  0.62150424  0.02786981  1
  In  In2  1  0.32840058  0.51535100  0.18840730  1
  In  In3  1  -0.00140895  0.17964572  0.49654032  1
  In  In4  1  0.02396874  0.32561276  0.66440737  1
  In  In5  1  0.84633529  0.84688855  0.31712691  1
  In  In6  1  0.02532926  -0.01117694  -0.02003707  1
  In  In7  1  0.68365726  0.65265571  0.32881236  1
  In  In8  1  0.17851975  0.87549072  0.35503087  1
  In  In9  1  0.67560170  0.01398233  0.62904498  1
  In  In10  1  0.33743220  0.66508410  0.63704220  1
  In  In11  1  0.15812883  0.81384220  0.67435114  1
  In  In12  1  0.00882303  0.48201863  0.45002467  1
  In  In13  1  0.52144220  0.66650147  0.84781392  1
  In  In14  1  0.51401428  0.69680733  0.50675769  1
  In  In15  1  -0.01989449  0.67238247  0.33016104  1
  In  In16  1  0.85634323  0.34485816  0.81864007  1
  In  In17  1  0.16190096  0.15791096  -0.00418567  1
  In  In18  1  0.83433082  0.17258974  0.63067925  1
  In  In19  1  0.34427231  0.67133206  -0.00771151  1
  In  In20  1  0.67921865  0.17713452  0.17691279  1
  In  In21  1  0.33417296  0.30194030  0.00248826  1
  In  In22  1  0.35625682  0.14936580  0.50954945  1
  In  In23  1  0.01195194  0.30833958  0.00886358  1
  In  In24  1  -0.01006341  0.85257563  0.50527998  1
  In  In25  1  0.29536459  0.33667786  0.65349923  1
  In  In26  1  0.65671398  0.13631547  0.83901580  1
  In  In27  1  0.16958453  0.48061507  0.00221403  1
  In  In28  1  0.68409284  0.31967619  0.00695744  1
  In  In29  1  0.80052306  0.85271754  0.67639429  1
  In  In30  1  0.16412572  0.00266670  0.16831713  1
  In  In31  1  0.52336000  0.83438397  0.01165515  1
  In  In32  1  0.49371164  0.32447928  0.49256511  1
  In  In33  1  0.02776871  0.01535538  0.72468548  1
  In  In34  1  0.82018618  0.69160518  0.83918922  1
  In  In35  1  0.14940705  0.68278562  0.18758165  1
  In  In36  1  0.31360109  0.84937142  0.15478383  1
  In  In37  1  -0.01989240  0.16376343  0.21101260  1
  In  In38  1  0.32649660  0.14238128  0.14684185  1
  In  In39  1  0.66664916  0.52072203  0.16484649  1
  In  In40  1  -0.01070684  0.50676416  0.85294284  1
  In  In41  1  0.02082924  0.66446834  0.67946146  1
  In  In42  1  0.30542092  0.16312400  0.84112078  1
  In  In43  1  0.47901159  0.34782081  0.82568259  1
  In  In44  1  0.80939490  0.82379070  0.00719712  1
  In  In45  1  0.31637110  0.32587843  0.30441440  1
  In  In46  1  0.82527272  0.68369395  0.51676033  1
  In  In47  1  0.84124928  0.35774616  0.45653826  1
  In  In48  1  0.66356340  0.33790328  0.65729959  1
  In  In49  1  0.51090398  0.53603261  0.65084013  1
  In  In50  1  0.50813249  0.63255584  0.17568138  1
  In  In51  1  0.50014257  0.82924031  0.33829977  1
  In  In52  1  0.50451939  -0.01946205  0.82425649  1
  In  In53  1  0.01488903  0.84504347  0.17126963  1
  In  In54  1  0.50924369  -0.00124369  0.16769514  1
  In  In55  1  0.83264776  0.35748852  0.22719078  1
  In  In56  1  0.51839521  -0.01780281  0.50072410  1
  In  In57  1  0.81998897  0.50416427  0.63750775  1
  In  In58  1  0.82596752  -0.00570111  0.85765484  1
  In  In59  1  0.31194225  0.50562325  0.82986458  1
  In  In60  1  0.16384333  0.16124145  0.34216932  1
  In  In61  1  0.14871093  0.48692832  0.64477474  1
  In  In62  1  0.52962572  0.34825183  0.17735278  1
  In  In63  1  0.32311063  -0.04601309  0.59778360  1
  In  In64  1  0.15874692  0.65410627  0.85590258  1
  In  In65  1  0.84253539  0.16314121  0.01034097  1
  In  In66  1  0.49788559  0.15646534  0.33389574  1
  In  In67  1  0.50640994  0.13487254  0.67669180  1
  In  In68  1  0.82702327  0.00469125  0.16489058  1
  In  In69  1  0.17954847  0.65478103  0.45711261  1
  In  In70  1  0.51895523  0.47765643  0.03059876  1
  In  In71  1  0.33896825  0.81380676  0.81188138  1
  Te  Te72  1  0.05918801  0.09123988  0.09726678  1
  Te  Te73  1  0.07401737  0.07756521  0.42123891  1
  Te  Te74  1  0.11596767  0.12858714  0.77460365  1
  Te  Te75  1  0.08155648  0.40682029  0.09236975  1
  Te  Te76  1  0.06254289  0.36006279  0.38641260  1
  Te  Te77  1  0.08529063  0.42459649  0.76677690  1
  Te  Te78  1  0.10202818  0.77106978  0.08053274  1
  Te  Te79  1  0.07299516  0.76506124  0.40834307  1
  Te  Te80  1  0.07112779  0.75814216  0.78701615  1
  Te  Te81  1  0.42561751  0.07046981  0.06925925  1
  Te  Te82  1  0.41819555  0.05363551  0.41078297  1
  Te  Te83  1  0.39984403  0.07220001  0.75884420  1
  Te  Te84  1  0.39905506  0.41094695  0.09552744  1
  Te  Te85  1  0.41052776  0.40707261  0.39469617  1
  Te  Te86  1  0.40095430  0.43645392  0.72742566  1
  Te  Te87  1  0.42113987  0.74737950  0.09828551  1
  Te  Te88  1  0.40963039  0.77528442  0.44131554  1
  Te  Te89  1  0.43541837  0.72724884  0.73531564  1
  Te  Te90  1  0.73273801  0.08099984  0.07070157  1
  Te  Te91  1  0.73690781  0.06331034  0.50011660  1
  Te  Te92  1  0.76103008  0.08713453  0.74137426  1
  Te  Te93  1  0.75386809  0.41099411  0.10272771  1
  Te  Te94  1  0.74987640  0.43326186  0.36881660  1
  Te  Te95  1  0.74908046  0.42546984  0.74800989  1
  Te  Te96  1  0.73772207  0.71884296  0.08034396  1
  Te  Te97  1  0.75520932  0.76089965  0.40748757  1
  Te  Te98  1  0.72587590  0.73588853  0.73055136  1
  Te  Te99  1  0.08531834  0.25771965  0.25786425  1
  Te  Te100  1  0.10272064  0.26762232  0.55631294  1
  Te  Te101  1  0.08053198  0.23657460  0.89820381  1
  Te  Te102  1  0.05238356  0.57864525  0.23526462  1
  Te  Te103  1  0.07129696  0.59206026  0.55673838  1
  Te  Te104  1  0.06779140  0.58649278  0.95511067  1
  Te  Te105  1  0.07001106  0.94313934  0.27226588  1
  Te  Te106  1  0.07733728  0.92131089  0.60716103  1
  Te  Te107  1  0.09111366  0.95688265  0.85283082  1
  Te  Te108  1  0.42337104  0.24386109  0.23076196  1
  Te  Te109  1  0.41751241  0.25246011  0.61275527  1
  Te  Te110  1  0.42875783  0.23188027  0.90815736  1
  Te  Te111  1  0.39748307  0.61397633  0.27932095  1
  Te  Te112  1  0.41147384  0.57723377  0.54328957  1
  Te  Te113  1  0.41823468  0.55813889  0.92493049  1
  Te  Te114  1  0.40979990  0.91769786  0.24956406  1
  Te  Te115  1  0.46279966  0.90342916  0.61528792  1
  Te  Te116  1  0.41819719  0.89231459  0.91439600  1
  Te  Te117  1  0.76117713  0.23982974  0.28436545  1
  Te  Te118  1  0.75211294  0.27460957  0.55525637  1
  Te  Te119  1  0.76210664  0.24397847  0.90023878  1
  Te  Te120  1  0.77769342  0.57863637  0.24203749  1
  Te  Te121  1  0.71799960  0.59410845  0.57338282  1
  Te  Te122  1  0.76647274  0.57406175  0.90794017  1
  Te  Te123  1  0.74199703  0.89790519  0.22319566  1
  Te  Te124  1  0.76167498  0.91688329  0.54664644  1
  Te  Te125  1  0.72495375  0.90040338  0.90964870  1
  Te  Te126  1  0.23031394  0.24937974  0.09847680  1
  Te  Te127  1  0.26997922  0.24031714  0.42017051  1
  Te  Te128  1  0.22075929  0.24135851  0.74331970  1
  Te  Te129  1  0.24869833  0.59378612  0.08409997  1
  Te  Te130  1  0.22163840  0.54844187  0.36979443  1
  Te  Te131  1  0.23391768  0.59772321  0.73437297  1
  Te  Te132  1  0.23940045  0.93555687  0.06010701  1
  Te  Te133  1  0.24173961  0.94930234  0.46533210  1
  Te  Te134  1  0.25741036  0.91221970  0.73387792  1
  Te  Te135  1  0.57730650  0.24175085  0.08037838  1
  Te  Te136  1  0.58402695  0.25562155  0.40084381  1
  Te  Te137  1  0.58550190  0.25044654  0.75517606  1
  Te  Te138  1  0.59676330  0.60516669  0.05394147  1
  Te  Te139  1  0.57597076  0.58940072  0.41331068  1
  Te  Te140  1  0.58711789  0.55969218  0.77339050  1
  Te  Te141  1  0.60776333  0.90118843  0.11360547  1
  Te  Te142  1  0.60373306  0.90322097  0.41295064  1
  Te  Te143  1  0.58785004  0.92249975  0.71544319  1
  Te  Te144  1  0.89994216  0.25767393  0.11310268  1
  Te  Te145  1  0.88867461  0.22627070  0.40508538  1
  Te  Te146  1  0.92486745  0.23886085  0.73902483  1
  Te  Te147  1  0.93352835  0.58731557  0.13303917  1
  Te  Te148  1  0.89907029  0.58827921  0.42568742  1
  Te  Te149  1  0.91325318  0.57696692  0.74074434  1
  Te  Te150  1  0.91910736  0.92539555  0.07146501  1
  Te  Te151  1  0.90687406  0.93654556  0.41826493  1
  Te  Te152  1  0.90776633  0.91578895  0.75944079  1
  Te  Te153  1  0.26110352  0.07166956  0.26178152  1
  Te  Te154  1  0.24911953  0.08178525  0.58401708  1
  Te  Te155  1  0.25693690  0.06136899  0.93783495  1
  Te  Te156  1  0.22280602  0.43627765  0.26024106  1
  Te  Te157  1  0.23967080  0.42483865  0.55001372  1
  Te  Te158  1  0.25074159  0.39146848  0.90895588  1
  Te  Te159  1  0.24495049  0.77130969  0.26626948  1
  Te  Te160  1  0.23832635  0.74970503  0.56069383  1
  Te  Te161  1  0.24529494  0.76093787  0.92125736  1
  Te  Te162  1  0.60377934  0.07569254  0.26207298  1
  Te  Te163  1  0.58705163  0.11828184  0.55154654  1
  Te  Te164  1  0.57933748  0.05348721  0.92890748  1
  Te  Te165  1  0.62031426  0.41759681  0.27980892  1
  Te  Te166  1  0.57986316  0.42603763  0.56742398  1
  Te  Te167  1  0.58809810  0.40273529  0.91972357  1
  Te  Te168  1  0.58638074  0.73857800  0.24842393  1
  Te  Te169  1  0.62736163  0.72262935  0.59738659  1
  Te  Te170  1  0.60346891  0.77831935  0.89947336  1
  Te  Te171  1  0.88044555  0.08012954  0.28008297  1
  Te  Te172  1  0.94651862  0.07939575  0.60537244  1
  Te  Te173  1  0.92880604  0.09130869  0.91220935  1
  Te  Te174  1  0.94664468  0.42025751  0.30708952  1
  Te  Te175  1  0.92747770  0.41478089  0.57845833  1
  Te  Te176  1  0.91410153  0.40967701  0.94198121  1
  Te  Te177  1  0.90859362  0.74768965  0.21757966  1
  Te  Te178  1  0.92022924  0.75819109  0.61046799  1
  Te  Te179  1  0.91658862  0.74953461  0.93552037  1
