# generated using pymatgen
data_In2Te3
_symmetry_space_group_name_H-M   'P 1'
_cell_length_a   18.97594803
_cell_length_b   18.98699764
_cell_length_c   18.97979729
_cell_angle_alpha   90.20830815
_cell_angle_beta   89.88168566
_cell_angle_gamma   90.01590916
_symmetry_Int_Tables_number   1
_chemical_formula_structural   In2Te3
_chemical_formula_sum   'In72 Te108'
_cell_volume   6838.29034575
_cell_formula_units_Z   36
loop_
 _symmetry_equiv_pos_site_id
 _symmetry_equiv_pos_as_xyz
  1  'x, y, z'
loop_
 _atom_site_type_symbol
 _atom_site_label
 _atom_site_symmetry_multiplicity
 _atom_site_fract_x
 _atom_site_fract_y
 _atom_site_fract_z
 _atom_site_occupancy
  In  In0  1  -0.01636274  0.37824976  -0.02411027  1
  In  In1  1  0.32843804  0.15472643  0.49606257  1
  In  In2  1  0.54145859  0.78323691  -0.01489963  1
  In  In3  1  -0.01607231  0.49162511  0.50482926  1
  In  In4  1  0.85123351  0.17517525  0.35814284  1
  In  In5  1  -0.00352172  0.18305866  0.17850023  1
  In  In6  1  0.83224284  0.48832976  0.32557436  1
  In  In7  1  0.49063971  0.47282904  0.68196981  1
  In  In8  1  0.00295438  -0.00005309  0.65737927  1
  In  In9  1  -0.02072982  0.02454460  0.02560151  1
  In  In10  1  0.15256649  0.66093352  0.15823689  1
  In  In11  1  -0.00882672  0.62410124  0.70381463  1
  In  In12  1  0.83003968  0.80826124  0.66929758  1
  In  In13  1  0.68273700  0.32236953  0.32862633  1
  In  In14  1  0.66289612  0.47435868  0.14580629  1
  In  In15  1  0.34713075  0.83096727  0.82085296  1
  In  In16  1  0.16530634  0.18189626  0.67538675  1
  In  In17  1  0.81997250  0.34796161  0.14795523  1
  In  In18  1  0.15710184  0.64817487  0.83132274  1
  In  In19  1  0.82724190  0.01285596  0.17837208  1
  In  In20  1  0.18047555  0.66763423  0.52774770  1
  In  In21  1  0.68729059  0.51649339  0.49159897  1
  In  In22  1  0.49676949  0.31358660  0.18460140  1
  In  In23  1  0.50510115  0.32336526  0.48966514  1
  In  In24  1  0.82409000  0.67391113  0.49083017  1
  In  In25  1  0.14178881  0.00960323  0.47636184  1
  In  In26  1  0.13680988  0.19486947  -0.00549803  1
  In  In27  1  0.49651457  0.67418630  0.49412309  1
  In  In28  1  0.16806195  0.83583694  -0.00221471  1
  In  In29  1  0.49249385  0.50276389  -0.01723433  1
  In  In30  1  0.50360464  0.67481153  0.16003320  1
  In  In31  1  0.80186903  0.82915726  -0.00464814  1
  In  In32  1  0.31897668  0.31108295  0.35117478  1
  In  In33  1  0.52746691  0.83586924  0.67051590  1
  In  In34  1  0.63993517  0.14293590  0.19067534  1
  In  In35  1  0.66995977  0.49527293  0.85886794  1
  In  In36  1  0.03099167  0.83033064  0.82762140  1
  In  In37  1  0.67999065  0.16577086  0.81745685  1
  In  In38  1  0.35329648  -0.00771816  0.34275939  1
  In  In39  1  0.32890155  0.34947084  -0.00932868  1
  In  In40  1  0.65592355  0.13858807  0.51341318  1
  In  In41  1  0.32787582  0.03086992  -0.01208209  1
  In  In42  1  0.32356383  0.52491721  0.16067198  1
  In  In43  1  0.49158762  0.15345919  0.65631473  1
  In  In44  1  -0.02643272  0.65881214  -0.00544052  1
  In  In45  1  0.33897307  0.15131899  0.17828157  1
  In  In46  1  0.33711032  0.67498396  0.34373862  1
  In  In47  1  0.31447439  0.48767176  0.82834272  1
  In  In48  1  0.14974839  0.34418109  0.14457564  1
  In  In49  1  0.00682268  0.32539701  0.34407024  1
  In  In50  1  0.15276458  0.83920434  0.33609193  1
  In  In51  1  0.82915623  0.01195249  0.84309897  1
  In  In52  1  0.17055151  0.51698209  0.31910573  1
  In  In53  1  0.00908274  0.32947879  0.66598492  1
  In  In54  1  0.16888843  -0.01431272  0.20910323  1
  In  In55  1  0.66930632  0.31022698  0.66335003  1
  In  In56  1  0.67692436  0.65272184  0.69417598  1
  In  In57  1  0.84886913  -0.00855041  0.49698864  1
  In  In58  1  0.64018415  0.86531786  0.48717741  1
  In  In59  1  0.31944800  0.46014787  0.53462061  1
  In  In60  1  0.50700083  0.19870437  -0.00218596  1
  In  In61  1  0.34808405  0.68441625  0.67430418  1
  In  In62  1  0.00314330  0.81731211  0.48588288  1
  In  In63  1  0.87177130  0.69506235  0.18629869  1
  In  In64  1  0.66121325  0.84628727  0.16444584  1
  In  In65  1  0.49411649  0.00914941  0.82190914  1
  In  In66  1  0.18100608  0.00802456  0.82615324  1
  In  In67  1  0.84728705  0.34174423  0.81863690  1
  In  In68  1  0.34838005  -0.01590587  0.66246370  1
  In  In69  1  0.35752484  0.83320007  0.15935707  1
  In  In70  1  0.66074265  0.67573244  0.33056032  1
  In  In71  1  0.81332944  0.16405766  -0.00181324  1
  Te  Te72  1  0.09626178  0.08565933  0.10215417  1
  Te  Te73  1  0.05394937  0.07061955  0.38057880  1
  Te  Te74  1  0.07491740  0.09039475  0.75694077  1
  Te  Te75  1  0.06900536  0.44303695  0.07669366  1
  Te  Te76  1  0.09204107  0.42928862  0.41505761  1
  Te  Te77  1  0.12093141  0.39502822  0.74518331  1
  Te  Te78  1  0.06819839  0.75508524  0.07430197  1
  Te  Te79  1  0.09664919  0.72132541  0.41330268  1
  Te  Te80  1  0.09426553  0.73968813  0.72729638  1
  Te  Te81  1  0.43445582  0.08914730  0.07932673  1
  Te  Te82  1  0.43629749  0.06574993  0.44339191  1
  Te  Te83  1  0.38904032  0.09554302  0.75564010  1
  Te  Te84  1  0.42005097  0.41357703  0.10225995  1
  Te  Te85  1  0.40921230  0.41430463  0.41571593  1
  Te  Te86  1  0.39210227  0.38706267  0.74776876  1
  Te  Te87  1  0.41110506  0.73561255  0.05722312  1
  Te  Te88  1  0.42985099  0.77005997  0.40615351  1
  Te  Te89  1  0.45563033  0.74147218  0.76533444  1
  Te  Te90  1  0.72623483  0.07499838  0.08322998  1
  Te  Te91  1  0.75418966  0.07457391  0.41142723  1
  Te  Te92  1  0.78144621  0.09811063  0.73417854  1
  Te  Te93  1  0.76816689  0.44044461  0.04787891  1
  Te  Te94  1  0.76489436  0.40103222  0.42928337  1
  Te  Te95  1  0.73765291  0.41701671  0.74428214  1
  Te  Te96  1  0.75014080  0.73785663  0.10489487  1
  Te  Te97  1  0.74117797  0.77314607  0.41372541  1
  Te  Te98  1  0.73350990  0.76538424  0.77444118  1
  Te  Te99  1  0.10657147  0.25089637  0.25598474  1
  Te  Te100  1  0.09872098  0.25775849  0.56663974  1
  Te  Te101  1  0.07230960  0.28587593  0.90095502  1
  Te  Te102  1  0.06480132  0.58864889  0.25007658  1
  Te  Te103  1  0.08223374  0.57083183  0.59256088  1
  Te  Te104  1  0.06387651  0.57068949  0.91448681  1
  Te  Te105  1  0.06043295  0.88755726  0.23032766  1
  Te  Te106  1  0.08856329  0.90513107  0.57448843  1
  Te  Te107  1  0.08148764  0.94262622  0.92740542  1
  Te  Te108  1  0.42383793  0.22391299  0.28113956  1
  Te  Te109  1  0.40687346  0.25457977  0.58061799  1
  Te  Te110  1  0.40614859  0.25549439  0.91001619  1
  Te  Te111  1  0.42422919  0.58615211  0.25492188  1
  Te  Te112  1  0.42214512  0.57189429  0.58421971  1
  Te  Te113  1  0.39498116  0.58055499  0.90978913  1
  Te  Te114  1  0.43366849  0.93803876  0.22930909  1
  Te  Te115  1  0.43132592  0.89719993  0.57930543  1
  Te  Te116  1  0.41301395  0.92314187  0.92072204  1
  Te  Te117  1  0.76729347  0.23090487  0.23750587  1
  Te  Te118  1  0.75284420  0.23027042  0.57521605  1
  Te  Te119  1  0.74772809  0.26535213  0.91098055  1
  Te  Te120  1  0.73082012  0.56836845  0.24886937  1
  Te  Te121  1  0.77232625  0.58061285  0.59915027  1
  Te  Te122  1  0.76168618  0.60570803  0.90420977  1
  Te  Te123  1  0.73168979  0.93584924  0.26041643  1
  Te  Te124  1  0.75477011  0.90658980  0.58188313  1
  Te  Te125  1  0.73399522  0.93911460  0.92659975  1
  Te  Te126  1  0.25673611  0.24249681  0.09017703  1
  Te  Te127  1  0.22446377  0.24592194  0.44314671  1
  Te  Te128  1  0.24131089  0.29772388  0.73399436  1
  Te  Te129  1  0.23433125  0.58387280  0.06387832  1
  Te  Te130  1  0.26670847  0.57145867  0.43328574  1
  Te  Te131  1  0.24914872  0.58448526  0.72774227  1
  Te  Te132  1  0.25418564  0.93069422  0.08258443  1
  Te  Te133  1  0.24912945  0.91442776  0.42378629  1
  Te  Te134  1  0.24250047  0.90282753  0.73873015  1
  Te  Te135  1  0.60648394  0.25974610  0.09600518  1
  Te  Te136  1  0.59058634  0.23110940  0.40590901  1
  Te  Te137  1  0.56667943  0.24574736  0.75107741  1
  Te  Te138  1  0.58616959  0.58272472  0.07255182  1
  Te  Te139  1  0.57653099  0.57606018  0.40811307  1
  Te  Te140  1  0.57104000  0.56955627  0.76456954  1
  Te  Te141  1  0.57894769  0.90318914  0.05715836  1
  Te  Te142  1  0.56836707  0.96709822  0.40804614  1
  Te  Te143  1  0.59972198  0.92816114  0.75897347  1
  Te  Te144  1  0.92053284  0.25474382  0.07008229  1
  Te  Te145  1  0.92132093  0.26682948  0.44744881  1
  Te  Te146  1  0.90708450  0.24119497  0.72906728  1
  Te  Te147  1  0.89506454  0.58400373  0.09465723  1
  Te  Te148  1  0.91433035  0.58709486  0.40597057  1
  Te  Te149  1  0.88068472  0.60443697  0.80128081  1
  Te  Te150  1  0.89764626  0.91544240  0.08463263  1
  Te  Te151  1  0.91526871  0.89817494  0.39837169  1
  Te  Te152  1  0.91971800  0.91014199  0.75025013  1
  Te  Te153  1  0.25000168  0.08817866  0.28314622  1
  Te  Te154  1  0.24026183  0.07095758  0.58979468  1
  Te  Te155  1  0.24002895  0.12322052  0.90601160  1
  Te  Te156  1  0.25758098  0.41196786  0.24644728  1
  Te  Te157  1  0.20705118  0.40194135  0.61414727  1
  Te  Te158  1  0.22112501  0.41173670  0.91526378  1
  Te  Te159  1  0.25506762  0.75470908  0.24029246  1
  Te  Te160  1  0.28265970  0.76333406  0.57013595  1
  Te  Te161  1  0.24743281  0.74961963  0.90318053  1
  Te  Te162  1  0.58080808  0.02983823  0.26515843  1
  Te  Te163  1  0.59338419  0.05552733  0.61799880  1
  Te  Te164  1  0.58148007  0.09710462  0.91053577  1
  Te  Te165  1  0.58247306  0.41295432  0.26146023  1
  Te  Te166  1  0.58954672  0.42201980  0.57003596  1
  Te  Te167  1  0.57279756  0.40122149  0.91634076  1
  Te  Te168  1  0.56677210  0.76954820  0.25932583  1
  Te  Te169  1  0.60957227  0.73449294  0.57696994  1
  Te  Te170  1  0.65132219  0.71612207  0.91301369  1
  Te  Te171  1  0.94267107  0.07458738  0.27123960  1
  Te  Te172  1  0.95080660  0.08468132  0.54965465  1
  Te  Te173  1  0.92645025  0.10796042  0.91280826  1
  Te  Te174  1  0.92516899  0.40445578  0.24099417  1
  Te  Te175  1  0.91351689  0.43224523  0.61788281  1
  Te  Te176  1  0.92448263  0.46372734  0.86506386  1
  Te  Te177  1  0.92702457  0.79041004  0.28038445  1
  Te  Te178  1  0.93368643  0.72810836  0.59084266  1
  Te  Te179  1  0.91979083  0.77366749  0.91015644  1
