# generated using pymatgen
data_In2Te3
_symmetry_space_group_name_H-M   'P 1'
_cell_length_a   18.94754458
_cell_length_b   18.92126516
_cell_length_c   18.94408746
_cell_angle_alpha   89.97484354
_cell_angle_beta   89.98910626
_cell_angle_gamma   90.01051849
_symmetry_Int_Tables_number   1
_chemical_formula_structural   In2Te3
_chemical_formula_sum   'In72 Te108'
_cell_volume   6791.67260888
_cell_formula_units_Z   36
loop_
 _symmetry_equiv_pos_site_id
 _symmetry_equiv_pos_as_xyz
  1  'x, y, z'
loop_
 _atom_site_type_symbol
 _atom_site_label
 _atom_site_symmetry_multiplicity
 _atom_site_fract_x
 _atom_site_fract_y
 _atom_site_fract_z
 _atom_site_occupancy
  In  In0  1  -0.03252238  0.47973718  0.84047651  1
  In  In1  1  0.15600051  0.34046309  0.85116170  1
  In  In2  1  0.51880851  0.63900689  0.14694035  1
  In  In3  1  0.48560008  0.48552276  0.31377819  1
  In  In4  1  -0.01830822  0.17800979  0.51334997  1
  In  In5  1  0.17037276  0.83300012  0.02338323  1
  In  In6  1  0.51546719  0.80649654  0.35250240  1
  In  In7  1  0.35288554  0.17856757  0.83517499  1
  In  In8  1  0.66821827  0.00517954  0.31323976  1
  In  In9  1  0.17326972  0.51000052  0.65807010  1
  In  In10  1  0.35684278  0.84431515  0.85252433  1
  In  In11  1  0.16317857  0.01511419  0.82206502  1
  In  In12  1  0.81636473  0.32490585  0.15226628  1
  In  In13  1  0.16256614  0.17534136  -0.01824208  1
  In  In14  1  0.14162314  0.01730125  0.48414897  1
  In  In15  1  -0.01707391  0.16959431  0.16041967  1
  In  In16  1  0.82361870  0.64725314  0.14239177  1
  In  In17  1  0.79584928  -0.01620034  0.13661025  1
  In  In18  1  0.34786883  0.67919697  0.00660729  1
  In  In19  1  0.35444592  0.83788557  0.49504320  1
  In  In20  1  0.58609785  0.03699257  0.08724583  1
  In  In21  1  0.31601038  0.17945751  0.51150319  1
  In  In22  1  0.50842279  0.65576421  0.51917939  1
  In  In23  1  0.18066772  -0.00180031  0.17038709  1
  In  In24  1  -0.01416192  0.64123059  0.69044959  1
  In  In25  1  0.51040772  0.32236492  0.51661946  1
  In  In26  1  0.33218394  0.31974833  -0.00821824  1
  In  In27  1  0.53077207  0.30210419  0.14388262  1
  In  In28  1  0.58643265  0.15833174  0.72270589  1
  In  In29  1  0.31175293  0.36931963  0.32743229  1
  In  In30  1  0.48030827  0.16302035  0.33913586  1
  In  In31  1  0.35256132  0.16396193  0.16217781  1
  In  In32  1  0.54762938  0.47390766  -0.01735986  1
  In  In33  1  -0.02058987  0.34638249  0.31812544  1
  In  In34  1  0.84619870  0.00625964  0.49594547  1
  In  In35  1  0.68558865  0.85137762  0.84232185  1
  In  In36  1  0.13642184  0.62713125  0.86654677  1
  In  In37  1  0.12894368  0.33009661  0.48100207  1
  In  In38  1  0.00220989  0.80064711  0.17812421  1
  In  In39  1  0.32027387  0.53084414  0.50064152  1
  In  In40  1  0.66361898  0.47252141  0.49663582  1
  In  In41  1  -0.04925490  0.61216494  0.32577883  1
  In  In42  1  0.32051351  0.48756891  0.14564101  1
  In  In43  1  0.67123974  0.65228529  0.68685617  1
  In  In44  1  -0.01823632  0.00724925  0.35513533  1
  In  In45  1  0.33952179  0.35567068  0.68195610  1
  In  In46  1  0.32924659  0.02099481  0.66735852  1
  In  In47  1  -0.00076285  0.82573299  0.49602401  1
  In  In48  1  0.69566025  0.63901996  0.32403013  1
  In  In49  1  0.85215754  0.18063428  0.32407609  1
  In  In50  1  0.53871894  0.49204164  0.71746918  1
  In  In51  1  0.82270772  0.48206700  -0.01067572  1
  In  In52  1  0.53990139  0.04292516  0.53848093  1
  In  In53  1  0.34698856  0.00179271  0.31248449  1
  In  In54  1  -0.05844250  0.36050730  0.64522136  1
  In  In55  1  0.65244452  0.34421497  0.32234153  1
  In  In56  1  0.13081190  0.65506563  0.16890381  1
  In  In57  1  -0.02461195  0.00735502  -0.01431227  1
  In  In58  1  0.83527863  0.81656987  -0.01601457  1
  In  In59  1  0.35228319  0.69254362  0.65277028  1
  In  In60  1  0.16179407  0.82097883  0.33991827  1
  In  In61  1  0.34484644  0.82142917  0.16506206  1
  In  In62  1  -0.01229685  0.84140069  0.82102826  1
  In  In63  1  -0.02606461  0.05065907  0.70459862  1
  In  In64  1  0.17107663  0.64379675  0.49032364  1
  In  In65  1  0.84547656  0.84650686  0.66367365  1
  In  In66  1  0.75415138  0.27816655  0.74305065  1
  In  In67  1  0.67285224  0.82100421  0.48115609  1
  In  In68  1  0.54383219  0.00963904  0.85331003  1
  In  In69  1  0.13904009  0.85487519  0.65506260  1
  In  In70  1  0.51328347  0.84596646  0.71320013  1
  In  In71  1  0.35208507  0.51902578  0.82810765  1
  Te  Te72  1  0.08626008  0.07442839  0.07826796  1
  Te  Te73  1  0.06877625  0.12170970  0.40043932  1
  Te  Te74  1  0.07296059  0.12333116  0.78247946  1
  Te  Te75  1  0.13734049  0.42662699  0.02346010  1
  Te  Te76  1  0.06264917  0.43407792  0.40540309  1
  Te  Te77  1  0.08332820  0.42968493  0.74949687  1
  Te  Te78  1  0.06131960  0.73366661  0.05588848  1
  Te  Te79  1  0.06398185  0.72363407  0.40201226  1
  Te  Te80  1  0.08770271  0.74390347  0.74791972  1
  Te  Te81  1  0.43523182  0.07321441  0.08704706  1
  Te  Te82  1  0.40479273  0.07616707  0.44038703  1
  Te  Te83  1  0.44001164  0.08280378  0.75048314  1
  Te  Te84  1  0.43345342  0.40775464  0.07621332  1
  Te  Te85  1  0.41867078  0.41278365  0.43578947  1
  Te  Te86  1  0.43779324  0.40018451  0.78817986  1
  Te  Te87  1  0.45229918  0.76380639  0.07621272  1
  Te  Te88  1  0.40727328  0.72016293  0.41760379  1
  Te  Te89  1  0.43099077  0.73537035  0.77660911  1
  Te  Te90  1  0.72423558  0.10540211  0.09118649  1
  Te  Te91  1  0.75687790  0.08790067  0.40463991  1
  Te  Te92  1  0.73002807  0.11385259  0.75532279  1
  Te  Te93  1  0.72202861  0.38800947  0.05286135  1
  Te  Te94  1  0.75883931  0.42069218  0.39393823  1
  Te  Te95  1  0.74617193  0.45572990  0.78546135  1
  Te  Te96  1  0.73779570  0.73815861  0.06297193  1
  Te  Te97  1  0.76008635  0.71493257  0.43201120  1
  Te  Te98  1  0.76320983  0.75546884  0.75284046  1
  Te  Te99  1  0.06718138  0.26576610  0.22969240  1
  Te  Te100  1  0.06298063  0.27005708  0.60174459  1
  Te  Te101  1  0.06984147  0.29221564  0.96539315  1
  Te  Te102  1  0.04261179  0.55212016  0.22690425  1
  Te  Te103  1  0.06560720  0.57525874  0.57523892  1
  Te  Te104  1  0.05357165  0.53423131  0.95974900  1
  Te  Te105  1  0.08025464  0.91871019  0.25625496  1
  Te  Te106  1  0.04247568  0.94894180  0.58504658  1
  Te  Te107  1  0.09012865  0.91807715  0.91574652  1
  Te  Te108  1  0.41993523  0.27510998  0.25569859  1
  Te  Te109  1  0.41502402  0.24502656  0.60605881  1
  Te  Te110  1  0.43805273  0.23163048  0.94172856  1
  Te  Te111  1  0.40479530  0.58356510  0.23266090  1
  Te  Te112  1  0.43255013  0.55920685  0.61004670  1
  Te  Te113  1  0.43549624  0.57516561  0.94023181  1
  Te  Te114  1  0.44007912  0.90073453  0.25372233  1
  Te  Te115  1  0.42412565  0.91506009  0.60366042  1
  Te  Te116  1  0.44051450  0.93554798  0.92984328  1
  Te  Te117  1  0.73504232  0.23923711  0.24869701  1
  Te  Te118  1  0.72515634  0.27833301  0.59661437  1
  Te  Te119  1  0.77601449  0.19121145  0.87254688  1
  Te  Te120  1  0.76146895  0.54505644  0.23152356  1
  Te  Te121  1  0.73793565  0.57449720  0.57914540  1
  Te  Te122  1  0.75669089  0.56705367  0.88280369  1
  Te  Te123  1  0.73141726  0.89877140  0.23667646  1
  Te  Te124  1  0.74815809  0.91900439  0.57238464  1
  Te  Te125  1  0.76059616  0.94006049  0.93872489  1
  Te  Te126  1  0.24599315  0.24424079  0.09092388  1
  Te  Te127  1  0.24096195  0.25853831  0.40660296  1
  Te  Te128  1  0.24940502  0.25918440  0.75778140  1
  Te  Te129  1  0.24157224  0.59847886  0.07705334  1
  Te  Te130  1  0.23488120  0.56100661  0.38623794  1
  Te  Te131  1  0.25417335  0.60307052  0.74556604  1
  Te  Te132  1  0.27663564  0.92681715  0.07755622  1
  Te  Te133  1  0.24590341  0.92341084  0.41734718  1
  Te  Te134  1  0.25676737  0.90912170  0.74590401  1
  Te  Te135  1  0.62860584  0.23639221  0.05445459  1
  Te  Te136  1  0.58660522  0.24115180  0.41426884  1
  Te  Te137  1  0.60008314  0.28108007  0.80278614  1
  Te  Te138  1  0.61607940  0.58561406  0.05059529  1
  Te  Te139  1  0.57148498  0.56858768  0.41066263  1
  Te  Te140  1  0.58939835  0.60360809  0.79918448  1
  Te  Te141  1  0.63230909  0.89959310  0.02871449  1
  Te  Te142  1  0.57447388  0.92673472  0.42633382  1
  Te  Te143  1  0.62310153  0.94461449  0.73790401  1
  Te  Te144  1  0.88512310  0.22314922  0.06367254  1
  Te  Te145  1  0.89746402  0.27364737  0.43310565  1
  Te  Te146  1  0.90553209  0.28145854  0.76394577  1
  Te  Te147  1  0.92066967  0.57353314  0.05639357  1
  Te  Te148  1  0.88187690  0.52720497  0.42626083  1
  Te  Te149  1  0.87415463  0.56044628  0.75272908  1
  Te  Te150  1  0.92715113  0.90285133  0.08688038  1
  Te  Te151  1  0.89706169  0.89256337  0.40495881  1
  Te  Te152  1  0.88919730  0.94619328  0.77211227  1
  Te  Te153  1  0.24623472  0.09958245  0.26141805  1
  Te  Te154  1  0.21786524  0.09429562  0.59252852  1
  Te  Te155  1  0.26276939  0.08177057  0.91495099  1
  Te  Te156  1  0.22083266  0.40987490  0.22107391  1
  Te  Te157  1  0.24652501  0.40933764  0.57173172  1
  Te  Te158  1  0.25553989  0.43931985  0.91936426  1
  Te  Te159  1  0.24039735  0.74086099  0.24001183  1
  Te  Te160  1  0.23385036  0.76304081  0.56824759  1
  Te  Te161  1  0.24605861  0.75387980  0.91580194  1
  Te  Te162  1  0.56255646  0.08434361  0.24058973  1
  Te  Te163  1  0.64497171  0.14485821  0.58184456  1
  Te  Te164  1  0.59984339  0.10873858  0.95101455  1
  Te  Te165  1  0.58519611  0.42787535  0.21622798  1
  Te  Te166  1  0.60154823  0.39322854  0.61644615  1
  Te  Te167  1  0.64614368  0.40032024  0.89327258  1
  Te  Te168  1  0.59383934  0.72629663  0.25146052  1
  Te  Te169  1  0.58143222  0.76148698  0.59803034  1
  Te  Te170  1  0.57590017  0.80291825  0.92895591  1
  Te  Te171  1  0.89973850  0.05750297  0.23743570  1
  Te  Te172  1  0.87996750  0.11054455  0.60292644  1
  Te  Te173  1  0.90747364  0.12299056  0.92925105  1
  Te  Te174  1  0.89946947  0.42696592  0.22028503  1
  Te  Te175  1  0.87144344  0.46506663  0.56917669  1
  Te  Te176  1  0.89601141  0.37363923  0.91418241  1
  Te  Te177  1  0.89344796  0.73413254  0.25410614  1
  Te  Te178  1  0.91855143  0.73600010  0.58869819  1
  Te  Te179  1  0.92084226  0.73551954  0.89561977  1
