# generated using pymatgen
data_In2Te3
_symmetry_space_group_name_H-M   'P 1'
_cell_length_a   18.79103722
_cell_length_b   18.78022922
_cell_length_c   18.77740557
_cell_angle_alpha   90.03460508
_cell_angle_beta   89.94621662
_cell_angle_gamma   89.97594637
_symmetry_Int_Tables_number   1
_chemical_formula_structural   In2Te3
_chemical_formula_sum   'In72 Te108'
_cell_volume   6626.54145429
_cell_formula_units_Z   36
loop_
 _symmetry_equiv_pos_site_id
 _symmetry_equiv_pos_as_xyz
  1  'x, y, z'
loop_
 _atom_site_type_symbol
 _atom_site_label
 _atom_site_symmetry_multiplicity
 _atom_site_fract_x
 _atom_site_fract_y
 _atom_site_fract_z
 _atom_site_occupancy
  In  In0  1  0.51500313  0.66517480  0.84462023  1
  In  In1  1  0.32955124  0.85655604  0.14676328  1
  In  In2  1  0.68015487  0.67988372  0.35431127  1
  In  In3  1  0.17051948  0.84615060  0.66745934  1
  In  In4  1  0.51153466  0.82441489  -0.00949669  1
  In  In5  1  0.81238050  0.66311881  0.85601644  1
  In  In6  1  0.32495110  0.17988335  0.49503118  1
  In  In7  1  0.29821515  0.33963460  0.64692071  1
  In  In8  1  0.33312573  0.31995177  0.02087263  1
  In  In9  1  0.35159985  0.49608257  0.16258683  1
  In  In10  1  0.83908072  0.35753458  0.83385842  1
  In  In11  1  0.35165230  -0.01233209  0.68012119  1
  In  In12  1  0.83785455  0.00020191  0.47712525  1
  In  In13  1  0.67138233  0.67395435  0.68369292  1
  In  In14  1  0.00203537  0.47161829  0.82599068  1
  In  In15  1  0.67568395  0.19198137  0.17636696  1
  In  In16  1  0.82371155  -0.01508603  0.20583346  1
  In  In17  1  0.65278866  0.16320900  0.82073978  1
  In  In18  1  0.15722117  -0.00021981  0.49510607  1
  In  In19  1  0.34178661  0.83447679  0.52397809  1
  In  In20  1  0.30231945  0.63951012  0.35115395  1
  In  In21  1  0.66848531  0.00238692  -0.00973699  1
  In  In22  1  0.32043419  0.31820031  0.35360690  1
  In  In23  1  0.64947964  0.49834469  0.15847763  1
  In  In24  1  0.48880837  0.66021258  0.49929646  1
  In  In25  1  0.16444541  0.66758366  0.16883325  1
  In  In26  1  0.82922402  0.15844172  0.64495099  1
  In  In27  1  0.52147390  0.17422542  0.32249229  1
  In  In28  1  0.84766209  0.30111674  0.48497685  1
  In  In29  1  0.65648059  0.01194897  0.65346576  1
  In  In30  1  0.50591738  0.31716999  0.84338662  1
  In  In31  1  0.30414912  0.18030402  0.14435739  1
  In  In32  1  -0.01845142  0.84721372  0.18004586  1
  In  In33  1  -0.01468550  0.68653386  0.33336440  1
  In  In34  1  0.33785633  0.51464142  0.83791234  1
  In  In35  1  0.16065297  0.47405668  0.34759438  1
  In  In36  1  0.01166582  0.49588560  0.50368878  1
  In  In37  1  0.68092067  0.85296807  0.48774557  1
  In  In38  1  0.53930211  0.85178668  0.36916796  1
  In  In39  1  0.50405821  0.34941324  0.15770426  1
  In  In40  1  0.49605200  0.46491028  0.31140840  1
  In  In41  1  0.83764081  0.81733783  0.02382387  1
  In  In42  1  0.85881080  -0.02548392  0.83791310  1
  In  In43  1  -0.02649580  0.68807385  0.63383449  1
  In  In44  1  -0.01117411  0.65405458  0.00335637  1
  In  In45  1  0.84972946  0.31813034  0.18081488  1
  In  In46  1  0.14337897  0.29664918  0.19300044  1
  In  In47  1  0.84081520  0.18221212  0.01721138  1
  In  In48  1  0.17173337  0.67379257  0.82429766  1
  In  In49  1  0.00641657  0.33601344  0.65935668  1
  In  In50  1  0.31228870  0.66383593  0.67204781  1
  In  In51  1  0.50460636  0.51228230  0.67775098  1
  In  In52  1  0.53250369  0.65867985  0.14991518  1
  In  In53  1  0.50360544  0.31833825  0.48211299  1
  In  In54  1  0.18112983  0.48478655  0.01206444  1
  In  In55  1  0.67608606  0.50200317  0.50984126  1
  In  In56  1  0.49778525  0.00612956  0.82034493  1
  In  In57  1  0.83118516  0.49496050  0.33068730  1
  In  In58  1  -0.01366594  0.00981380  0.66693654  1
  In  In59  1  0.51123904  0.85891599  0.66390067  1
  In  In60  1  0.32379815  0.01868181  0.30294219  1
  In  In61  1  0.02241887  0.19012265  0.84889700  1
  In  In62  1  0.33319316  0.83582167  0.82944692  1
  In  In63  1  0.65999108  0.33621759  0.01308969  1
  In  In64  1  0.82071946  0.50908579  0.68526669  1
  In  In65  1  -0.01771015  0.50780235  0.15009985  1
  In  In66  1  0.14322514  0.83718242  0.34064387  1
  In  In67  1  0.04171044  0.02052177  0.00481698  1
  In  In68  1  0.48327159  0.02001637  0.15763558  1
  In  In69  1  -0.00203131  0.00388572  0.33753901  1
  In  In70  1  0.15706495  0.17618966  0.66795984  1
  In  In71  1  0.17411360  0.85080901  -0.01241898  1
  Te  Te72  1  0.08843364  0.12159545  0.10229941  1
  Te  Te73  1  0.09361399  0.09741051  0.40499786  1
  Te  Te74  1  0.08471003  0.07948540  0.76221839  1
  Te  Te75  1  0.08523016  0.40609550  0.09791671  1
  Te  Te76  1  0.07471028  0.38391290  0.42864966  1
  Te  Te77  1  0.10469166  0.39071694  0.75658798  1
  Te  Te78  1  0.07918476  0.76072284  0.08369588  1
  Te  Te79  1  0.09446748  0.72747554  0.42482648  1
  Te  Te80  1  0.07452485  0.75256795  0.74029891  1
  Te  Te81  1  0.39128263  0.08917618  0.05872804  1
  Te  Te82  1  0.41273720  0.09663766  0.39907962  1
  Te  Te83  1  0.40622365  0.10195589  0.75512245  1
  Te  Te84  1  0.43532434  0.43462597  0.05234787  1
  Te  Te85  1  0.40420849  0.42336362  0.42524924  1
  Te  Te86  1  0.41118280  0.41437730  0.74799729  1
  Te  Te87  1  0.42124462  0.74889838  0.08886446  1
  Te  Te88  1  0.41125403  0.75467618  0.40967369  1
  Te  Te89  1  0.42488537  0.74847245  0.73461799  1
  Te  Te90  1  0.75322411  0.08087235  0.09259070  1
  Te  Te91  1  0.72924247  0.07519903  0.41219176  1
  Te  Te92  1  0.76413369  0.07499390  0.75969947  1
  Te  Te93  1  0.76221144  0.41154588  0.09628316  1
  Te  Te94  1  0.74771962  0.40374776  0.41866734  1
  Te  Te95  1  0.73305294  0.40683135  0.74502099  1
  Te  Te96  1  0.73906243  0.77873468  0.12740954  1
  Te  Te97  1  0.78479051  0.75665209  0.43234425  1
  Te  Te98  1  0.77514055  0.75675274  0.74652058  1
  Te  Te99  1  0.03045809  0.23602683  0.26832798  1
  Te  Te100  1  0.07799085  0.24669001  0.56486631  1
  Te  Te101  1  0.10865770  0.28665268  0.91779459  1
  Te  Te102  1  0.08028891  0.57789463  0.25787202  1
  Te  Te103  1  0.07012724  0.57857627  0.61125425  1
  Te  Te104  1  0.09505229  0.57786262  0.92267887  1
  Te  Te105  1  0.09553646  0.93216212  0.23422462  1
  Te  Te106  1  0.06662127  0.91054958  0.57620293  1
  Te  Te107  1  0.07346195  0.91790573  0.90348590  1
  Te  Te108  1  0.41050352  0.25373254  0.24177687  1
  Te  Te109  1  0.41752197  0.25287415  0.58968228  1
  Te  Te110  1  0.40143621  0.23957457  0.91652056  1
  Te  Te111  1  0.42496757  0.59482791  0.25350637  1
  Te  Te112  1  0.39931277  0.57238916  0.58453021  1
  Te  Te113  1  0.41700156  0.59693188  0.93079549  1
  Te  Te114  1  0.42862311  0.91228861  0.25564363  1
  Te  Te115  1  0.44656378  0.94669581  0.55496631  1
  Te  Te116  1  0.41600547  0.92251875  0.92159666  1
  Te  Te117  1  0.77769856  0.22926295  0.27998385  1
  Te  Te118  1  0.73723957  0.24540585  0.56960066  1
  Te  Te119  1  0.74799038  0.24649974  0.91427991  1
  Te  Te120  1  0.74021859  0.58544927  0.24961451  1
  Te  Te121  1  0.76206694  0.60450366  0.57961516  1
  Te  Te122  1  0.73468804  0.57340031  0.94033272  1
  Te  Te123  1  0.74628329  0.86851705  0.25041660  1
  Te  Te124  1  0.76459898  0.92433455  0.59434320  1
  Te  Te125  1  0.75525192  0.89895769  0.92085454  1
  Te  Te126  1  0.19297934  0.20290494  0.02148228  1
  Te  Te127  1  0.21315533  0.23623395  0.41436121  1
  Te  Te128  1  0.25887504  0.24249107  0.75209774  1
  Te  Te129  1  0.26426280  0.59280110  0.08152803  1
  Te  Te130  1  0.23466887  0.55250422  0.45571105  1
  Te  Te131  1  0.22686603  0.55831082  0.73980335  1
  Te  Te132  1  0.23912112  0.95740500  0.07671994  1
  Te  Te133  1  0.26206065  0.91777487  0.41382639  1
  Te  Te134  1  0.23709753  0.93726291  0.77018229  1
  Te  Te135  1  0.56637450  0.23411844  0.07867786  1
  Te  Te136  1  0.60978574  0.22702718  0.43031575  1
  Te  Te137  1  0.57917090  0.25190631  0.73080293  1
  Te  Te138  1  0.61532269  0.59065834  0.04228822  1
  Te  Te139  1  0.57631588  0.57358987  0.40828494  1
  Te  Te140  1  0.60974502  0.56718724  0.77300342  1
  Te  Te141  1  0.58079371  0.92251393  0.08661681  1
  Te  Te142  1  0.61276485  0.97756107  0.42572896  1
  Te  Te143  1  0.60511713  0.91156085  0.76724779  1
  Te  Te144  1  0.94935113  0.24873575  0.09116606  1
  Te  Te145  1  0.91262984  0.22257189  0.37325398  1
  Te  Te146  1  0.91217804  0.24317736  0.74706145  1
  Te  Te147  1  0.88177606  0.59468102  0.08556727  1
  Te  Te148  1  0.91461748  0.58245395  0.42256903  1
  Te  Te149  1  0.92493338  0.58802346  0.76336092  1
  Te  Te150  1  0.91600557  0.94294393  0.07905297  1
  Te  Te151  1  0.92606117  0.89510549  0.41230138  1
  Te  Te152  1  0.91650404  0.89363794  0.72847485  1
  Te  Te153  1  0.21972626  0.10196771  0.23947841  1
  Te  Te154  1  0.25677778  0.07082583  0.58695232  1
  Te  Te155  1  0.26566938  0.06255843  0.96635409  1
  Te  Te156  1  0.25335126  0.40715657  0.23753481  1
  Te  Te157  1  0.23727020  0.41916150  0.54040893  1
  Te  Te158  1  0.26025270  0.40321133  0.91215486  1
  Te  Te159  1  0.25412660  0.76059800  0.24974010  1
  Te  Te160  1  0.23038385  0.74198776  0.56923352  1
  Te  Te161  1  0.26280787  0.74171316  0.92685874  1
  Te  Te162  1  0.60137295  0.07219623  0.24065739  1
  Te  Te163  1  0.54851260  0.06609010  0.57226468  1
  Te  Te164  1  0.56661045  0.09474910  0.92662563  1
  Te  Te165  1  0.61238611  0.38449822  0.25949447  1
  Te  Te166  1  0.57557914  0.41590647  0.58242345  1
  Te  Te167  1  0.58691652  0.41885868  0.91567637  1
  Te  Te168  1  0.58534207  0.75525607  0.25660027  1
  Te  Te169  1  0.58623792  0.75267938  0.57217042  1
  Te  Te170  1  0.61345141  0.75301571  0.91074189  1
  Te  Te171  1  0.91595952  0.09455375  0.24862119  1
  Te  Te172  1  0.93320095  0.09631168  0.55307131  1
  Te  Te173  1  0.91907764  0.09202813  0.91796612  1
  Te  Te174  1  0.93918742  0.41335213  0.26288645  1
  Te  Te175  1  0.89495000  0.41523610  0.58541137  1
  Te  Te176  1  0.92000882  0.42199835  0.93773514  1
  Te  Te177  1  0.88933007  0.74336726  0.23378478  1
  Te  Te178  1  0.91000427  0.77421392  0.53087158  1
  Te  Te179  1  0.92645027  0.75814391  0.91387414  1
