# generated using pymatgen
data_In2Te3
_symmetry_space_group_name_H-M   'P 1'
_cell_length_a   18.98633977
_cell_length_b   18.98243671
_cell_length_c   19.02253506
_cell_angle_alpha   90.03645726
_cell_angle_beta   89.85685170
_cell_angle_gamma   89.90419138
_symmetry_Int_Tables_number   1
_chemical_formula_structural   In2Te3
_chemical_formula_sum   'In72 Te108'
_cell_volume   6855.82227357
_cell_formula_units_Z   36
loop_
 _symmetry_equiv_pos_site_id
 _symmetry_equiv_pos_as_xyz
  1  'x, y, z'
loop_
 _atom_site_type_symbol
 _atom_site_label
 _atom_site_symmetry_multiplicity
 _atom_site_fract_x
 _atom_site_fract_y
 _atom_site_fract_z
 _atom_site_occupancy
  In  In0  1  0.65771117  0.18357692  0.83959981  1
  In  In1  1  0.51142343  -0.01458094  0.48348298  1
  In  In2  1  0.66341247  0.33413082  0.33768740  1
  In  In3  1  0.83843603  0.14629520  0.67019857  1
  In  In4  1  -0.03342329  0.54324696  0.47260729  1
  In  In5  1  0.18691289  0.51205429  0.66204410  1
  In  In6  1  0.31638484  0.16513522  0.49829097  1
  In  In7  1  0.16749402  0.19154915  0.67562128  1
  In  In8  1  0.82134672  0.52178405  0.65590736  1
  In  In9  1  0.00987180  0.67297100  0.01786408  1
  In  In10  1  0.81141263  0.33183092  0.49931810  1
  In  In11  1  0.65134908  0.00120217  0.33697449  1
  In  In12  1  0.81299841  0.83684016  0.32864883  1
  In  In13  1  0.84983860  0.68105375  0.17303134  1
  In  In14  1  0.66610668  0.83622716  0.49541127  1
  In  In15  1  0.83188351  -0.00148852  0.85873463  1
  In  In16  1  -0.00839648  0.34101429  0.32854954  1
  In  In17  1  0.16919121  0.67704741  0.50229805  1
  In  In18  1  0.33059042  0.48210178  0.49915550  1
  In  In19  1  0.33536722  0.50161791  0.83620766  1
  In  In20  1  0.84037593  0.84371001  0.02498566  1
  In  In21  1  0.79887247  0.70393817  0.80505862  1
  In  In22  1  -0.03372029  0.34972221  -0.00965877  1
  In  In23  1  0.48367614  0.49437047  0.00573469  1
  In  In24  1  0.47389920  0.65142143  0.47844155  1
  In  In25  1  -0.01107072  0.82191201  0.82564913  1
  In  In26  1  0.19101307  0.13165079  0.33416705  1
  In  In27  1  0.78867883  0.16529288  0.02201051  1
  In  In28  1  0.33217259  0.33164027  0.66694182  1
  In  In29  1  0.17490304  0.51912904  -0.01739054  1
  In  In30  1  0.49183372  0.82818280  0.00693972  1
  In  In31  1  0.33917816  -0.01767940  0.32425343  1
  In  In32  1  0.49032860  0.14934576  0.65621822  1
  In  In33  1  0.15383116  0.50440975  0.32029033  1
  In  In34  1  0.33698763  0.81450512  0.50585192  1
  In  In35  1  0.83380588  -0.02867190  0.49960857  1
  In  In36  1  -0.00550287  0.13879872  0.17620682  1
  In  In37  1  0.16242190  0.17128176  -0.00973401  1
  In  In38  1  0.18188795  -0.02285062  0.83999401  1
  In  In39  1  -0.00827962  -0.02228401  0.67306127  1
  In  In40  1  0.52495905  0.68559194  0.20181546  1
  In  In41  1  0.19358624  0.34397566  0.81171488  1
  In  In42  1  0.34662609  -0.01148581  0.69168727  1
  In  In43  1  0.18087036  0.32532049  0.16608692  1
  In  In44  1  0.82738033  0.50430305  -0.03099315  1
  In  In45  1  0.32539704  0.67401938  0.01572292  1
  In  In46  1  0.00691097  0.33100799  0.65312384  1
  In  In47  1  0.30471814  -0.03663453  0.02744584  1
  In  In48  1  0.01579012  0.49329419  0.17386011  1
  In  In49  1  0.34492690  0.80565662  0.84422934  1
  In  In50  1  0.54626226  0.64402957  0.79855587  1
  In  In51  1  0.54315596  0.82957267  0.68848627  1
  In  In52  1  0.13732066  0.00703842  0.50526584  1
  In  In53  1  0.68232576  0.68234824  -0.00326385  1
  In  In54  1  0.49672574  0.34422316  0.83512414  1
  In  In55  1  0.62992034  0.31455512  0.02079045  1
  In  In56  1  0.16642813  0.83423549  0.33801587  1
  In  In57  1  0.84184887  0.16205914  0.31213807  1
  In  In58  1  0.35842609  0.30003803  0.30124212  1
  In  In59  1  0.66193710  0.01507158  0.01625795  1
  In  In60  1  0.18054285  0.67735305  0.18559812  1
  In  In61  1  0.83133111  0.34185986  0.16960804  1
  In  In62  1  -0.02489006  0.69691260  0.63791876  1
  In  In63  1  0.68280280  0.53163012  0.49555773  1
  In  In64  1  -0.00348729  0.18103606  0.81297818  1
  In  In65  1  0.49783535  -0.00005906  0.17525729  1
  In  In66  1  0.62925383  0.39800010  0.65746072  1
  In  In67  1  0.67963591  0.53112595  0.17463954  1
  In  In68  1  0.65302679  0.16760076  0.49477168  1
  In  In69  1  -0.01363135  0.00494661  0.01218741  1
  In  In70  1  0.50593430  0.50521056  0.33047386  1
  In  In71  1  0.37906526  0.30819988  0.02163464  1
  Te  Te72  1  0.09925880  0.07380522  0.08759970  1
  Te  Te73  1  0.07001705  0.07829968  0.39652426  1
  Te  Te74  1  0.08846352  0.07538352  0.75535028  1
  Te  Te75  1  0.08433205  0.40382882  0.07196595  1
  Te  Te76  1  0.06694844  0.43242994  0.42078083  1
  Te  Te77  1  0.08649766  0.42351393  0.74236434  1
  Te  Te78  1  0.11318888  0.75912308  0.08062315  1
  Te  Te79  1  0.07223010  0.74772817  0.41563713  1
  Te  Te80  1  0.07359857  0.74441399  0.73604784  1
  Te  Te81  1  0.39880140  0.06070307  0.08316808  1
  Te  Te82  1  0.41463729  0.08137889  0.41828557  1
  Te  Te83  1  0.45031431  0.06010623  0.76406700  1
  Te  Te84  1  0.42719238  0.41153591  0.11170845  1
  Te  Te85  1  0.41409767  0.40487730  0.39960592  1
  Te  Te86  1  0.42222427  0.43148879  0.73459561  1
  Te  Te87  1  0.41453694  0.74962362  0.10972259  1
  Te  Te88  1  0.39739035  0.74393494  0.39035450  1
  Te  Te89  1  0.43810480  0.73391388  0.74597929  1
  Te  Te90  1  0.76722546  0.05405245  0.11456781  1
  Te  Te91  1  0.75797941  0.08556750  0.42035396  1
  Te  Te92  1  0.74308591  0.07952834  0.76603227  1
  Te  Te93  1  0.74536559  0.42515804  0.07785603  1
  Te  Te94  1  0.75698300  0.43328753  0.40367805  1
  Te  Te95  1  0.73584360  0.44081405  0.74625541  1
  Te  Te96  1  0.74004826  0.76377630  0.10863670  1
  Te  Te97  1  0.77420917  0.74102165  0.44152832  1
  Te  Te98  1  0.68332731  0.77909302  0.74242442  1
  Te  Te99  1  0.07891795  0.24804009  0.24704201  1
  Te  Te100  1  0.07658001  0.23283937  0.57080182  1
  Te  Te101  1  0.08576017  0.26794279  0.90015607  1
  Te  Te102  1  0.06354678  0.60899703  0.25690050  1
  Te  Te103  1  0.06882535  0.58004207  0.58089596  1
  Te  Te104  1  0.06443164  0.58307336  0.91532498  1
  Te  Te105  1  0.16041284  0.94321348  0.23802598  1
  Te  Te106  1  0.08647700  0.89673147  0.59096711  1
  Te  Te107  1  0.06678450  0.91567104  0.91605617  1
  Te  Te108  1  0.47156153  0.23895016  0.22544073  1
  Te  Te109  1  0.41748053  0.25203916  0.57082923  1
  Te  Te110  1  0.43616798  0.23421704  0.91026543  1
  Te  Te111  1  0.42942763  0.57857957  0.22944088  1
  Te  Te112  1  0.39064319  0.58704822  0.58404148  1
  Te  Te113  1  0.42121913  0.59809255  0.91551879  1
  Te  Te114  1  0.41911846  0.89357661  0.24112298  1
  Te  Te115  1  0.42680313  0.91098261  0.58577239  1
  Te  Te116  1  0.40843808  0.91859551  0.92023808  1
  Te  Te117  1  0.73863391  0.24464620  0.23823904  1
  Te  Te118  1  0.74174057  0.23984660  0.59585976  1
  Te  Te119  1  0.74750800  0.27072504  0.92501159  1
  Te  Te120  1  0.77327464  0.59682811  0.26912549  1
  Te  Te121  1  0.76282268  0.62974429  0.57338755  1
  Te  Te122  1  0.73499938  0.59197915  0.88755683  1
  Te  Te123  1  0.74895674  0.94209823  0.24342176  1
  Te  Te124  1  0.74161594  0.91201768  0.59531740  1
  Te  Te125  1  0.73832900  0.90720565  0.93214879  1
  Te  Te126  1  0.26521239  0.23001596  0.08680095  1
  Te  Te127  1  0.24566732  0.25524392  0.39997704  1
  Te  Te128  1  0.28208220  0.22875220  0.76654416  1
  Te  Te129  1  0.25035602  0.56896318  0.09980024  1
  Te  Te130  1  0.24520217  0.57651367  0.41603489  1
  Te  Te131  1  0.23855168  0.59004966  0.77309832  1
  Te  Te132  1  0.22582668  0.87715520  0.12081471  1
  Te  Te133  1  0.25027990  0.92492843  0.44161743  1
  Te  Te134  1  0.25152880  0.88457227  0.74516872  1
  Te  Te135  1  0.56985746  0.21543076  0.10769445  1
  Te  Te136  1  0.56989080  0.26435771  0.42566724  1
  Te  Te137  1  0.57552611  0.26042752  0.73184883  1
  Te  Te138  1  0.58261434  0.59715813  0.07563718  1
  Te  Te139  1  0.59736545  0.61116491  0.39287871  1
  Te  Te140  1  0.60219498  0.54401266  0.70704075  1
  Te  Te141  1  0.58739689  0.90549619  0.09310021  1
  Te  Te142  1  0.56456439  0.87874390  0.38002742  1
  Te  Te143  1  0.61097669  0.90385225  0.79374397  1
  Te  Te144  1  0.91970315  0.24340946  0.08998458  1
  Te  Te145  1  0.90947882  0.24999290  0.41683928  1
  Te  Te146  1  0.89808118  0.26811583  0.74030277  1
  Te  Te147  1  0.91254740  0.56657066  0.08010831  1
  Te  Te148  1  0.87677406  0.63079067  0.39696947  1
  Te  Te149  1  0.90401634  0.61223636  0.74530981  1
  Te  Te150  1  0.95037755  0.89762321  0.10727079  1
  Te  Te151  1  0.92912523  0.89717891  0.41216937  1
  Te  Te152  1  0.88525752  0.90388400  0.75056223  1
  Te  Te153  1  0.28357233  0.08445712  0.23128576  1
  Te  Te154  1  0.25249366  0.07675926  0.60347968  1
  Te  Te155  1  0.25794313  0.07515955  0.92247342  1
  Te  Te156  1  0.25817925  0.41395613  0.25702161  1
  Te  Te157  1  0.23093142  0.39524639  0.57536513  1
  Te  Te158  1  0.26781059  0.40202678  0.93107326  1
  Te  Te159  1  0.26986542  0.74011002  0.28551420  1
  Te  Te160  1  0.27564113  0.71563332  0.59739766  1
  Te  Te161  1  0.23791897  0.75009875  0.92717098  1
  Te  Te162  1  0.56600713  0.09978539  0.26484704  1
  Te  Te163  1  0.59405002  0.06190432  0.58558762  1
  Te  Te164  1  0.57779643  0.09901421  0.92943341  1
  Te  Te165  1  0.59343041  0.42284085  0.23610461  1
  Te  Te166  1  0.57178817  0.44112138  0.53218614  1
  Te  Te167  1  0.58954436  0.42430730  0.92312250  1
  Te  Te168  1  0.61038635  0.75317150  0.29859207  1
  Te  Te169  1  0.56108168  0.74832207  0.55946201  1
  Te  Te170  1  0.57581080  0.74623513  0.91123348  1
  Te  Te171  1  0.93401221  0.05182703  0.27667654  1
  Te  Te172  1  0.92705770  0.07264242  0.57462231  1
  Te  Te173  1  0.91501453  0.11101247  0.92183159  1
  Te  Te174  1  0.90184345  0.44052744  0.25951223  1
  Te  Te175  1  0.90795841  0.42557164  0.57174566  1
  Te  Te176  1  0.91274592  0.42543074  0.87928350  1
  Te  Te177  1  0.92549887  0.78757628  0.24135182  1
  Te  Te178  1  0.96180985  0.80195647  0.53362173  1
  Te  Te179  1  0.89816689  0.74108277  0.92604790  1
