# generated using pymatgen
data_In2Te3
_symmetry_space_group_name_H-M   'P 1'
_cell_length_a   19.05345324
_cell_length_b   19.02393864
_cell_length_c   19.03637673
_cell_angle_alpha   90.07476101
_cell_angle_beta   90.03354222
_cell_angle_gamma   90.17751342
_symmetry_Int_Tables_number   1
_chemical_formula_structural   In2Te3
_chemical_formula_sum   'In72 Te108'
_cell_volume   6900.10813072
_cell_formula_units_Z   36
loop_
 _symmetry_equiv_pos_site_id
 _symmetry_equiv_pos_as_xyz
  1  'x, y, z'
loop_
 _atom_site_type_symbol
 _atom_site_label
 _atom_site_symmetry_multiplicity
 _atom_site_fract_x
 _atom_site_fract_y
 _atom_site_fract_z
 _atom_site_occupancy
  In  In0  1  0.00022538  -0.01937849  0.01665249  1
  In  In1  1  0.84829245  0.18407322  -0.03339214  1
  In  In2  1  0.49279097  0.83836776  0.33312978  1
  In  In3  1  0.82598840  0.82535653  0.31650894  1
  In  In4  1  0.14985741  0.62429224  0.80525534  1
  In  In5  1  0.64014264  0.63266547  -0.00233528  1
  In  In6  1  0.67042855  0.80070153  0.84860150  1
  In  In7  1  0.68056750  0.51936299  0.49059529  1
  In  In8  1  0.66880068  0.32532091  0.31391154  1
  In  In9  1  0.48297644  0.01917638  0.52246264  1
  In  In10  1  0.01395718  0.19136684  0.80051510  1
  In  In11  1  0.83945991  0.02040792  0.51293113  1
  In  In12  1  0.85444155  0.16181416  0.35129631  1
  In  In13  1  0.85224385  0.80195346  -0.01662835  1
  In  In14  1  0.49028150  0.35229508  0.47052164  1
  In  In15  1  -0.00001923  0.37022818  -0.02245093  1
  In  In16  1  0.83293948  0.37105976  0.85736010  1
  In  In17  1  0.00842363  0.63513075  0.66149749  1
  In  In18  1  0.50787086  0.82490246  0.67834852  1
  In  In19  1  0.02513246  -0.02174482  0.34601099  1
  In  In20  1  0.45820973  0.00776684  0.81925262  1
  In  In21  1  0.48586034  0.65425881  0.15527396  1
  In  In22  1  0.65093564  -0.01013205  0.65964885  1
  In  In23  1  0.00166584  0.48963396  0.19214681  1
  In  In24  1  0.84717118  -0.01330238  0.83302268  1
  In  In25  1  0.00483434  0.80583442  0.49519480  1
  In  In26  1  0.84481805  0.65690149  0.17722524  1
  In  In27  1  0.33060423  0.83569943  0.16971644  1
  In  In28  1  0.31185118  0.33579399  0.63651591  1
  In  In29  1  0.35331515  0.21071449  0.83478129  1
  In  In30  1  0.34517542  0.64478704  -0.01843831  1
  In  In31  1  0.48634527  0.31406362  0.16342736  1
  In  In32  1  0.18004993  0.51465051  0.35503156  1
  In  In33  1  0.33475668  0.49617537  0.83171689  1
  In  In34  1  0.16238295  0.31473086  0.17277556  1
  In  In35  1  0.34849443  0.01609977  -0.00259198  1
  In  In36  1  0.01352007  -0.02122394  0.67913386  1
  In  In37  1  0.84541866  0.49609762  0.34260946  1
  In  In38  1  0.20027972  -0.00062653  0.84393057  1
  In  In39  1  0.64770675  0.01490807  -0.01393587  1
  In  In40  1  0.81408165  0.51113819  0.00957526  1
  In  In41  1  -0.00689937  0.35893382  0.63447480  1
  In  In42  1  0.51944423  0.49811769  0.68475843  1
  In  In43  1  0.01950434  0.79033537  0.83612437  1
  In  In44  1  0.01347277  0.34688922  0.40267460  1
  In  In45  1  0.65553271  0.18078082  0.16590591  1
  In  In46  1  0.16805163  0.35862666  0.81996380  1
  In  In47  1  0.18514157  0.81467252  -0.00163690  1
  In  In48  1  0.49603896  0.16984624  0.32283611  1
  In  In49  1  0.31874991  0.16921537  0.16652231  1
  In  In50  1  0.88456509  0.59290608  0.53064517  1
  In  In51  1  0.68295906  0.66200526  0.31512410  1
  In  In52  1  0.14755665  0.00879584  0.17645078  1
  In  In53  1  0.68784015  0.33733965  0.69891832  1
  In  In54  1  0.32134812  0.80881238  0.53343372  1
  In  In55  1  0.63470777  0.17630792  0.82391743  1
  In  In56  1  0.18657140  0.00481757  0.49983968  1
  In  In57  1  0.82538749  0.16927584  0.67201139  1
  In  In58  1  0.17381415  0.67737103  0.15342898  1
  In  In59  1  0.16905974  0.17397334  0.34757522  1
  In  In60  1  0.32560951  0.81228568  0.78839700  1
  In  In61  1  0.31933502  0.18275681  0.48840905  1
  In  In62  1  0.51569256  0.65561894  0.48565518  1
  In  In63  1  -0.02549140  0.15827491  0.14448476  1
  In  In64  1  0.68299331  0.86489059  0.48977579  1
  In  In65  1  0.61494515  0.41108611  0.02492143  1
  In  In66  1  0.17189075  0.81620100  0.35205750  1
  In  In67  1  0.66855996  0.84348141  0.14147358  1
  In  In68  1  0.32663215  0.51066241  0.51311221  1
  In  In69  1  0.66400025  0.66257122  0.67520555  1
  In  In70  1  0.81512911  -0.00369811  0.16019416  1
  In  In71  1  0.34550521  0.48327956  0.16831903  1
  Te  Te72  1  0.08816518  0.09434174  0.06688678  1
  Te  Te73  1  0.07665776  0.08744324  0.43316241  1
  Te  Te74  1  0.10059642  0.07809963  0.75397954  1
  Te  Te75  1  0.08791070  0.41920146  0.09046091  1
  Te  Te76  1  0.06151110  0.48301383  0.44338743  1
  Te  Te77  1  0.09495058  0.43504525  0.71482340  1
  Te  Te78  1  0.07772546  0.74473209  0.06638451  1
  Te  Te79  1  0.11769941  0.72148675  0.45174606  1
  Te  Te80  1  0.09967596  0.74296547  0.71989552  1
  Te  Te81  1  0.42201155  0.09986133  0.09035507  1
  Te  Te82  1  0.40607763  0.08517974  0.41204108  1
  Te  Te83  1  0.39720532  0.11010176  0.73697666  1
  Te  Te84  1  0.38655060  0.37691179  0.06850560  1
  Te  Te85  1  0.39322839  0.43778147  0.40527844  1
  Te  Te86  1  0.40630834  0.40841911  0.73129670  1
  Te  Te87  1  0.40819381  0.75229928  0.07049187  1
  Te  Te88  1  0.41478448  0.74882980  0.42570480  1
  Te  Te89  1  0.44680241  0.72832375  0.77202491  1
  Te  Te90  1  0.76138108  0.09473915  0.05886296  1
  Te  Te91  1  0.75130139  0.08295332  0.41681898  1
  Te  Te92  1  0.74780523  0.07970859  0.76790979  1
  Te  Te93  1  0.75067910  0.40088218  0.07910571  1
  Te  Te94  1  0.74869494  0.40731113  0.41657731  1
  Te  Te95  1  0.72274465  0.44565543  0.79366479  1
  Te  Te96  1  0.75244281  0.73168215  0.08116595  1
  Te  Te97  1  0.74990006  0.74645034  0.42139356  1
  Te  Te98  1  0.75810992  0.75021142  0.74665637  1
  Te  Te99  1  0.06592814  0.22443820  0.24600834  1
  Te  Te100  1  0.06175046  0.27981818  0.53076339  1
  Te  Te101  1  0.08499203  0.26340785  0.91058959  1
  Te  Te102  1  0.09618695  0.59015279  0.25213509  1
  Te  Te103  1  0.09911346  0.54772619  0.58061533  1
  Te  Te104  1  0.10725711  0.54330545  0.91906348  1
  Te  Te105  1  0.08858041  0.88738774  0.24415009  1
  Te  Te106  1  0.08990086  0.90824953  0.57037217  1
  Te  Te107  1  0.08565210  0.90919962  0.91359808  1
  Te  Te108  1  0.38931459  0.25873102  0.26673198  1
  Te  Te109  1  0.42256712  0.25962526  0.56911859  1
  Te  Te110  1  0.42045140  0.30746488  0.92576607  1
  Te  Te111  1  0.40676281  0.58478635  0.25511401  1
  Te  Te112  1  0.43607988  0.58539010  0.58958993  1
  Te  Te113  1  0.43999551  0.54430560  0.92775668  1
  Te  Te114  1  0.41837751  0.92463662  0.24318782  1
  Te  Te115  1  0.41158239  0.91159145  0.60249484  1
  Te  Te116  1  0.39048669  0.90580919  0.90431082  1
  Te  Te117  1  0.77112786  0.23532986  0.24552460  1
  Te  Te118  1  0.74884655  0.26103257  0.59071075  1
  Te  Te119  1  0.73715752  0.25944275  0.90304407  1
  Te  Te120  1  0.75191507  0.55407024  0.23645064  1
  Te  Te121  1  0.76064716  0.56036668  0.61332228  1
  Te  Te122  1  0.73794611  0.57686720  0.90241569  1
  Te  Te123  1  0.72653689  0.92309353  0.25808694  1
  Te  Te124  1  0.76947341  0.91830842  0.60195091  1
  Te  Te125  1  0.76063627  0.91290886  0.93285100  1
  Te  Te126  1  0.25435372  0.26193633  0.07125322  1
  Te  Te127  1  0.22794080  0.28030059  0.42779497  1
  Te  Te128  1  0.23804740  0.25299987  0.73856910  1
  Te  Te129  1  0.25772285  0.57519071  0.08232694  1
  Te  Te130  1  0.25056364  0.61500847  0.43880085  1
  Te  Te131  1  0.27450775  0.59098712  0.73046899  1
  Te  Te132  1  0.23978120  0.93206035  0.07859728  1
  Te  Te133  1  0.26968846  0.90543755  0.42375968  1
  Te  Te134  1  0.24458114  0.91876848  0.73216510  1
  Te  Te135  1  0.58669194  0.26114103  0.06245446  1
  Te  Te136  1  0.58651892  0.24815293  0.41449710  1
  Te  Te137  1  0.56476594  0.27051491  0.73944005  1
  Te  Te138  1  0.57206178  0.54481782  0.09692159  1
  Te  Te139  1  0.58483416  0.56842712  0.38418291  1
  Te  Te140  1  0.56522016  0.60957289  0.77113084  1
  Te  Te141  1  0.57154171  0.92752114  0.07342583  1
  Te  Te142  1  0.56756759  0.93338639  0.42613617  1
  Te  Te143  1  0.58497128  0.92002912  0.77556331  1
  Te  Te144  1  0.91743581  0.27397249  0.06621518  1
  Te  Te145  1  0.91110105  0.25049503  0.45445700  1
  Te  Te146  1  0.90700658  0.28299311  0.75035440  1
  Te  Te147  1  0.92871985  0.57232984  0.08398793  1
  Te  Te148  1  0.91777352  0.61549797  0.38834669  1
  Te  Te149  1  0.93033830  0.58860043  0.77646047  1
  Te  Te150  1  0.90752287  0.89378175  0.09541131  1
  Te  Te151  1  0.91163183  0.91116099  0.42111524  1
  Te  Te152  1  0.92522166  0.88432772  0.75728273  1
  Te  Te153  1  0.24647481  0.07272364  0.26684072  1
  Te  Te154  1  0.25533362  0.09673867  0.58859241  1
  Te  Te155  1  0.26500574  0.11243238  0.91759455  1
  Te  Te156  1  0.23929207  0.41527675  0.25491241  1
  Te  Te157  1  0.21501198  0.44165157  0.59146930  1
  Te  Te158  1  0.22587971  0.44785413  0.92600266  1
  Te  Te159  1  0.26333064  0.73718663  0.26009447  1
  Te  Te160  1  0.28645573  0.72466810  0.65018962  1
  Te  Te161  1  0.24202413  0.72155289  0.89497647  1
  Te  Te162  1  0.58018120  0.08312282  0.24042513  1
  Te  Te163  1  0.58595589  0.09769472  0.59061700  1
  Te  Te164  1  0.54375929  0.09616187  0.91336888  1
  Te  Te165  1  0.56852685  0.40451845  0.24495960  1
  Te  Te166  1  0.58318822  0.42920079  0.56575921  1
  Te  Te167  1  0.53274103  0.41185779  0.90233111  1
  Te  Te168  1  0.58500509  0.74907554  0.23963113  1
  Te  Te169  1  0.59394579  0.76027314  0.56726149  1
  Te  Te170  1  0.57559534  0.75295385  0.94731089  1
  Te  Te171  1  0.92751128  0.05254779  0.24710715  1
  Te  Te172  1  0.93553835  0.08906742  0.60681975  1
  Te  Te173  1  0.94149134  0.08188729  0.90496636  1
  Te  Te174  1  0.92981947  0.38978429  0.27666757  1
  Te  Te175  1  0.89037438  0.44679472  0.57733936  1
  Te  Te176  1  0.95250802  0.46628456  0.86964589  1
  Te  Te177  1  0.93199561  0.73753898  0.26529366  1
  Te  Te178  1  0.91431277  0.73354041  0.58672524  1
  Te  Te179  1  0.92232243  0.69936629  0.90225318  1
