# generated using pymatgen
data_In2Te3
_symmetry_space_group_name_H-M   'P 1'
_cell_length_a   18.95347240
_cell_length_b   18.99075429
_cell_length_c   18.96454766
_cell_angle_alpha   90.05606264
_cell_angle_beta   89.96035751
_cell_angle_gamma   90.19605826
_symmetry_Int_Tables_number   1
_chemical_formula_structural   In2Te3
_chemical_formula_sum   'In72 Te108'
_cell_volume   6826.06841823
_cell_formula_units_Z   36
loop_
 _symmetry_equiv_pos_site_id
 _symmetry_equiv_pos_as_xyz
  1  'x, y, z'
loop_
 _atom_site_type_symbol
 _atom_site_label
 _atom_site_symmetry_multiplicity
 _atom_site_fract_x
 _atom_site_fract_y
 _atom_site_fract_z
 _atom_site_occupancy
  In  In0  1  0.81537321  0.50449532  0.68894673  1
  In  In1  1  0.01527372  0.68583966  0.66112050  1
  In  In2  1  0.31432474  0.01620293  0.30990115  1
  In  In3  1  0.00724383  0.35257047  0.67813538  1
  In  In4  1  0.64950473  0.81182853  0.18553844  1
  In  In5  1  0.01629250  0.16796901  0.83827543  1
  In  In6  1  0.32472169  0.50914211  0.52857367  1
  In  In7  1  -0.01072531  0.33117458  0.32207935  1
  In  In8  1  0.62984885  0.45906423  0.83941900  1
  In  In9  1  0.66533490  0.84074149  0.81788879  1
  In  In10  1  0.64249055  0.17639341  0.81124704  1
  In  In11  1  0.84347079  0.82635969  0.34368685  1
  In  In12  1  0.17198799  0.68697616  0.83558566  1
  In  In13  1  0.80410884  0.32741886  0.49711581  1
  In  In14  1  0.53852474  0.03527304  0.19683065  1
  In  In15  1  0.66467048  0.65545144  0.01241162  1
  In  In16  1  0.33090688  0.30647276  0.33468906  1
  In  In17  1  0.48341002  0.85153100  0.00421207  1
  In  In18  1  0.35376176  0.83767350  0.17316667  1
  In  In19  1  0.20087979  0.28394859  0.14930317  1
  In  In20  1  0.19360405  0.33873060  0.51868008  1
  In  In21  1  0.67641813  0.49310736  0.15642199  1
  In  In22  1  0.83545186  0.01059753  0.48667437  1
  In  In23  1  0.86805082  -0.01819025  0.79100261  1
  In  In24  1  0.17818127  0.48490260  -0.00960740  1
  In  In25  1  0.83151286  -0.00482281  0.15883982  1
  In  In26  1  0.33620186  0.67359207  0.66165571  1
  In  In27  1  0.83571310  0.65339546  0.84451045  1
  In  In28  1  0.82460025  0.17381003  0.65268859  1
  In  In29  1  0.49918846  0.66474641  0.81955792  1
  In  In30  1  0.00486034  0.83227344  0.50059314  1
  In  In31  1  0.18230681  0.48070487  0.34760502  1
  In  In32  1  0.84267956  0.64390451  0.47870180  1
  In  In33  1  0.67735231  0.31808404  0.33271850  1
  In  In34  1  0.49208564  0.86348368  0.66745279  1
  In  In35  1  0.50011004  0.00674400  0.48985354  1
  In  In36  1  0.31048113  0.66563908  -0.00120346  1
  In  In37  1  -0.01086415  0.17137073  0.15634076  1
  In  In38  1  0.65005746  0.47288753  0.48407143  1
  In  In39  1  0.15551403  0.85199744  -0.02583934  1
  In  In40  1  0.66804203  0.01978505  -0.01240898  1
  In  In41  1  0.81530538  0.15737785  0.32308895  1
  In  In42  1  0.03250970  0.49052706  0.16139568  1
  In  In43  1  0.33829043  0.48049640  0.82933927  1
  In  In44  1  0.52014559  0.63786366  0.18149232  1
  In  In45  1  0.85291840  0.82985007  0.00470876  1
  In  In46  1  0.46443853  0.18492360  0.00223810  1
  In  In47  1  0.63940863  0.33097841  -0.00170451  1
  In  In48  1  0.66468069  0.01619466  0.63736439  1
  In  In49  1  0.67198578  0.68502825  0.67276558  1
  In  In50  1  0.49462542  0.49443369  0.33374644  1
  In  In51  1  0.34634788  0.80418940  0.49721607  1
  In  In52  1  0.16240927  0.03180965  0.14787853  1
  In  In53  1  0.84532048  0.17643420  -0.00254254  1
  In  In54  1  0.46566140  0.32744709  0.15080528  1
  In  In55  1  0.17601555  0.31810729  0.82303607  1
  In  In56  1  0.02309550  0.16360626  0.50439204  1
  In  In57  1  -0.00714349  0.84770056  0.17844449  1
  In  In58  1  0.15863047  0.00071991  0.50897501  1
  In  In59  1  0.84760886  0.35643124  0.85510474  1
  In  In60  1  0.16319700  0.82711568  0.34055603  1
  In  In61  1  0.65769662  0.85016938  0.50965047  1
  In  In62  1  0.18625423  0.01482517  0.83266846  1
  In  In63  1  0.17457388  0.68103950  0.19096401  1
  In  In64  1  0.87333343  0.65059140  0.16593340  1
  In  In65  1  0.31494258  0.14800534  0.51509509  1
  In  In66  1  0.00662872  0.51312112  0.51769291  1
  In  In67  1  0.64171970  0.65376903  0.32875045  1
  In  In68  1  -0.00404116  0.65622372  0.01752559  1
  In  In69  1  0.32895777  0.00767190  -0.01012249  1
  In  In70  1  0.50691770  0.31507478  0.50030753  1
  In  In71  1  0.43350157  0.15878129  0.69721106  1
  Te  Te72  1  0.07790185  0.10742240  0.05487825  1
  Te  Te73  1  0.09270401  0.08191194  0.40596253  1
  Te  Te74  1  0.11198635  0.10876387  0.74291194  1
  Te  Te75  1  0.10529944  0.38720693  0.08125056  1
  Te  Te76  1  0.07790994  0.39742337  0.43195670  1
  Te  Te77  1  0.09406987  0.42761413  0.76829167  1
  Te  Te78  1  0.09068317  0.75785117  0.08831768  1
  Te  Te79  1  0.09079820  0.73764703  0.42976675  1
  Te  Te80  1  0.09556085  0.77718170  0.74754926  1
  Te  Te81  1  0.43474493  0.06175929  0.08802054  1
  Te  Te82  1  0.40485015  0.09203173  0.40729467  1
  Te  Te83  1  0.37375378  0.03845312  0.77217100  1
  Te  Te84  1  0.39687993  0.41266806  0.05748018  1
  Te  Te85  1  0.40627384  0.40565919  0.42187495  1
  Te  Te86  1  0.44802738  0.39177903  0.78329454  1
  Te  Te87  1  0.42794143  0.73276924  0.08193488  1
  Te  Te88  1  0.45010899  0.75473473  0.41099855  1
  Te  Te89  1  0.41269365  0.76950625  0.75591616  1
  Te  Te90  1  0.74848794  0.09938443  0.08845375  1
  Te  Te91  1  0.72694197  0.08718454  0.42028125  1
  Te  Te92  1  0.75001622  0.07865791  0.75727446  1
  Te  Te93  1  0.74710340  0.40785395  0.06160274  1
  Te  Te94  1  0.76167785  0.43154767  0.39437430  1
  Te  Te95  1  0.73782296  0.39247156  0.75488484  1
  Te  Te96  1  0.76457729  0.74200696  0.09401462  1
  Te  Te97  1  0.73517137  0.74570492  0.41551530  1
  Te  Te98  1  0.77580340  0.76167583  0.75158464  1
  Te  Te99  1  0.08710029  0.24393521  0.24839630  1
  Te  Te100  1  0.09560905  0.25540307  0.60190591  1
  Te  Te101  1  0.06704607  0.28208928  0.91461009  1
  Te  Te102  1  0.09309162  0.57821686  0.26707549  1
  Te  Te103  1  0.10421521  0.59063153  0.59232460  1
  Te  Te104  1  0.09232595  0.58860943  0.92100224  1
  Te  Te105  1  0.10100309  0.92808944  0.24534940  1
  Te  Te106  1  0.06595984  0.92558129  0.60160380  1
  Te  Te107  1  0.07301893  0.93877049  0.89304364  1
  Te  Te108  1  0.40763888  0.22468091  0.23841437  1
  Te  Te109  1  0.39448409  0.25640632  0.58502370  1
  Te  Te110  1  0.35815370  0.20860789  0.89393308  1
  Te  Te111  1  0.40761857  0.57028979  0.24440344  1
  Te  Te112  1  0.43059341  0.57879468  0.60188895  1
  Te  Te113  1  0.41030510  0.58738916  0.91430097  1
  Te  Te114  1  0.43349283  0.93887851  0.25339707  1
  Te  Te115  1  0.39806641  0.93004260  0.57222913  1
  Te  Te116  1  0.42236116  0.93476992  0.89926199  1
  Te  Te117  1  0.77708312  0.26888026  0.23796281  1
  Te  Te118  1  0.71777058  0.24260020  0.58094535  1
  Te  Te119  1  0.73762047  0.24594489  0.90865147  1
  Te  Te120  1  0.75028535  0.59433165  0.24287340  1
  Te  Te121  1  0.74212329  0.58207510  0.57838272  1
  Te  Te122  1  0.71955330  0.57320175  0.89852122  1
  Te  Te123  1  0.75158487  0.90596739  0.25246255  1
  Te  Te124  1  0.76892551  0.91716492  0.58838793  1
  Te  Te125  1  0.75659591  0.91319858  0.92194758  1
  Te  Te126  1  0.28377766  0.22868747  0.03449604  1
  Te  Te127  1  0.23029301  0.23078235  0.41886583  1
  Te  Te128  1  0.29109264  0.24746100  0.76232542  1
  Te  Te129  1  0.23815848  0.57853868  0.09816393  1
  Te  Te130  1  0.25933720  0.58091195  0.41971870  1
  Te  Te131  1  0.25617509  0.58770883  0.75998296  1
  Te  Te132  1  0.25201060  0.91012566  0.08757966  1
  Te  Te133  1  0.25680358  0.92207713  0.41553743  1
  Te  Te134  1  0.26599075  0.94515904  0.72892733  1
  Te  Te135  1  0.57627740  0.23746204  0.09756083  1
  Te  Te136  1  0.57022723  0.23255717  0.39266206  1
  Te  Te137  1  0.53498940  0.25861897  0.75266082  1
  Te  Te138  1  0.56807090  0.55202155  0.06594432  1
  Te  Te139  1  0.56050378  0.58513630  0.43740775  1
  Te  Te140  1  0.59283574  0.57558403  0.74287414  1
  Te  Te141  1  0.60054491  0.91311366  0.08197137  1
  Te  Te142  1  0.59338961  0.92990638  0.40683544  1
  Te  Te143  1  0.58495737  0.94861604  0.75155271  1
  Te  Te144  1  0.91504023  0.27339971  0.08052855  1
  Te  Te145  1  0.90918777  0.24145904  0.42801075  1
  Te  Te146  1  0.90935135  0.25349033  0.75140649  1
  Te  Te147  1  0.88798453  0.55509996  0.04873837  1
  Te  Te148  1  0.93230141  0.56079957  0.40059586  1
  Te  Te149  1  0.92834591  0.58587757  0.74512956  1
  Te  Te150  1  0.93946607  0.93671416  0.06878949  1
  Te  Te151  1  0.93455609  0.92931239  0.40546593  1
  Te  Te152  1  0.97593683  0.90701791  0.72966362  1
  Te  Te153  1  0.26130657  0.11933553  0.21639848  1
  Te  Te154  1  0.22916437  0.07857507  0.61651794  1
  Te  Te155  1  0.22056546  0.11000368  0.95511090  1
  Te  Te156  1  0.25269770  0.39745157  0.24213940  1
  Te  Te157  1  0.23910598  0.43247909  0.62056373  1
  Te  Te158  1  0.28954438  0.39248669  0.94667437  1
  Te  Te159  1  0.28129440  0.75072033  0.27259496  1
  Te  Te160  1  0.23955971  0.74342424  0.57542937  1
  Te  Te161  1  0.27027166  0.77952649  0.90758220  1
  Te  Te162  1  0.61797411  0.11509352  0.28992393  1
  Te  Te163  1  0.54547395  0.09910886  0.60163944  1
  Te  Te164  1  0.56331107  0.09996815  0.91581080  1
  Te  Te165  1  0.58366629  0.40949930  0.24623520  1
  Te  Te166  1  0.59076923  0.39514326  0.59110775  1
  Te  Te167  1  0.52256027  0.39025539  0.92345805  1
  Te  Te168  1  0.53844026  0.76146637  0.28123022  1
  Te  Te169  1  0.56855849  0.75710266  0.58921627  1
  Te  Te170  1  0.58987073  0.75374151  0.91819370  1
  Te  Te171  1  0.92004836  0.07379719  0.25264400  1
  Te  Te172  1  0.92456859  0.08136400  0.58848257  1
  Te  Te173  1  0.91148902  0.07616564  0.90122324  1
  Te  Te174  1  0.92225449  0.42729481  0.23427231  1
  Te  Te175  1  0.89632460  0.41526343  0.58677375  1
  Te  Te176  1  0.91237053  0.46806892  0.92093665  1
  Te  Te177  1  0.94281526  0.73826680  0.27000436  1
  Te  Te178  1  0.90305720  0.74413312  0.57285574  1
  Te  Te179  1  0.93635936  0.74875897  0.90968249  1
