# generated using pymatgen
data_In2Te3
_symmetry_space_group_name_H-M   'P 1'
_cell_length_a   18.92828415
_cell_length_b   18.94348680
_cell_length_c   18.92995981
_cell_angle_alpha   89.93286145
_cell_angle_beta   89.88258809
_cell_angle_gamma   90.00837574
_symmetry_Int_Tables_number   1
_chemical_formula_structural   In2Te3
_chemical_formula_sum   'In72 Te108'
_cell_volume   6787.65318212
_cell_formula_units_Z   36
loop_
 _symmetry_equiv_pos_site_id
 _symmetry_equiv_pos_as_xyz
  1  'x, y, z'
loop_
 _atom_site_type_symbol
 _atom_site_label
 _atom_site_symmetry_multiplicity
 _atom_site_fract_x
 _atom_site_fract_y
 _atom_site_fract_z
 _atom_site_occupancy
  In  In0  1  0.67159948  0.81556019  0.83327635  1
  In  In1  1  0.48858886  0.84067277  0.01792722  1
  In  In2  1  0.47852148  0.82752618  0.65432193  1
  In  In3  1  0.31023297  0.82468146  0.83794815  1
  In  In4  1  -0.02069044  0.32584008  0.01516859  1
  In  In5  1  0.65749155  0.66267257  0.33384694  1
  In  In6  1  0.00230807  0.68710381  0.00127771  1
  In  In7  1  0.50582359  0.32811563  0.15452027  1
  In  In8  1  0.47029405  0.51505789  0.02252785  1
  In  In9  1  0.17928158  0.66680968  0.47546940  1
  In  In10  1  0.17190958  -0.01019490  0.87162700  1
  In  In11  1  0.66693963  0.65726888  0.66940812  1
  In  In12  1  0.67549565  0.32593204  -0.02522092  1
  In  In13  1  0.18932011  -0.00524768  0.48558599  1
  In  In14  1  0.16949546  0.17946952  0.67637887  1
  In  In15  1  0.32890950  0.16552531  0.15566872  1
  In  In16  1  0.15464032  0.35726702  0.50266337  1
  In  In17  1  0.18919276  0.67005934  0.84797027  1
  In  In18  1  0.51483204  -0.00261010  0.16700409  1
  In  In19  1  0.65439873  0.48639411  0.82634853  1
  In  In20  1  0.34150191  0.79956848  0.46384099  1
  In  In21  1  0.15598895  0.35915709  0.85334797  1
  In  In22  1  0.33417793  0.81587994  0.20625012  1
  In  In23  1  0.82775233  0.49273107  -0.02181922  1
  In  In24  1  0.64668703  0.00312403  0.63988561  1
  In  In25  1  0.38529975  0.01793403  0.67091311  1
  In  In26  1  0.36374969  0.31531518  -0.01363781  1
  In  In27  1  0.33869429  0.66152648  0.65119784  1
  In  In28  1  0.52584502  0.17956743  0.67172542  1
  In  In29  1  0.16130362  0.01066582  0.16414911  1
  In  In30  1  0.35198336  0.16894839  0.48457868  1
  In  In31  1  0.83591156  -0.00171205  0.50357597  1
  In  In32  1  -0.00892143  0.67735894  0.64669787  1
  In  In33  1  0.67096036  0.31956319  0.32546819  1
  In  In34  1  0.18293241  0.54112913  0.05831491  1
  In  In35  1  0.82004502  0.15969964  0.32732651  1
  In  In36  1  0.00677604  0.50135851  0.82131892  1
  In  In37  1  0.00274260  0.01164788  0.32546849  1
  In  In38  1  -0.02208444  0.32542066  0.66316284  1
  In  In39  1  0.65073401  0.49172368  0.15161923  1
  In  In40  1  0.66011841  0.82194034  0.48288307  1
  In  In41  1  -0.01219473  0.81764341  0.18761153  1
  In  In42  1  0.46649808  0.56309482  0.36741110  1
  In  In43  1  0.84094053  0.82783525  0.00495457  1
  In  In44  1  0.34058168  0.00582790  0.00963096  1
  In  In45  1  -0.02115924  0.02364785  0.67112507  1
  In  In46  1  0.30622969  0.35559540  0.66930234  1
  In  In47  1  -0.00534274  0.81936305  0.49774404  1
  In  In48  1  0.18096075  0.34308396  0.16105437  1
  In  In49  1  0.14764274  0.85205370  0.68216336  1
  In  In50  1  0.32727600  0.36310149  0.31895207  1
  In  In51  1  -0.00402105  0.86048677  0.84485999  1
  In  In52  1  0.83151182  -0.00459989  0.81782518  1
  In  In53  1  0.51523676  0.15523373  0.33551729  1
  In  In54  1  0.64301623  0.63700949  -0.00241800  1
  In  In55  1  0.67935098  -0.02942972  0.32526003  1
  In  In56  1  0.15379903  0.53796458  0.63640752  1
  In  In57  1  0.65510902  0.80805339  0.18638770  1
  In  In58  1  0.01164088  0.52971247  0.19537970  1
  In  In59  1  0.34979588  0.49181945  0.85510873  1
  In  In60  1  0.84779981  0.67189646  0.17639508  1
  In  In61  1  0.52641521  0.01849963  0.84581985  1
  In  In62  1  0.82514459  0.31910510  0.50971602  1
  In  In63  1  -0.02213920  0.16823167  0.83212103  1
  In  In64  1  0.17667048  0.15377870  0.32600490  1
  In  In65  1  0.00031578  0.34415455  0.34080158  1
  In  In66  1  0.81598132  0.49828216  0.64434231  1
  In  In67  1  0.51048797  0.49387349  0.65977227  1
  In  In68  1  0.85502252  0.50916492  0.34846290  1
  In  In69  1  0.65914291  0.17763402  0.83976018  1
  In  In70  1  0.51299300  0.33918041  0.51018245  1
  In  In71  1  -0.01775165  0.16520001  0.15998316  1
  Te  Te72  1  0.08608538  0.10081266  0.07816940  1
  Te  Te73  1  0.08371986  0.09014150  0.42739698  1
  Te  Te74  1  0.09118580  0.07668011  0.75907600  1
  Te  Te75  1  0.07264143  0.42438359  0.08756767  1
  Te  Te76  1  0.09443689  0.44314088  0.39731613  1
  Te  Te77  1  0.09197746  0.41957867  0.72100780  1
  Te  Te78  1  0.09100830  0.73876101  0.10870119  1
  Te  Te79  1  0.10752965  0.77901052  0.41117905  1
  Te  Te80  1  0.08290956  0.73817343  0.76004837  1
  Te  Te81  1  0.44021779  0.09759478  0.07827398  1
  Te  Te82  1  0.41489714  0.06829623  0.39992093  1
  Te  Te83  1  0.43095139  0.12340877  0.78654527  1
  Te  Te84  1  0.39143592  0.41071916  0.10159007  1
  Te  Te85  1  0.42145445  0.42037144  0.42091451  1
  Te  Te86  1  0.42127948  0.40657169  0.75460360  1
  Te  Te87  1  0.40336597  0.74495851  0.09240958  1
  Te  Te88  1  0.44248335  0.71410406  0.39731627  1
  Te  Te89  1  0.40983192  0.74106998  0.75908298  1
  Te  Te90  1  0.67469822  0.10475212  0.09485438  1
  Te  Te91  1  0.73532844  0.07673783  0.42242791  1
  Te  Te92  1  0.72809970  0.07667319  0.74329327  1
  Te  Te93  1  0.75388548  0.40849689  0.07975028  1
  Te  Te94  1  0.75584296  0.41294249  0.41259774  1
  Te  Te95  1  0.75582626  0.41302844  0.74923303  1
  Te  Te96  1  0.74381982  0.72703756  0.07439926  1
  Te  Te97  1  0.75476646  0.75768424  0.38891552  1
  Te  Te98  1  0.75998190  0.74537216  0.74163422  1
  Te  Te99  1  0.08828629  0.24818846  0.24594003  1
  Te  Te100  1  0.07823312  0.24791580  0.57678345  1
  Te  Te101  1  0.07235435  0.25098359  0.91901439  1
  Te  Te102  1  0.11376265  0.63145801  0.22757019  1
  Te  Te103  1  0.05446005  0.59019106  0.53678978  1
  Te  Te104  1  0.08732003  0.57896760  0.92396028  1
  Te  Te105  1  0.09156181  0.91178984  0.25500391  1
  Te  Te106  1  0.07491021  0.93792437  0.57945545  1
  Te  Te107  1  0.10012578  0.88564494  0.94611935  1
  Te  Te108  1  0.41407329  0.24825437  0.25873282  1
  Te  Te109  1  0.40296834  0.26043839  0.59598487  1
  Te  Te110  1  0.44075173  0.22053378  0.91074157  1
  Te  Te111  1  0.37062653  0.57429204  0.25024982  1
  Te  Te112  1  0.42664914  0.57726301  0.57088510  1
  Te  Te113  1  0.41080664  0.60529523  0.92274114  1
  Te  Te114  1  0.44814298  0.89999398  0.25794914  1
  Te  Te115  1  0.38985198  0.90643980  0.56218828  1
  Te  Te116  1  0.41969256  0.92029526  0.90046061  1
  Te  Te117  1  0.76776933  0.26006890  0.23324069  1
  Te  Te118  1  0.78206540  0.21726114  0.60575517  1
  Te  Te119  1  0.77366826  0.23059886  0.91877372  1
  Te  Te120  1  0.75286589  0.56933765  0.23888079  1
  Te  Te121  1  0.73104148  0.58280555  0.55812900  1
  Te  Te122  1  0.74629347  0.58932733  0.89673565  1
  Te  Te123  1  0.76608984  0.88675157  0.24102355  1
  Te  Te124  1  0.74560212  0.90527392  0.58220367  1
  Te  Te125  1  0.74969051  0.91386291  0.91816286  1
  Te  Te126  1  0.24413425  0.24684226  0.06211976  1
  Te  Te127  1  0.24526007  0.25999427  0.41470715  1
  Te  Te128  1  0.24724917  0.26307846  0.77626185  1
  Te  Te129  1  0.30238415  0.60874055  0.11349425  1
  Te  Te130  1  0.27988322  0.60239214  0.38289791  1
  Te  Te131  1  0.25254322  0.56882506  0.75181601  1
  Te  Te132  1  0.26733994  0.91685418  0.10618931  1
  Te  Te133  1  0.24935099  0.89429112  0.39574788  1
  Te  Te134  1  0.25874229  0.93429813  0.74484603  1
  Te  Te135  1  0.60377532  0.24368709  0.08214704  1
  Te  Te136  1  0.59755734  0.23938242  0.43323104  1
  Te  Te137  1  0.60386888  0.27931660  0.74494125  1
  Te  Te138  1  0.55384252  0.60216801  0.11690897  1
  Te  Te139  1  0.60281277  0.56155744  0.42588808  1
  Te  Te140  1  0.56565334  0.59074522  0.76293800  1
  Te  Te141  1  0.60665224  0.90806425  0.08262354  1
  Te  Te142  1  0.57299179  0.91681295  0.41069374  1
  Te  Te143  1  0.57452874  0.90792938  0.74351378  1
  Te  Te144  1  0.88294230  0.22785907  0.06887293  1
  Te  Te145  1  0.91712909  0.24231291  0.41285620  1
  Te  Te146  1  0.88458688  0.23459828  0.73626874  1
  Te  Te147  1  0.91773116  0.57539889  0.07303143  1
  Te  Te148  1  0.94345464  0.61218723  0.40127010  1
  Te  Te149  1  0.91351551  0.57989736  0.73534371  1
  Te  Te150  1  0.93748748  0.90608816  0.08132936  1
  Te  Te151  1  0.91634108  0.91605469  0.40646692  1
  Te  Te152  1  0.91134866  0.89993254  0.72620309  1
  Te  Te153  1  0.27548361  0.06531172  0.25630354  1
  Te  Te154  1  0.25855667  0.09202701  0.58781321  1
  Te  Te155  1  0.25956827  0.09301725  0.92336865  1
  Te  Te156  1  0.21034933  0.43966547  0.26995483  1
  Te  Te157  1  0.25657441  0.45296937  0.56267222  1
  Te  Te158  1  0.24541940  0.43415357  0.94893861  1
  Te  Te159  1  0.24901792  0.70484310  0.26956950  1
  Te  Te160  1  0.23029707  0.75462510  0.59694818  1
  Te  Te161  1  0.23226934  0.76771306  0.94991913  1
  Te  Te162  1  0.61844097  0.09482586  0.23820374  1
  Te  Te163  1  0.53917450  0.07519284  0.56949131  1
  Te  Te164  1  0.61794611  0.07691743  0.94804218  1
  Te  Te165  1  0.57241307  0.41588781  0.25822327  1
  Te  Te166  1  0.60926724  0.39659973  0.60560799  1
  Te  Te167  1  0.56915052  0.42853575  0.93858376  1
  Te  Te168  1  0.54993798  0.75598995  0.27976233  1
  Te  Te169  1  0.57198963  0.73940188  0.57774885  1
  Te  Te170  1  0.57028321  0.74755737  0.92387378  1
  Te  Te171  1  0.89474561  0.06458809  0.23342471  1
  Te  Te172  1  0.90066376  0.11122825  0.57927673  1
  Te  Te173  1  0.93401615  0.05046656  0.90811748  1
  Te  Te174  1  0.91679837  0.41940568  0.23935860  1
  Te  Te175  1  0.92365747  0.42278665  0.56175777  1
  Te  Te176  1  0.91812577  0.40326652  0.89552935  1
  Te  Te177  1  0.92896429  0.72156213  0.29217995  1
  Te  Te178  1  0.89019424  0.73480917  0.55692067  1
  Te  Te179  1  0.90985817  0.74540152  0.89647531  1
