# generated using pymatgen
data_In2Te3
_symmetry_space_group_name_H-M   'P 1'
_cell_length_a   18.82414233
_cell_length_b   18.82613823
_cell_length_c   18.82601719
_cell_angle_alpha   90.02418633
_cell_angle_beta   89.92427628
_cell_angle_gamma   90.06334887
_symmetry_Int_Tables_number   1
_chemical_formula_structural   In2Te3
_chemical_formula_sum   'In72 Te108'
_cell_volume   6671.66465377
_cell_formula_units_Z   36
loop_
 _symmetry_equiv_pos_site_id
 _symmetry_equiv_pos_as_xyz
  1  'x, y, z'
loop_
 _atom_site_type_symbol
 _atom_site_label
 _atom_site_symmetry_multiplicity
 _atom_site_fract_x
 _atom_site_fract_y
 _atom_site_fract_z
 _atom_site_occupancy
  In  In0  1  0.00710842  0.31529466  0.35182256  1
  In  In1  1  0.01176312  0.16841759  0.15741827  1
  In  In2  1  0.68760602  0.82754468  0.50672392  1
  In  In3  1  0.31542898  0.82841726  0.15609008  1
  In  In4  1  0.50158733  0.81955793  0.01726400  1
  In  In5  1  0.19461713  0.15048105  0.65815364  1
  In  In6  1  0.68144057  0.82768227  0.17167490  1
  In  In7  1  0.82102266  -0.01701621  0.49554288  1
  In  In8  1  0.82899880  0.50013157  -0.01483934  1
  In  In9  1  0.19020150  0.64316611  0.15296162  1
  In  In10  1  0.15952285  0.83549955  0.31671379  1
  In  In11  1  0.49164734  0.18591587  0.01583256  1
  In  In12  1  0.81178554  0.16580298  0.67232809  1
  In  In13  1  0.63698575  0.49278469  0.16592413  1
  In  In14  1  0.04054894  0.50260757  0.14490737  1
  In  In15  1  0.01806860  0.35774666  0.68125306  1
  In  In16  1  0.18254617  0.32342655  0.50076300  1
  In  In17  1  0.02137414  0.00970982  0.32152625  1
  In  In18  1  0.82831475  0.66866098  0.18157028  1
  In  In19  1  -0.00085923  0.16218657  0.84870528  1
  In  In20  1  0.51313774  0.65537089  0.48940036  1
  In  In21  1  0.49123539  0.63430014  0.17566150  1
  In  In22  1  0.67157546  0.02103557  -0.00185981  1
  In  In23  1  0.48861438  0.84458062  0.64761696  1
  In  In24  1  0.66247496  0.34188890  0.32876142  1
  In  In25  1  0.48907787  0.49436436  0.67036552  1
  In  In26  1  0.82511518  0.81978618  0.34950252  1
  In  In27  1  0.66675835  0.16715664  0.51751474  1
  In  In28  1  0.33205651  0.48812922  0.50151878  1
  In  In29  1  0.35570086  0.82864700  0.50158189  1
  In  In30  1  0.49827402  0.33477740  0.82499905  1
  In  In31  1  0.35126857  0.20501588  0.18099522  1
  In  In32  1  0.03869877  0.50202338  0.81795470  1
  In  In33  1  -0.00441793  0.17998936  0.47717189  1
  In  In34  1  0.01082676  0.83504645  0.53407372  1
  In  In35  1  0.01639997  0.49415370  0.49018655  1
  In  In36  1  0.00020098  -0.00614172  0.66378631  1
  In  In37  1  0.84584607  0.82509493  0.00938361  1
  In  In38  1  0.83699483  0.48944120  0.33763472  1
  In  In39  1  0.00744099  0.67684881  -0.00924284  1
  In  In40  1  0.02709999  0.00590276  -0.01127222  1
  In  In41  1  0.02262382  0.32951532  0.01471648  1
  In  In42  1  0.48515753  0.33464001  0.50218701  1
  In  In43  1  0.48903218  0.65743000  0.83168659  1
  In  In44  1  0.84097506  0.01292315  0.81537653  1
  In  In45  1  0.63862445  0.01880311  0.33213713  1
  In  In46  1  -0.00632137  0.66837821  0.65931570  1
  In  In47  1  0.46622861  0.02234282  0.50012295  1
  In  In48  1  0.66653041  0.82862197  0.82107625  1
  In  In49  1  0.49976562  0.81767136  0.34525125  1
  In  In50  1  0.65622793  0.33071361  -0.01147325  1
  In  In51  1  0.82574708  0.33458700  0.84691298  1
  In  In52  1  0.83685475  0.02198907  0.15463046  1
  In  In53  1  0.48998582  0.02063996  0.17898539  1
  In  In54  1  0.31926299  0.82577033  0.83481329  1
  In  In55  1  0.17156054  0.65067537  0.50442072  1
  In  In56  1  0.17713192  0.18063463  0.32283334  1
  In  In57  1  0.17208530  0.84477441  0.67602812  1
  In  In58  1  0.32974648  0.01674915  0.34280691  1
  In  In59  1  0.65811085  0.49468094  0.84706937  1
  In  In60  1  -0.01212306  0.66281201  0.31891483  1
  In  In61  1  0.84140314  0.32619578  0.18379647  1
  In  In62  1  0.82685305  0.83346959  0.67644070  1
  In  In63  1  0.17588591  0.65326638  0.82978281  1
  In  In64  1  0.83242514  0.49476876  0.65310921  1
  In  In65  1  0.47610999  0.01917696  0.83440859  1
  In  In66  1  0.65127439  0.50405792  0.50579451  1
  In  In67  1  0.29953273  0.02638695  -0.04296941  1
  In  In68  1  0.49029549  0.18995198  0.66455617  1
  In  In69  1  0.33324009  0.34906532  0.00825215  1
  In  In70  1  0.33021851  0.50045705  0.83579204  1
  In  In71  1  0.15949055  0.82511350  -0.00683712  1
  Te  Te72  1  0.10780887  0.09707859  0.07169820  1
  Te  Te73  1  0.10436324  0.08794404  0.42155682  1
  Te  Te74  1  0.08594081  0.08539954  0.74855999  1
  Te  Te75  1  0.13276064  0.40285364  0.08538795  1
  Te  Te76  1  0.11169413  0.41567381  0.40099378  1
  Te  Te77  1  0.13273400  0.39647090  0.76846461  1
  Te  Te78  1  0.08629237  0.74560832  0.10109949  1
  Te  Te79  1  0.07498986  0.74895415  0.42302617  1
  Te  Te80  1  0.08256322  0.74817057  0.75428280  1
  Te  Te81  1  0.39871795  0.07446103  0.07023323  1
  Te  Te82  1  0.42179592  0.11788192  0.39725824  1
  Te  Te83  1  0.39165066  0.10746283  0.75044171  1
  Te  Te84  1  0.40370043  0.44396943  0.10505800  1
  Te  Te85  1  0.40073923  0.40240372  0.39569983  1
  Te  Te86  1  0.39371222  0.39639314  0.73416366  1
  Te  Te87  1  0.40377417  0.72661411  0.08483451  1
  Te  Te88  1  0.40125826  0.71937105  0.40457260  1
  Te  Te89  1  0.40935618  0.74930634  0.73944223  1
  Te  Te90  1  0.72795265  0.10679936  0.10403402  1
  Te  Te91  1  0.74933869  0.08735078  0.41285345  1
  Te  Te92  1  0.72640398  0.08578617  0.76087750  1
  Te  Te93  1  0.75411150  0.41600952  0.08734995  1
  Te  Te94  1  0.75129261  0.41056568  0.43307272  1
  Te  Te95  1  0.74194171  0.41224043  0.74878034  1
  Te  Te96  1  0.74198453  0.73045434  0.07188760  1
  Te  Te97  1  0.72874871  0.72638358  0.40746606  1
  Te  Te98  1  0.74828546  0.73113858  0.74745053  1
  Te  Te99  1  0.09413714  0.27208244  0.23465207  1
  Te  Te100  1  0.07928759  0.24232601  0.58966721  1
  Te  Te101  1  0.10235233  0.24758482  0.91621358  1
  Te  Te102  1  0.10000532  0.57808350  0.26357469  1
  Te  Te103  1  0.09111030  0.56510392  0.60293350  1
  Te  Te104  1  0.10302868  0.57114196  0.93771500  1
  Te  Te105  1  0.09785504  0.93100375  0.22450580  1
  Te  Te106  1  0.11116006  0.94145780  0.57223162  1
  Te  Te107  1  0.09492985  0.91385932  0.89414472  1
  Te  Te108  1  0.41188769  0.29957158  0.27593456  1
  Te  Te109  1  0.38782807  0.24726016  0.57394248  1
  Te  Te110  1  0.40396232  0.25057101  0.91159793  1
  Te  Te111  1  0.38822755  0.54412665  0.23943798  1
  Te  Te112  1  0.41182801  0.59161684  0.58438703  1
  Te  Te113  1  0.42233729  0.56943288  0.92934828  1
  Te  Te114  1  0.41561627  0.90505109  0.24999408  1
  Te  Te115  1  0.37546198  0.94751948  0.60622618  1
  Te  Te116  1  0.41595003  0.91037048  0.92841691  1
  Te  Te117  1  0.74064299  0.24239556  0.24967560  1
  Te  Te118  1  0.75231542  0.26692158  0.58551675  1
  Te  Te119  1  0.74822559  0.23633468  0.92283988  1
  Te  Te120  1  0.73875961  0.57092100  0.25564680  1
  Te  Te121  1  0.74631598  0.58890293  0.58129068  1
  Te  Te122  1  0.75522593  0.59316870  0.90046303  1
  Te  Te123  1  0.75214462  0.92949091  0.26163181  1
  Te  Te124  1  0.73367024  0.93354220  0.60875798  1
  Te  Te125  1  0.75070321  0.91614416  0.92011909  1
  Te  Te126  1  0.25084193  0.25122681  0.08530635  1
  Te  Te127  1  0.27433717  0.23897451  0.41944760  1
  Te  Te128  1  0.27325166  0.21227221  0.77004570  1
  Te  Te129  1  0.27953633  0.54483266  0.08263651  1
  Te  Te130  1  0.24374125  0.56605528  0.40974887  1
  Te  Te131  1  0.26519266  0.58757842  0.73458980  1
  Te  Te132  1  0.24595822  0.92773979  0.06646877  1
  Te  Te133  1  0.25476738  0.90612548  0.41458220  1
  Te  Te134  1  0.24039363  0.93431582  0.77350443  1
  Te  Te135  1  0.57141871  0.27754001  0.10007606  1
  Te  Te136  1  0.58143384  0.24776076  0.42104492  1
  Te  Te137  1  0.59356749  0.24953089  0.75215849  1
  Te  Te138  1  0.58448405  0.59021772  0.06971448  1
  Te  Te139  1  0.56191563  0.55095087  0.39857597  1
  Te  Te140  1  0.58815983  0.58333380  0.74252859  1
  Te  Te141  1  0.58674246  0.92270012  0.09480943  1
  Te  Te142  1  0.57556381  0.91553679  0.43385776  1
  Te  Te143  1  0.56480095  0.92210219  0.75529080  1
  Te  Te144  1  0.90919156  0.24531390  0.07295010  1
  Te  Te145  1  0.88691374  0.25518322  0.41078846  1
  Te  Te146  1  0.92331249  0.25291519  0.74830979  1
  Te  Te147  1  0.91792580  0.58396755  0.08925880  1
  Te  Te148  1  0.91261366  0.58743383  0.42769705  1
  Te  Te149  1  0.92047749  0.57333602  0.75422228  1
  Te  Te150  1  0.93058757  0.92483616  0.08609923  1
  Te  Te151  1  0.93442804  0.91660606  0.41712368  1
  Te  Te152  1  0.93147961  0.90224362  0.76379966  1
  Te  Te153  1  0.25582854  0.08714066  0.23267667  1
  Te  Te154  1  0.28461728  0.07098371  0.57213073  1
  Te  Te155  1  0.22044379  0.13542477  0.89684767  1
  Te  Te156  1  0.27361039  0.44568964  0.20056989  1
  Te  Te157  1  0.25065894  0.41001711  0.59846129  1
  Te  Te158  1  0.23928202  0.40206707  0.90269234  1
  Te  Te159  1  0.25717342  0.73275687  0.25969193  1
  Te  Te160  1  0.25331078  0.75120995  0.58614308  1
  Te  Te161  1  0.26033661  0.72708299  0.93427706  1
  Te  Te162  1  0.57154336  0.12036273  0.24890457  1
  Te  Te163  1  0.57184012  0.07509356  0.59397675  1
  Te  Te164  1  0.57435955  0.10359178  0.91538643  1
  Te  Te165  1  0.55277539  0.38888920  0.23486016  1
  Te  Te166  1  0.58399606  0.40150740  0.59752800  1
  Te  Te167  1  0.55219768  0.42826849  0.93403841  1
  Te  Te168  1  0.58595320  0.73778118  0.24932434  1
  Te  Te169  1  0.58773853  0.74570696  0.58841917  1
  Te  Te170  1  0.58484496  0.74144399  0.91841083  1
  Te  Te171  1  0.91792849  0.10127649  0.25854117  1
  Te  Te172  1  0.91226797  0.08102211  0.57521506  1
  Te  Te173  1  0.90268962  0.08219919  0.93526144  1
  Te  Te174  1  0.94130322  0.42708529  0.24502039  1
  Te  Te175  1  0.92395549  0.40280974  0.56995251  1
  Te  Te176  1  0.93928382  0.41687394  0.91325921  1
  Te  Te177  1  0.92175047  0.77484207  0.23952888  1
  Te  Te178  1  0.89491436  0.74490411  0.57048476  1
  Te  Te179  1  0.91211956  0.74624918  0.90434119  1
