# generated using pymatgen
data_In2Te3
_symmetry_space_group_name_H-M   'P 1'
_cell_length_a   18.93949410
_cell_length_b   18.94962373
_cell_length_c   18.94830880
_cell_angle_alpha   90.03991779
_cell_angle_beta   90.05510278
_cell_angle_gamma   89.90561399
_symmetry_Int_Tables_number   1
_chemical_formula_structural   In2Te3
_chemical_formula_sum   'In72 Te108'
_cell_volume   6800.46365786
_cell_formula_units_Z   36
loop_
 _symmetry_equiv_pos_site_id
 _symmetry_equiv_pos_as_xyz
  1  'x, y, z'
loop_
 _atom_site_type_symbol
 _atom_site_label
 _atom_site_symmetry_multiplicity
 _atom_site_fract_x
 _atom_site_fract_y
 _atom_site_fract_z
 _atom_site_occupancy
  In  In0  1  0.01138217  0.35675522  0.67458785  1
  In  In1  1  0.84268578  0.51056757  0.01021026  1
  In  In2  1  0.47960615  0.17459793  0.66908979  1
  In  In3  1  0.01284175  0.84740415  0.48479802  1
  In  In4  1  0.15623078  0.17794840  0.65962620  1
  In  In5  1  0.64882326  0.66827208  0.32312655  1
  In  In6  1  0.80833309  0.33566937  0.84564108  1
  In  In7  1  0.82771474  0.52099784  0.67761459  1
  In  In8  1  0.83906144  -0.01198800  0.84832805  1
  In  In9  1  0.68868228  0.12595602  0.13690110  1
  In  In10  1  -0.00282147  0.66934461  0.66952405  1
  In  In11  1  0.32532465  0.67739007  0.67915967  1
  In  In12  1  0.47080837  0.30394833  0.50380727  1
  In  In13  1  0.84369987  0.63596427  0.52026734  1
  In  In14  1  0.66629767  0.82131622  0.16036040  1
  In  In15  1  0.01993325  0.34692548  0.02403404  1
  In  In16  1  0.07011082  0.04529985  0.33430558  1
  In  In17  1  0.33626451  0.31006561  0.08387693  1
  In  In18  1  -0.01157069  0.70091881  -0.01117545  1
  In  In19  1  0.31035099  0.34735249  0.30733809  1
  In  In20  1  -0.00529074  0.48021094  0.49832471  1
  In  In21  1  0.66279024  0.68171652  0.69908703  1
  In  In22  1  0.35147867  0.52247739  0.85602953  1
  In  In23  1  0.66220978  0.84789700  0.47468072  1
  In  In24  1  0.16313454  0.82067856  0.31909365  1
  In  In25  1  0.02586999  0.33488895  0.31170536  1
  In  In26  1  0.33491508  0.84727313  0.49499294  1
  In  In27  1  0.50884701  0.50385048  0.67357683  1
  In  In28  1  0.18203602  0.51217615  0.00952025  1
  In  In29  1  0.83033604  -0.00596450  0.49488464  1
  In  In30  1  0.31392810  0.01967178  0.00082183  1
  In  In31  1  0.84226154  0.66005489  0.15706990  1
  In  In32  1  0.64430119  0.15475120  0.84990955  1
  In  In33  1  0.18138443  0.31584613  0.49799509  1
  In  In34  1  0.64664877  0.50969879  0.15377195  1
  In  In35  1  0.51448950  0.82799295  0.31411143  1
  In  In36  1  0.52259907  0.67284575  0.49808452  1
  In  In37  1  0.65808375  0.35783053  0.32885952  1
  In  In38  1  0.84238639  0.47220392  0.33406098  1
  In  In39  1  0.48674928  0.82328457  0.01584027  1
  In  In40  1  0.48105579  0.33179161  0.84614472  1
  In  In41  1  0.47100217  0.84376867  0.67666691  1
  In  In42  1  0.17164365  0.00085176  0.16703816  1
  In  In43  1  0.63496668  0.02270359  0.66979383  1
  In  In44  1  0.17315189  0.83616434  0.00545676  1
  In  In45  1  0.17899677  0.66396992  0.16382665  1
  In  In46  1  0.17563204  0.65860940  0.50253076  1
  In  In47  1  0.34607811  0.00636282  0.32162043  1
  In  In48  1  0.14806291  0.65862451  0.82137766  1
  In  In49  1  0.67230759  0.66404653  0.00012829  1
  In  In50  1  0.01751301  0.19457466  0.83483046  1
  In  In51  1  0.36704517  0.63166360  0.30225365  1
  In  In52  1  -0.02532542  -0.00950251  0.65026439  1
  In  In53  1  0.17270736  0.00461604  0.83851981  1
  In  In54  1  0.82775040  0.13983216  0.32001968  1
  In  In55  1  0.84802013  0.32417742  0.17083041  1
  In  In56  1  0.02694155  0.16051147  0.14780204  1
  In  In57  1  0.33343350  0.83012277  0.85172591  1
  In  In58  1  0.83088166  0.79611163  0.31537967  1
  In  In59  1  -0.01630207  -0.02678742  -0.00269708  1
  In  In60  1  0.48459345  0.18872237  0.31656376  1
  In  In61  1  0.67606787  0.33821421  0.65232194  1
  In  In62  1  0.85244882  0.14752034  0.65445211  1
  In  In63  1  0.18046702  0.34108937  0.82237852  1
  In  In64  1  0.33000435  0.48330979  0.50811149  1
  In  In65  1  0.80786617  0.81789616  0.68200069  1
  In  In66  1  0.49901649  0.15731604  0.01317526  1
  In  In67  1  0.64278848  0.00122082  0.33191302  1
  In  In68  1  0.32072063  0.03265267  0.68103450  1
  In  In69  1  0.67995819  0.84634202  0.83094969  1
  In  In70  1  0.65195954  0.33228740  -0.01545084  1
  In  In71  1  0.82424508  0.31353258  0.47312720  1
  Te  Te72  1  0.09356929  0.06386031  0.05290676  1
  Te  Te73  1  0.15791608  0.12753938  0.41721360  1
  Te  Te74  1  0.06565036  0.07969642  0.74590235  1
  Te  Te75  1  0.11974385  0.41856867  0.11041178  1
  Te  Te76  1  0.10233013  0.41819884  0.41244606  1
  Te  Te77  1  0.07718540  0.43599639  0.77631133  1
  Te  Te78  1  0.07856443  0.76149188  0.09596747  1
  Te  Te79  1  0.07941917  0.73305013  0.41072106  1
  Te  Te80  1  0.08777482  0.76153684  0.73696941  1
  Te  Te81  1  0.40132355  0.08642565  0.10161062  1
  Te  Te82  1  0.40613849  0.10772077  0.41142846  1
  Te  Te83  1  0.42640110  0.08300787  0.76912545  1
  Te  Te84  1  0.42472140  0.42469020  0.09853633  1
  Te  Te85  1  0.41206976  0.40601937  0.40843541  1
  Te  Te86  1  0.40654482  0.42311170  0.74982919  1
  Te  Te87  1  0.39098364  0.72101055  0.06397741  1
  Te  Te88  1  0.42046297  0.75010406  0.41331202  1
  Te  Te89  1  0.42687310  0.73659575  0.77435501  1
  Te  Te90  1  0.78887198  0.03281183  0.08587107  1
  Te  Te91  1  0.73167340  0.08432979  0.42332264  1
  Te  Te92  1  0.75446329  0.08309537  0.75209337  1
  Te  Te93  1  0.75057274  0.40985769  0.08936685  1
  Te  Te94  1  0.73762628  0.43296010  0.43505698  1
  Te  Te95  1  0.73146348  0.43234778  0.75746626  1
  Te  Te96  1  0.77120879  0.76033396  0.06876807  1
  Te  Te97  1  0.74726621  0.72831957  0.43120053  1
  Te  Te98  1  0.78090307  0.72350077  0.80047555  1
  Te  Te99  1  0.11650443  0.24323874  0.23588355  1
  Te  Te100  1  0.05807529  0.25784535  0.57392143  1
  Te  Te101  1  0.10794320  0.26044364  0.93529045  1
  Te  Te102  1  0.13555750  0.56597398  0.26246464  1
  Te  Te103  1  0.07994744  0.57317271  0.58382549  1
  Te  Te104  1  0.07467921  0.58419710  0.93055272  1
  Te  Te105  1  0.07087321  0.91886869  0.24817505  1
  Te  Te106  1  0.08716951  0.93203773  0.57658813  1
  Te  Te107  1  0.08209022  0.90210844  0.90424425  1
  Te  Te108  1  0.41283692  0.27786432  0.21778445  1
  Te  Te109  1  0.37593967  0.25943641  0.60705206  1
  Te  Te110  1  0.40339017  0.25616067  0.95008109  1
  Te  Te111  1  0.42115580  0.52436065  0.21770557  1
  Te  Te112  1  0.41636146  0.59993960  0.58171576  1
  Te  Te113  1  0.41563870  0.61196276  0.95700261  1
  Te  Te114  1  0.43091192  0.91904378  0.23407672  1
  Te  Te115  1  0.40860029  0.94417508  0.58455876  1
  Te  Te116  1  0.41457851  0.92951508  0.92888079  1
  Te  Te117  1  0.74571571  0.25145480  0.25576098  1
  Te  Te118  1  0.74950124  0.22955459  0.57498686  1
  Te  Te119  1  0.75095079  0.22520740  0.93184680  1
  Te  Te120  1  0.75365083  0.57341134  0.25142085  1
  Te  Te121  1  0.71953670  0.58727353  0.59302873  1
  Te  Te122  1  0.75093409  0.57167563  0.91556661  1
  Te  Te123  1  0.73965792  0.90742047  0.26197624  1
  Te  Te124  1  0.73927230  0.92659115  0.59488279  1
  Te  Te125  1  0.72645225  0.94356831  0.93415893  1
  Te  Te126  1  0.22587351  0.21872827  0.12490923  1
  Te  Te127  1  0.26910665  0.23686686  0.40534993  1
  Te  Te128  1  0.25762713  0.23866439  0.74842195  1
  Te  Te129  1  0.28619910  0.59978918  0.07645421  1
  Te  Te130  1  0.26758464  0.58220780  0.40971302  1
  Te  Te131  1  0.24881514  0.56977256  0.74988863  1
  Te  Te132  1  0.26770911  0.90593507  0.09759132  1
  Te  Te133  1  0.24269623  0.92076248  0.40057072  1
  Te  Te134  1  0.25435569  0.91117646  0.75131913  1
  Te  Te135  1  0.59810636  0.24273915  0.09249396  1
  Te  Te136  1  0.58508713  0.25456086  0.41154090  1
  Te  Te137  1  0.59152674  0.26366729  0.75733840  1
  Te  Te138  1  0.56319882  0.57529945  0.05000407  1
  Te  Te139  1  0.57174537  0.57370292  0.40269824  1
  Te  Te140  1  0.57220207  0.59252884  0.77096387  1
  Te  Te141  1  0.55938806  0.91229123  0.11162204  1
  Te  Te142  1  0.54793957  0.93145741  0.42648168  1
  Te  Te143  1  0.56719973  0.92503855  0.76199181  1
  Te  Te144  1  0.92063197  0.23799859  0.07127956  1
  Te  Te145  1  0.92386054  0.24570794  0.38351512  1
  Te  Te146  1  0.90200684  0.26090561  0.74707746  1
  Te  Te147  1  0.95104025  0.58203509  0.08610632  1
  Te  Te148  1  0.92540251  0.57905682  0.40537250  1
  Te  Te149  1  0.93390913  0.57431375  0.76194237  1
  Te  Te150  1  0.88449493  0.91156630  0.08456017  1
  Te  Te151  1  0.90380917  0.90626003  0.39729611  1
  Te  Te152  1  0.91677824  0.89710696  0.75451675  1
  Te  Te153  1  0.27927050  0.09700506  0.21521317  1
  Te  Te154  1  0.22987974  0.08198688  0.57335027  1
  Te  Te155  1  0.25553379  0.10869731  0.89859564  1
  Te  Te156  1  0.22201807  0.44632755  0.22996090  1
  Te  Te157  1  0.23079515  0.41765666  0.59147895  1
  Te  Te158  1  0.26580161  0.41780835  0.92512595  1
  Te  Te159  1  0.27669294  0.74602409  0.25267812  1
  Te  Te160  1  0.24421249  0.76569292  0.58571198  1
  Te  Te161  1  0.24050097  0.73290102  0.91852003  1
  Te  Te162  1  0.57727573  0.09361534  0.23371121  1
  Te  Te163  1  0.57123752  0.11011666  0.57334962  1
  Te  Te164  1  0.58576707  0.05887610  0.94336427  1
  Te  Te165  1  0.56006584  0.42123964  0.23652884  1
  Te  Te166  1  0.56661722  0.40615653  0.57334767  1
  Te  Te167  1  0.56428980  0.42857030  0.92092195  1
  Te  Te168  1  0.56053872  0.72182666  0.21468592  1
  Te  Te169  1  0.58580846  0.77478098  0.59553621  1
  Te  Te170  1  0.58810831  0.76260816  0.91906807  1
  Te  Te171  1  0.94541960  0.07818083  0.24822788  1
  Te  Te172  1  0.93656210  0.09177809  0.53995803  1
  Te  Te173  1  0.93124449  0.09262907  0.90844686  1
  Te  Te174  1  0.94118064  0.43000085  0.22708655  1
  Te  Te175  1  0.88933010  0.41023261  0.58204499  1
  Te  Te176  1  0.91533203  0.40582100  0.92649936  1
  Te  Te177  1  0.93867720  0.72755795  0.24584821  1
  Te  Te178  1  0.90661100  0.76401375  0.57347306  1
  Te  Te179  1  0.89467041  0.76533067  0.89846761  1
