# generated using pymatgen
data_In2Te3
_symmetry_space_group_name_H-M   'P 1'
_cell_length_a   18.76598216
_cell_length_b   18.76513638
_cell_length_c   18.76619315
_cell_angle_alpha   90.07944952
_cell_angle_beta   90.09012428
_cell_angle_gamma   89.98235445
_symmetry_Int_Tables_number   1
_chemical_formula_structural   In2Te3
_chemical_formula_sum   'In72 Te108'
_cell_volume   6608.42904298
_cell_formula_units_Z   36
loop_
 _symmetry_equiv_pos_site_id
 _symmetry_equiv_pos_as_xyz
  1  'x, y, z'
loop_
 _atom_site_type_symbol
 _atom_site_label
 _atom_site_symmetry_multiplicity
 _atom_site_fract_x
 _atom_site_fract_y
 _atom_site_fract_z
 _atom_site_occupancy
  In  In0  1  -0.00639892  0.82414139  0.51534756  1
  In  In1  1  0.81407396  0.17315992  0.33199426  1
  In  In2  1  0.68316159  -0.01364892  0.66483232  1
  In  In3  1  -0.02689081  0.16464909  0.51779951  1
  In  In4  1  0.15977564  -0.03476244  0.50149402  1
  In  In5  1  0.17696936  0.66562745  0.49919399  1
  In  In6  1  0.51311353  0.19023906  -0.00657782  1
  In  In7  1  0.33700534  0.49034192  0.79397767  1
  In  In8  1  0.15981147  0.31693673  0.86085839  1
  In  In9  1  0.50023333  -0.01358440  0.12911558  1
  In  In10  1  0.16587837  0.67335023  0.17966012  1
  In  In11  1  0.50164534  0.67668063  0.82312023  1
  In  In12  1  0.19172982  0.48357491  0.32708763  1
  In  In13  1  0.69008631  0.36508361  0.34984207  1
  In  In14  1  0.83868063  0.17813237  -0.01666024  1
  In  In15  1  0.81567427  0.68038774  0.47647307  1
  In  In16  1  0.32798877  0.18413152  0.18033934  1
  In  In17  1  -0.01905451  0.34696470  0.32317882  1
  In  In18  1  0.14733947  0.18103479  0.01440172  1
  In  In19  1  0.00129801  0.48212323  0.85174068  1
  In  In20  1  0.30441173  0.65332075  0.01054491  1
  In  In21  1  0.83020703  -0.01289640  0.17825071  1
  In  In22  1  0.50940526  0.66687492  0.18306801  1
  In  In23  1  -0.01960672  0.65567907  0.34355107  1
  In  In24  1  0.52356126  0.36296327  0.49474481  1
  In  In25  1  0.51737474  0.21167225  0.33278040  1
  In  In26  1  -0.02891523  0.50486823  0.14868417  1
  In  In27  1  0.66664240  -0.01640582  -0.00578036  1
  In  In28  1  0.79497138  0.18803707  0.64660529  1
  In  In29  1  -0.02617927  0.84536156  0.82054111  1
  In  In30  1  -0.00801281  0.02679198  -0.01025132  1
  In  In31  1  0.33783169  0.18006927  0.84662345  1
  In  In32  1  0.16263531  0.63899051  0.82792318  1
  In  In33  1  0.66818344  0.68407224  0.67564325  1
  In  In34  1  0.00736895  0.66980793  0.65537586  1
  In  In35  1  0.49876246  0.51737915  0.34207396  1
  In  In36  1  0.83467075  -0.01674780  0.50623614  1
  In  In37  1  0.17078766  -0.00026174  0.81353821  1
  In  In38  1  0.50808613  0.33225582  0.16117268  1
  In  In39  1  0.53141168  0.83125641  -0.00370643  1
  In  In40  1  0.15190562  0.13185665  0.68542200  1
  In  In41  1  0.15539973  0.49748247  0.01615611  1
  In  In42  1  0.83563086  0.35277349  0.83170109  1
  In  In43  1  0.66622269  -0.00754163  0.33166008  1
  In  In44  1  0.34245196  0.35420984  0.66712581  1
  In  In45  1  0.67701782  0.65596402  0.00311741  1
  In  In46  1  0.16177874  0.17577511  0.33270252  1
  In  In47  1  0.32200927  -0.00803158  0.35434338  1
  In  In48  1  0.82059025  0.83003578  -0.00496686  1
  In  In49  1  0.34632686  0.32655947  0.00701223  1
  In  In50  1  0.54448486  0.20136333  0.68403799  1
  In  In51  1  -0.01284684  0.17764162  0.14859263  1
  In  In52  1  0.82330370  0.67198160  0.83352196  1
  In  In53  1  0.35265025  -0.01935448  0.65569705  1
  In  In54  1  0.15236628  0.81001479  0.00863334  1
  In  In55  1  0.01215814  -0.02119001  0.34013682  1
  In  In56  1  0.34003540  0.81233009  0.18238225  1
  In  In57  1  0.49515943  -0.00707189  0.51641248  1
  In  In58  1  -0.02734060  0.35139732  0.66275011  1
  In  In59  1  0.32280565  -0.02512881  0.00938530  1
  In  In60  1  0.51051346  0.65347235  0.50541444  1
  In  In61  1  0.51050950  0.50248823  -0.01483118  1
  In  In62  1  0.50879880  0.81179621  0.34292236  1
  In  In63  1  0.52541989  0.00139041  0.80857915  1
  In  In64  1  0.65630501  0.17828990  0.16812870  1
  In  In65  1  0.33324784  0.17817960  0.49340115  1
  In  In66  1  0.16220046  0.34768183  0.51012081  1
  In  In67  1  0.67673357  0.51130929  0.82002581  1
  In  In68  1  0.36127998  0.82138234  0.80659239  1
  In  In69  1  0.81184280  0.51611047  0.66182271  1
  In  In70  1  -0.00553460  0.82082243  0.19718609  1
  In  In71  1  0.16454207  0.51344872  0.65033286  1
  Te  Te72  1  0.08765770  0.07085084  0.10179050  1
  Te  Te73  1  0.08113495  0.08989015  0.43405228  1
  Te  Te74  1  0.05201698  0.08524063  0.78314038  1
  Te  Te75  1  0.05999673  0.40532360  0.08038546  1
  Te  Te76  1  0.07328959  0.42651885  0.41528222  1
  Te  Te77  1  0.09822507  0.41431841  0.74725192  1
  Te  Te78  1  0.05506603  0.72648751  0.08925276  1
  Te  Te79  1  0.07987003  0.75056149  0.41437108  1
  Te  Te80  1  0.08296257  0.75051051  0.75935731  1
  Te  Te81  1  0.41254240  0.10652330  0.07534337  1
  Te  Te82  1  0.42726533  0.09297649  0.40784053  1
  Te  Te83  1  0.41401006  0.09296780  0.74631095  1
  Te  Te84  1  0.41867835  0.43281173  0.08784740  1
  Te  Te85  1  0.41270968  0.43040934  0.42838395  1
  Te  Te86  1  0.45485610  0.41984190  0.73877086  1
  Te  Te87  1  0.42109383  0.74786594  0.06357185  1
  Te  Te88  1  0.41441044  0.72195744  0.41135869  1
  Te  Te89  1  0.44006097  0.74542051  0.70067871  1
  Te  Te90  1  0.74787828  0.08232464  0.09014962  1
  Te  Te91  1  0.74295537  0.08185343  0.43094893  1
  Te  Te92  1  0.74688594  0.09220193  0.74835374  1
  Te  Te93  1  0.78287420  0.46279333  0.10795985  1
  Te  Te94  1  0.77691978  0.41860578  0.45751323  1
  Te  Te95  1  0.72872600  0.39511092  0.71620221  1
  Te  Te96  1  0.75596985  0.74258602  0.09603826  1
  Te  Te97  1  0.73710496  0.74736033  0.36992931  1
  Te  Te98  1  0.76649731  0.77357329  0.74418841  1
  Te  Te99  1  0.07728830  0.26327950  0.24014968  1
  Te  Te100  1  0.08085797  0.24750815  0.59313018  1
  Te  Te101  1  0.05149662  0.23205941  0.91320088  1
  Te  Te102  1  0.07473387  0.56930453  0.25234326  1
  Te  Te103  1  0.06117554  0.56992138  0.55571513  1
  Te  Te104  1  0.06629814  0.59291447  0.93629786  1
  Te  Te105  1  0.10466919  0.89679115  0.26106615  1
  Te  Te106  1  0.06752437  0.91768093  0.60887185  1
  Te  Te107  1  0.08484257  0.91576440  0.91944129  1
  Te  Te108  1  0.40198751  0.28869565  0.26571562  1
  Te  Te109  1  0.43168979  0.25111943  0.58418295  1
  Te  Te110  1  0.44040233  0.28227219  0.89393176  1
  Te  Te111  1  0.40499089  0.58859051  0.24966576  1
  Te  Te112  1  0.41061139  0.61878365  0.61344765  1
  Te  Te113  1  0.40571834  0.58924944  0.90781778  1
  Te  Te114  1  0.42661688  0.92095714  0.25101778  1
  Te  Te115  1  0.39497057  0.88673518  0.54760911  1
  Te  Te116  1  0.43127849  0.92242334  0.91181432  1
  Te  Te117  1  0.75252172  0.27390776  0.23712490  1
  Te  Te118  1  0.72241833  0.28530840  0.55748024  1
  Te  Te119  1  0.73939925  0.25551594  0.89910801  1
  Te  Te120  1  0.77346594  0.55570097  0.22028972  1
  Te  Te121  1  0.72255776  0.59120166  0.56367815  1
  Te  Te122  1  0.77486423  0.56089121  0.92648555  1
  Te  Te123  1  0.76103990  0.89317285  0.27138775  1
  Te  Te124  1  0.74315935  0.88655840  0.57082429  1
  Te  Te125  1  0.75458294  0.91801526  0.89393104  1
  Te  Te126  1  0.23373495  0.27739753  0.09893144  1
  Te  Te127  1  0.25158813  0.27425047  0.40852386  1
  Te  Te128  1  0.24892232  0.25274622  0.74311838  1
  Te  Te129  1  0.25222380  0.56016910  0.11660446  1
  Te  Te130  1  0.26420151  0.58263951  0.41153829  1
  Te  Te131  1  0.27279964  0.61544141  0.71750603  1
  Te  Te132  1  0.23482035  0.89746700  0.10448185  1
  Te  Te133  1  0.26308458  0.88201832  0.43533870  1
  Te  Te134  1  0.24803800  0.89759488  0.73015950  1
  Te  Te135  1  0.61480209  0.28198878  0.06343278  1
  Te  Te136  1  0.61955984  0.24740246  0.43762647  1
  Te  Te137  1  0.63589374  0.26698922  0.77853320  1
  Te  Te138  1  0.59202598  0.57007266  0.09684512  1
  Te  Te139  1  0.60990230  0.57635997  0.42212435  1
  Te  Te140  1  0.57259063  0.57545193  0.73144509  1
  Te  Te141  1  0.61741449  0.89081576  0.10865802  1
  Te  Te142  1  0.59071377  0.90620510  0.43297971  1
  Te  Te143  1  0.57235635  0.89818870  0.71630183  1
  Te  Te144  1  0.88937780  0.26982383  0.08791505  1
  Te  Te145  1  0.90252085  0.25929314  0.42379237  1
  Te  Te146  1  0.90573084  0.24645492  0.74571284  1
  Te  Te147  1  0.86522483  0.59108275  0.08371752  1
  Te  Te148  1  0.88617330  0.56336695  0.41438494  1
  Te  Te149  1  0.92489772  0.57321704  0.75259416  1
  Te  Te150  1  0.92724351  0.91665136  0.08331488  1
  Te  Te151  1  0.90790367  0.89203872  0.40705682  1
  Te  Te152  1  0.93778831  0.93298801  0.70876382  1
  Te  Te153  1  0.24484276  0.07571588  0.25088804  1
  Te  Te154  1  0.25165606  0.07871747  0.57519264  1
  Te  Te155  1  0.24427250  0.08974907  0.92655566  1
  Te  Te156  1  0.25247494  0.38104389  0.24174551  1
  Te  Te157  1  0.27014176  0.44232237  0.56487696  1
  Te  Te158  1  0.25643077  0.42630685  0.91403603  1
  Te  Te159  1  0.25871525  0.73494811  0.27732421  1
  Te  Te160  1  0.23305632  0.73117311  0.61786058  1
  Te  Te161  1  0.25435253  0.75526461  0.90469027  1
  Te  Te162  1  0.56971498  0.08459893  0.25013241  1
  Te  Te163  1  0.58778520  0.08956175  0.59037636  1
  Te  Te164  1  0.59587565  0.09134782  0.91056340  1
  Te  Te165  1  0.58867234  0.42398315  0.25355732  1
  Te  Te166  1  0.61962291  0.40522160  0.59875773  1
  Te  Te167  1  0.61000354  0.41938497  0.91557534  1
  Te  Te168  1  0.61453391  0.72651821  0.27310648  1
  Te  Te169  1  0.59698012  0.76076229  0.56884272  1
  Te  Te170  1  0.61336955  0.75160701  0.89630993  1
  Te  Te171  1  0.92310995  0.08624277  0.26434741  1
  Te  Te172  1  0.90831733  0.06729515  0.61229130  1
  Te  Te173  1  0.87245985  0.05523653  0.90613257  1
  Te  Te174  1  0.88121651  0.44043791  0.25644772  1
  Te  Te175  1  0.89518386  0.43105967  0.56373195  1
  Te  Te176  1  0.92300167  0.39811245  0.94460194  1
  Te  Te177  1  0.89098117  0.72915022  0.24889079  1
  Te  Te178  1  0.89011313  0.74654653  0.59689750  1
  Te  Te179  1  0.92507383  0.74327582  0.92250636  1
