# generated using pymatgen
data_In2Te3
_symmetry_space_group_name_H-M   'P 1'
_cell_length_a   18.97112064
_cell_length_b   18.98213994
_cell_length_c   18.99638353
_cell_angle_alpha   90.05119759
_cell_angle_beta   89.90705022
_cell_angle_gamma   90.03122613
_symmetry_Int_Tables_number   1
_chemical_formula_structural   In2Te3
_chemical_formula_sum   'In72 Te108'
_cell_volume   6840.82178972
_cell_formula_units_Z   36
loop_
 _symmetry_equiv_pos_site_id
 _symmetry_equiv_pos_as_xyz
  1  'x, y, z'
loop_
 _atom_site_type_symbol
 _atom_site_label
 _atom_site_symmetry_multiplicity
 _atom_site_fract_x
 _atom_site_fract_y
 _atom_site_fract_z
 _atom_site_occupancy
  In  In0  1  -0.00342478  0.47643987  0.18427367  1
  In  In1  1  0.51044631  0.68168581  0.83831953  1
  In  In2  1  0.52040588  0.31537780  0.82150613  1
  In  In3  1  0.35054143  0.30190601  0.34987790  1
  In  In4  1  0.70854868  0.69225427  0.34913271  1
  In  In5  1  0.66648911  0.49247747  0.18035106  1
  In  In6  1  0.65855813  0.14521040  0.47778687  1
  In  In7  1  0.83795250  0.49939942  -0.00635170  1
  In  In8  1  0.35839207  0.48831502  0.19994275  1
  In  In9  1  0.80760181  0.69787508  0.15124134  1
  In  In10  1  0.33743335  0.83561481  0.16193691  1
  In  In11  1  0.00455984  0.50300219  0.48610630  1
  In  In12  1  0.51662576  0.84991353  0.37196868  1
  In  In13  1  0.67937033  0.32316229  0.37953361  1
  In  In14  1  0.83609628  0.03821314  0.81413792  1
  In  In15  1  0.16700101  -0.01250552  0.17661060  1
  In  In16  1  -0.00183702  0.66811550  0.69836464  1
  In  In17  1  0.82079854  0.01283890  0.46966532  1
  In  In18  1  0.19604429  0.49618120  0.66777788  1
  In  In19  1  0.00631087  0.67426257  0.01125392  1
  In  In20  1  0.81167789  0.16441413  0.33418181  1
  In  In21  1  0.36525391  0.13674393  0.48383325  1
  In  In22  1  0.31419095  0.68144410  0.01011425  1
  In  In23  1  0.55083208  0.71048516  0.18610795  1
  In  In24  1  0.14717111  0.16615223  0.66129425  1
  In  In25  1  0.17011162  0.85934281  0.34613599  1
  In  In26  1  -0.06081088  -0.01456606  0.31975563  1
  In  In27  1  0.83917711  0.66420948  0.84483434  1
  In  In28  1  0.33282160  0.65561612  0.31844781  1
  In  In29  1  0.49143814  -0.01736311  0.82306780  1
  In  In30  1  0.31578440  0.31402347  0.02392922  1
  In  In31  1  0.34160914  0.67727257  0.65455256  1
  In  In32  1  0.65856561  0.84811116  0.84213887  1
  In  In33  1  0.17874887  0.15285564  -0.01334662  1
  In  In34  1  -0.01336590  0.18458435  0.47294286  1
  In  In35  1  0.81847417  0.16402646  0.01898098  1
  In  In36  1  0.01480513  0.19764982  0.16556399  1
  In  In37  1  0.17003436  -0.00169178  0.83538027  1
  In  In38  1  0.53699018  0.46886326  0.62387751  1
  In  In39  1  -0.03116469  -0.02143633  0.03726017  1
  In  In40  1  0.16206231  0.14463048  0.32434539  1
  In  In41  1  0.51776418  -0.00455412  0.17658994  1
  In  In42  1  -0.03484483  0.66775062  0.32588088  1
  In  In43  1  0.83664227  0.33883686  0.84477209  1
  In  In44  1  0.34599460  0.49601625  0.81435721  1
  In  In45  1  0.50647524  0.50869571  0.01452500  1
  In  In46  1  0.67595814  0.51118400  0.83799729  1
  In  In47  1  0.16988291  0.00871283  0.49310685  1
  In  In48  1  -0.00580440  0.34237540  0.67182740  1
  In  In49  1  0.17869263  0.49437266  0.33973919  1
  In  In50  1  0.65931594  0.66697787  0.65634870  1
  In  In51  1  0.82928349  0.83473060  0.63914238  1
  In  In52  1  0.34093769  0.30626923  0.63412073  1
  In  In53  1  0.67255464  0.17069299  0.80567210  1
  In  In54  1  0.83113039  0.34518074  0.17226296  1
  In  In55  1  0.17789461  0.66365244  0.49648048  1
  In  In56  1  0.51480433  0.48015157  0.37513871  1
  In  In57  1  0.13150602  0.49899320  0.00707408  1
  In  In58  1  0.81598433  0.50973816  0.64390593  1
  In  In59  1  -0.00834174  0.82786826  0.84365551  1
  In  In60  1  0.67431793  0.00616582  -0.00542005  1
  In  In61  1  0.33818071  0.83680048  0.84033192  1
  In  In62  1  0.00685803  0.18472216  0.83523173  1
  In  In63  1  0.17777646  0.34656694  0.84105010  1
  In  In64  1  0.49502862  0.14670713  0.01712780  1
  In  In65  1  0.37869113  -0.00718588  0.64820169  1
  In  In66  1  0.49746074  0.67451649  0.50524103  1
  In  In67  1  -0.01504435  0.84229982  0.49786478  1
  In  In68  1  -0.03406307  -0.01172937  0.60920555  1
  In  In69  1  0.50810449  0.27826445  0.18421204  1
  In  In70  1  0.34450651  0.14372629  0.83610055  1
  In  In71  1  0.15167941  0.66206548  0.14286846  1
  Te  Te72  1  0.07820067  0.08041976  0.08375033  1
  Te  Te73  1  0.05313987  0.06124953  0.41227015  1
  Te  Te74  1  0.06632544  0.07296629  0.74703368  1
  Te  Te75  1  0.09434753  0.40070403  0.10530707  1
  Te  Te76  1  0.08782425  0.40720513  0.41442166  1
  Te  Te77  1  0.08756812  0.42980991  0.75405408  1
  Te  Te78  1  0.08976861  0.77699972  0.07772871  1
  Te  Te79  1  0.08258988  0.75276758  0.41427530  1
  Te  Te80  1  0.08840575  0.77023814  0.75037664  1
  Te  Te81  1  0.41103407  0.06561373  0.10252812  1
  Te  Te82  1  0.46204217  0.09557634  0.37160547  1
  Te  Te83  1  0.44249242  0.10207144  0.73106304  1
  Te  Te84  1  0.42458264  0.40453882  0.08920903  1
  Te  Te85  1  0.40991695  0.40311088  0.44014779  1
  Te  Te86  1  0.42364611  0.39768259  0.73134169  1
  Te  Te87  1  0.42880082  0.73699071  0.09261031  1
  Te  Te88  1  0.40512487  0.75114817  0.41152722  1
  Te  Te89  1  0.43066690  0.76433995  0.74273494  1
  Te  Te90  1  0.72402926  0.09156788  0.10333409  1
  Te  Te91  1  0.71490046  0.04584849  0.36528166  1
  Te  Te92  1  0.73535767  0.07223111  0.71461613  1
  Te  Te93  1  0.73954590  0.41459495  0.07206949  1
  Te  Te94  1  0.71881847  0.45697074  0.42580402  1
  Te  Te95  1  0.75004446  0.41811315  0.74650536  1
  Te  Te96  1  0.72909506  0.81097984  0.09609609  1
  Te  Te97  1  0.73908757  0.79160879  0.45634955  1
  Te  Te98  1  0.75746450  0.74520749  0.74610842  1
  Te  Te99  1  0.07954611  0.25779653  0.28209993  1
  Te  Te100  1  0.07649186  0.26180520  0.57118944  1
  Te  Te101  1  0.09001907  0.26428224  0.93289870  1
  Te  Te102  1  0.08686337  0.58927116  0.26135712  1
  Te  Te103  1  0.09003063  0.58430344  0.59412551  1
  Te  Te104  1  0.08850189  0.59941132  0.91452074  1
  Te  Te105  1  0.06132397  0.91459693  0.25613572  1
  Te  Te106  1  0.09396226  0.91191007  0.58338081  1
  Te  Te107  1  0.06602030  0.93242066  0.92414188  1
  Te  Te108  1  0.37850085  0.22586200  0.22503010  1
  Te  Te109  1  0.44464277  0.23013534  0.56528608  1
  Te  Te110  1  0.40860762  0.25865578  0.91385285  1
  Te  Te111  1  0.44963083  0.60344784  0.23879880  1
  Te  Te112  1  0.42501868  0.56950844  0.58707814  1
  Te  Te113  1  0.41593649  0.58945635  0.91879414  1
  Te  Te114  1  0.42593770  0.90567297  0.26136469  1
  Te  Te115  1  0.44514246  0.87975112  0.58038884  1
  Te  Te116  1  0.43649384  0.89944539  0.92859112  1
  Te  Te117  1  0.73093769  0.26245151  0.24953426  1
  Te  Te118  1  0.70557815  0.25566426  0.56496396  1
  Te  Te119  1  0.74055772  0.24816896  0.91798211  1
  Te  Te120  1  0.76148383  0.59043985  0.24760597  1
  Te  Te121  1  0.71969512  0.57836087  0.55310899  1
  Te  Te122  1  0.73919969  0.60247177  0.94003702  1
  Te  Te123  1  0.81950993  0.92034768  0.25410622  1
  Te  Te124  1  0.73881623  0.92371740  0.56063687  1
  Te  Te125  1  0.77057355  0.93366329  0.90139846  1
  Te  Te126  1  0.23961069  0.21872065  0.10454698  1
  Te  Te127  1  0.24906393  0.21749231  0.42701610  1
  Te  Te128  1  0.24311892  0.23633058  0.76129793  1
  Te  Te129  1  0.26341056  0.56612070  0.10264252  1
  Te  Te130  1  0.27576908  0.56886026  0.42914203  1
  Te  Te131  1  0.25623368  0.60261381  0.75797959  1
  Te  Te132  1  0.23263053  0.89777734  0.07956433  1
  Te  Te133  1  0.27512637  0.93798879  0.41647096  1
  Te  Te134  1  0.27150465  0.93274329  0.74193003  1
  Te  Te135  1  0.59036118  0.24390572  0.06954619  1
  Te  Te136  1  0.56328712  0.22362014  0.38487848  1
  Te  Te137  1  0.60749951  0.26634904  0.71329264  1
  Te  Te138  1  0.60023349  0.59827392  0.09304778  1
  Te  Te139  1  0.58384458  0.61211736  0.39710991  1
  Te  Te140  1  0.57018924  0.57299216  0.74713382  1
  Te  Te141  1  0.59904084  0.91011117  0.08252132  1
  Te  Te142  1  0.51510445  0.96764438  0.47454233  1
  Te  Te143  1  0.59782264  0.92864032  0.73706696  1
  Te  Te144  1  0.91614553  0.26699794  0.07386893  1
  Te  Te145  1  0.87999682  0.26733471  0.41519610  1
  Te  Te146  1  0.90189516  0.24427528  0.74308380  1
  Te  Te147  1  0.92122530  0.57784796  0.09366221  1
  Te  Te148  1  0.89999903  0.58892194  0.42853081  1
  Te  Te149  1  0.90702456  0.56255141  0.75733370  1
  Te  Te150  1  0.84694924  0.91791603  0.10517057  1
  Te  Te151  1  0.86690083  0.85782418  0.40132341  1
  Te  Te152  1  0.91380459  0.91894841  0.73596237  1
  Te  Te153  1  0.25968900  0.04390473  0.27769567  1
  Te  Te154  1  0.25648307  0.08318910  0.59653772  1
  Te  Te155  1  0.27625799  0.05038735  0.93247605  1
  Te  Te156  1  0.25920073  0.39444786  0.25996125  1
  Te  Te157  1  0.24399696  0.39596364  0.57411858  1
  Te  Te158  1  0.26532103  0.43367660  0.92904340  1
  Te  Te159  1  0.23689096  0.75149385  0.25019755  1
  Te  Te160  1  0.25595167  0.76102006  0.57138011  1
  Te  Te161  1  0.23803528  0.75928538  0.91533607  1
  Te  Te162  1  0.57549174  0.09697184  0.27130424  1
  Te  Te163  1  0.60101439  0.04822134  0.57208734  1
  Te  Te164  1  0.57961852  0.09015564  0.90175002  1
  Te  Te165  1  0.56211962  0.40850347  0.25129034  1
  Te  Te166  1  0.63506396  0.39087456  0.53453615  1
  Te  Te167  1  0.58169433  0.42053654  0.91510089  1
  Te  Te168  1  0.62885640  0.80333959  0.27789019  1
  Te  Te169  1  0.57535566  0.76877806  0.58935857  1
  Te  Te170  1  0.59810294  0.75073037  0.93149987  1
  Te  Te171  1  0.91152349  0.10944215  0.23318583  1
  Te  Te172  1  0.89025528  0.10914346  0.56682606  1
  Te  Te173  1  0.92610700  0.09305476  0.92785760  1
  Te  Te174  1  0.90089834  0.41892694  0.27758521  1
  Te  Te175  1  0.90637716  0.41254994  0.57143589  1
  Te  Te176  1  0.93368975  0.41955891  0.91705370  1
  Te  Te177  1  0.92346476  0.75762271  0.21988840  1
  Te  Te178  1  0.92240697  0.73001447  0.58268585  1
  Te  Te179  1  0.89951552  0.76070727  0.94338310  1
