# generated using pymatgen
data_In2Te3
_symmetry_space_group_name_H-M   'P 1'
_cell_length_a   19.03401430
_cell_length_b   19.00649682
_cell_length_c   19.03994300
_cell_angle_alpha   90.13104252
_cell_angle_beta   89.83883068
_cell_angle_gamma   89.86734463
_symmetry_Int_Tables_number   1
_chemical_formula_structural   In2Te3
_chemical_formula_sum   'In72 Te108'
_cell_volume   6888.01505649
_cell_formula_units_Z   36
loop_
 _symmetry_equiv_pos_site_id
 _symmetry_equiv_pos_as_xyz
  1  'x, y, z'
loop_
 _atom_site_type_symbol
 _atom_site_label
 _atom_site_symmetry_multiplicity
 _atom_site_fract_x
 _atom_site_fract_y
 _atom_site_fract_z
 _atom_site_occupancy
  In  In0  1  0.51242010  0.68436787  0.17987745  1
  In  In1  1  0.63855485  0.33776486  -0.00191111  1
  In  In2  1  0.38150226  0.30818204  0.70186416  1
  In  In3  1  0.15808508  0.67062552  0.48765678  1
  In  In4  1  -0.01300357  0.66928269  -0.00841594  1
  In  In5  1  0.68070170  0.02966317  0.34670966  1
  In  In6  1  0.32715766  0.81998923  0.17552985  1
  In  In7  1  -0.02799728  0.50972560  0.81827922  1
  In  In8  1  0.00625570  0.16596601  0.49133207  1
  In  In9  1  0.67187055  0.01468822  0.66970507  1
  In  In10  1  0.14178474  0.16185389  0.31189442  1
  In  In11  1  0.80949810  0.48233552  -0.01041909  1
  In  In12  1  0.18062249  -0.02116051  0.16635022  1
  In  In13  1  0.32152298  0.32518292  0.00698932  1
  In  In14  1  -0.00795007  0.84435845  0.85414962  1
  In  In15  1  0.85818486  0.85497270  0.67011558  1
  In  In16  1  0.67478126  0.65104550  -0.00582503  1
  In  In17  1  0.82490268  0.64982389  0.18832638  1
  In  In18  1  -0.04184092  0.34816231  0.64125849  1
  In  In19  1  0.15438285  0.81839508  0.32257092  1
  In  In20  1  0.68162567  0.69117799  0.65986346  1
  In  In21  1  0.31445146  0.16303805  0.46208578  1
  In  In22  1  0.50145188  0.46826549  0.67931209  1
  In  In23  1  0.68120787  0.16483007  0.52340376  1
  In  In24  1  0.53201768  0.83707068  0.32930151  1
  In  In25  1  0.19385388  -0.01670829  0.84743170  1
  In  In26  1  -0.01291335  0.01962031  0.31567534  1
  In  In27  1  0.51872531  0.00419384  0.83545337  1
  In  In28  1  0.18143135  0.78260906  -0.00777322  1
  In  In29  1  -0.03421958  0.02451898  -0.00841555  1
  In  In30  1  0.69805203  0.85494264  0.85353524  1
  In  In31  1  0.34219474  0.16783386  0.15340748  1
  In  In32  1  0.18863846  0.82072168  0.71410374  1
  In  In33  1  0.50907854  0.14070602  0.00693695  1
  In  In34  1  0.67241156  0.83825353  0.15454785  1
  In  In35  1  0.49774573  0.16058855  0.30556375  1
  In  In36  1  0.67905012  0.52305073  0.49153132  1
  In  In37  1  0.02454436  -0.00561397  0.68385247  1
  In  In38  1  0.84538578  0.82896892  0.31593475  1
  In  In39  1  0.83385750  0.15101528  0.66968131  1
  In  In40  1  0.12584140  0.36268696  0.50293560  1
  In  In41  1  0.49800335  0.84505652  -0.00484824  1
  In  In42  1  0.31611067  0.50936451  0.50836211  1
  In  In43  1  0.28720798  0.36194376  0.31022681  1
  In  In44  1  0.34765227  0.63660397  0.68275231  1
  In  In45  1  0.49765382  0.32754518  0.49258321  1
  In  In46  1  -0.00338035  0.66688205  0.66004801  1
  In  In47  1  0.69059751  0.48276437  0.17676565  1
  In  In48  1  -0.03665525  0.17851816  0.14078302  1
  In  In49  1  0.68827974  0.15225388  0.13839849  1
  In  In50  1  0.18201928  0.50595632  0.68767898  1
  In  In51  1  0.46468484  0.51308579  0.01715325  1
  In  In52  1  -0.01497458  0.49176556  0.18607771  1
  In  In53  1  0.49146851  0.64945742  0.83984496  1
  In  In54  1  0.34949459  -0.03187741  0.33513849  1
  In  In55  1  0.67419996  0.48391139  0.81827630  1
  In  In56  1  -0.05517190  0.37871169  0.39577949  1
  In  In57  1  0.34430731  0.68872798  0.30639617  1
  In  In58  1  0.33851197  0.81999942  0.50852520  1
  In  In59  1  0.15943891  0.15413091  -0.00043070  1
  In  In60  1  0.20575697  0.18334467  0.66162048  1
  In  In61  1  0.50355703  0.83583347  0.64009255  1
  In  In62  1  0.15793928  0.35571688  0.85457522  1
  In  In63  1  0.00653118  0.85689873  0.49634132  1
  In  In64  1  0.80340191  0.32244821  0.83720288  1
  In  In65  1  0.52118640  0.48520143  0.34654015  1
  In  In66  1  0.36856371  0.15356947  0.84418976  1
  In  In67  1  0.69717515  0.83413108  0.48256113  1
  In  In68  1  0.68420086  0.32055649  0.32175623  1
  In  In69  1  0.14758534  0.36807862  0.18805247  1
  In  In70  1  0.14359783  0.53178751  0.03447790  1
  In  In71  1  -0.00576088  0.14812589  0.84619137  1
  Te  Te72  1  0.07896554  0.07379688  0.09937904  1
  Te  Te73  1  0.09217717  0.06487249  0.41660148  1
  Te  Te74  1  0.11338385  0.09015384  0.76197820  1
  Te  Te75  1  0.05697905  0.41380893  0.07606791  1
  Te  Te76  1  0.10617226  0.45710734  0.38889101  1
  Te  Te77  1  0.07318405  0.41302660  0.74159959  1
  Te  Te78  1  0.06821029  0.75504846  0.07849325  1
  Te  Te79  1  0.05368957  0.74310330  0.40647343  1
  Te  Te80  1  0.06943268  0.74547158  0.76751588  1
  Te  Te81  1  0.41518823  0.06176038  0.08733335  1
  Te  Te82  1  0.42699563  0.07486571  0.40874123  1
  Te  Te83  1  0.45291659  0.09659230  0.73973144  1
  Te  Te84  1  0.41067089  0.40243068  0.09368210  1
  Te  Te85  1  0.39567106  0.41229087  0.41325061  1
  Te  Te86  1  0.39832711  0.43371177  0.78070604  1
  Te  Te87  1  0.41994168  0.74495429  0.07899876  1
  Te  Te88  1  0.43272602  0.75388498  0.40937483  1
  Te  Te89  1  0.42991666  0.74722031  0.74234420  1
  Te  Te90  1  0.76230197  0.03725014  0.07608841  1
  Te  Te91  1  0.77660025  0.10327881  0.43050561  1
  Te  Te92  1  0.75758444  0.07686488  0.77001563  1
  Te  Te93  1  0.75688480  0.37775844  0.08483602  1
  Te  Te94  1  0.74458764  0.40958758  0.42155990  1
  Te  Te95  1  0.74685309  0.39723548  0.72336857  1
  Te  Te96  1  0.76037460  0.73866707  0.08075123  1
  Te  Te97  1  0.78025797  0.73840122  0.41086808  1
  Te  Te98  1  0.77336995  0.76465927  0.75660032  1
  Te  Te99  1  0.05442515  0.25818317  0.24021949  1
  Te  Te100  1  0.08237165  0.24752097  0.59909718  1
  Te  Te101  1  0.07254375  0.25188060  0.92705731  1
  Te  Te102  1  0.06657920  0.56644863  0.28303516  1
  Te  Te103  1  0.09290548  0.57599015  0.58594415  1
  Te  Te104  1  0.07226375  0.57905067  0.90546931  1
  Te  Te105  1  0.06806932  0.91213556  0.24132176  1
  Te  Te106  1  0.10451975  0.89396259  0.60473071  1
  Te  Te107  1  0.08130407  0.93493674  0.93485117  1
  Te  Te108  1  0.39373354  0.26073632  0.26006606  1
  Te  Te109  1  0.39647012  0.24443528  0.56517945  1
  Te  Te110  1  0.43371429  0.25427496  0.93339986  1
  Te  Te111  1  0.43632423  0.57918809  0.25556552  1
  Te  Te112  1  0.43282034  0.57045122  0.57786306  1
  Te  Te113  1  0.38568603  0.60811666  0.93526473  1
  Te  Te114  1  0.43992813  0.90665606  0.23128125  1
  Te  Te115  1  0.41400988  0.92741979  0.57119116  1
  Te  Te116  1  0.41870567  0.91580127  0.89600708  1
  Te  Te117  1  0.76448322  0.21891212  0.24725748  1
  Te  Te118  1  0.75077784  0.25937947  0.61272346  1
  Te  Te119  1  0.68686930  0.24802980  0.89053243  1
  Te  Te120  1  0.78416102  0.53784280  0.27729588  1
  Te  Te121  1  0.76588289  0.59294013  0.58995175  1
  Te  Te122  1  0.76226410  0.58518954  0.88956161  1
  Te  Te123  1  0.74594659  0.92420716  0.25467165  1
  Te  Te124  1  0.76222783  0.92963569  0.58164340  1
  Te  Te125  1  0.76341734  0.92797188  0.96396477  1
  Te  Te126  1  0.22244781  0.24991529  0.10562189  1
  Te  Te127  1  0.20797953  0.26637020  0.40855383  1
  Te  Te128  1  0.25559044  0.25834274  0.78617358  1
  Te  Te129  1  0.25190130  0.58923716  0.11139397  1
  Te  Te130  1  0.26101273  0.60036895  0.40230393  1
  Te  Te131  1  0.24281674  0.60166790  0.78328231  1
  Te  Te132  1  0.25670475  0.89726451  0.06613756  1
  Te  Te133  1  0.24322393  0.89693880  0.41519173  1
  Te  Te134  1  0.28460192  0.92425555  0.74932174  1
  Te  Te135  1  0.57412822  0.24368637  0.09785287  1
  Te  Te136  1  0.58282999  0.23438168  0.40857632  1
  Te  Te137  1  0.52333004  0.32933944  0.73755831  1
  Te  Te138  1  0.59669663  0.57632183  0.09992173  1
  Te  Te139  1  0.59331815  0.59855791  0.39891800  1
  Te  Te140  1  0.59186404  0.59074603  0.73892307  1
  Te  Te141  1  0.60547952  0.92541301  0.05566248  1
  Te  Te142  1  0.59453091  0.93340263  0.42633953  1
  Te  Te143  1  0.59945768  0.89586008  0.74423256  1
  Te  Te144  1  0.87714276  0.24311646  0.04333097  1
  Te  Te145  1  0.90130019  0.23768169  0.42130475  1
  Te  Te146  1  0.92500281  0.24892937  0.75529002  1
  Te  Te147  1  0.90120962  0.56738178  0.07521979  1
  Te  Te148  1  0.96918958  0.53245062  0.40296642  1
  Te  Te149  1  0.89376988  0.57516290  0.71378952  1
  Te  Te150  1  0.88344586  0.93731723  0.07610447  1
  Te  Te151  1  0.90923729  0.93213837  0.41118088  1
  Te  Te152  1  0.91380051  0.94840148  0.77586868  1
  Te  Te153  1  0.25834916  0.07198924  0.25829087  1
  Te  Te154  1  0.25144476  0.08263604  0.56774118  1
  Te  Te155  1  0.27254309  0.07884919  0.93625388  1
  Te  Te156  1  0.25215038  0.47330738  0.21565189  1
  Te  Te157  1  0.24352704  0.40577183  0.59008023  1
  Te  Te158  1  0.23840344  0.43760817  0.94990692  1
  Te  Te159  1  0.21867914  0.72328056  0.22329406  1
  Te  Te160  1  0.25314454  0.72910175  0.59811107  1
  Te  Te161  1  0.26315872  0.72189699  0.89059204  1
  Te  Te162  1  0.59165493  0.07128123  0.23108196  1
  Te  Te163  1  0.57454452  0.10036598  0.60093734  1
  Te  Te164  1  0.60964332  0.09618936  0.90725414  1
  Te  Te165  1  0.58210382  0.39736748  0.24008789  1
  Te  Te166  1  0.58915454  0.41958664  0.56415001  1
  Te  Te167  1  0.57177323  0.45085998  0.92385688  1
  Te  Te168  1  0.62497478  0.73742785  0.26316048  1
  Te  Te169  1  0.59168844  0.74880123  0.55395163  1
  Te  Te170  1  0.59361082  0.74722253  0.91018412  1
  Te  Te171  1  0.88826702  0.10196160  0.24260232  1
  Te  Te172  1  0.93663198  0.07192010  0.58930707  1
  Te  Te173  1  0.87451979  0.13392157  0.93917068  1
  Te  Te174  1  0.88860001  0.40592920  0.25787751  1
  Te  Te175  1  0.92053076  0.43988190  0.53406945  1
  Te  Te176  1  0.91073951  0.40510399  0.90725788  1
  Te  Te177  1  0.92784575  0.74452346  0.22759632  1
  Te  Te178  1  0.91679947  0.75822720  0.56940704  1
  Te  Te179  1  0.89535147  0.75374734  0.91534851  1
