# generated using pymatgen
data_In2Te3
_symmetry_space_group_name_H-M   'P 1'
_cell_length_a   18.90684055
_cell_length_b   18.91445581
_cell_length_c   18.92634923
_cell_angle_alpha   90.14817168
_cell_angle_beta   90.02409777
_cell_angle_gamma   89.93517562
_symmetry_Int_Tables_number   1
_chemical_formula_structural   In2Te3
_chemical_formula_sum   'In72 Te108'
_cell_volume   6768.27340436
_cell_formula_units_Z   36
loop_
 _symmetry_equiv_pos_site_id
 _symmetry_equiv_pos_as_xyz
  1  'x, y, z'
loop_
 _atom_site_type_symbol
 _atom_site_label
 _atom_site_symmetry_multiplicity
 _atom_site_fract_x
 _atom_site_fract_y
 _atom_site_fract_z
 _atom_site_occupancy
  In  In0  1  0.86458536  0.54510129  0.69850133  1
  In  In1  1  0.79806122  0.66315695  0.49648771  1
  In  In2  1  0.66877635  0.31763565  0.67146231  1
  In  In3  1  0.15432568  -0.00194322  0.49058870  1
  In  In4  1  -0.00189857  -0.00892516  -0.01102076  1
  In  In5  1  0.49259979  0.65486558  0.16535249  1
  In  In6  1  0.15744899  0.67462162  0.83400382  1
  In  In7  1  0.03866082  0.31890066  0.31021985  1
  In  In8  1  0.02929114  0.34812190  0.02691188  1
  In  In9  1  0.64186071  0.66948094  -0.01319601  1
  In  In10  1  0.16534233  0.66262818  0.51119244  1
  In  In11  1  0.15289217  0.50311525  0.33421132  1
  In  In12  1  0.65243013  0.65433095  0.31953707  1
  In  In13  1  0.34549653  0.71186821  0.69449571  1
  In  In14  1  -0.01375737  0.16610714  0.47662731  1
  In  In15  1  0.49095205  0.32137613  0.16035017  1
  In  In16  1  0.83427847  0.84095005  -0.01576653  1
  In  In17  1  0.84921576  0.47803631  0.33409449  1
  In  In18  1  0.66548750  -0.00762135  0.31170912  1
  In  In19  1  0.66263055  0.83361347  0.19340393  1
  In  In20  1  0.34090215  0.37119075  0.64693901  1
  In  In21  1  0.48187149  0.48343640  -0.01150938  1
  In  In22  1  0.48540631  0.12794001  0.65798465  1
  In  In23  1  -0.00714773  0.84529503  0.51127035  1
  In  In24  1  0.65641596  0.49787659  0.81396484  1
  In  In25  1  0.86483182  0.32844784  0.18141758  1
  In  In26  1  0.83220675  0.34721132  0.49985790  1
  In  In27  1  0.83993428  -0.01473495  0.82545287  1
  In  In28  1  0.15701154  0.17821348  0.01967127  1
  In  In29  1  0.35702803  0.80108699  0.47952898  1
  In  In30  1  0.48980274  -0.00706756  0.16917493  1
  In  In31  1  0.33044572  -0.03119594  0.68266806  1
  In  In32  1  0.31953682  0.51801646  0.86102895  1
  In  In33  1  0.83276813  0.51620864  0.00375033  1
  In  In34  1  0.84229244  0.18346432  0.64141160  1
  In  In35  1  0.84130739  0.32059433  0.86513811  1
  In  In36  1  0.47885426  0.00614999  0.49311481  1
  In  In37  1  0.17919734  0.84848971  0.01706410  1
  In  In38  1  0.16624964  0.32354556  0.82512260  1
  In  In39  1  0.68666274  0.14360320  0.85122746  1
  In  In40  1  0.15613940  0.86357048  0.30509980  1
  In  In41  1  0.65173365  -0.02807318  0.68574914  1
  In  In42  1  0.64789635  0.82748203  0.50252484  1
  In  In43  1  0.85327151  0.81658003  0.68274668  1
  In  In44  1  0.32170056  0.51286214  0.51375682  1
  In  In45  1  0.86543390  0.14079120  0.28805417  1
  In  In46  1  0.31451074  0.15221722  0.81697789  1
  In  In47  1  0.52451119  0.32543453  0.84897845  1
  In  In48  1  0.67717863  0.32018939  0.33521884  1
  In  In49  1  0.83293411  0.00330047  0.49551466  1
  In  In50  1  0.03340735  0.68372728  0.00048428  1
  In  In51  1  0.30907441  0.64192925  0.02924137  1
  In  In52  1  0.50785040  0.13577483  -0.00002189  1
  In  In53  1  0.32302222  0.18313519  0.48471345  1
  In  In54  1  0.68062362  0.68607973  0.68242525  1
  In  In55  1  0.29970579  0.02294359  0.30752752  1
  In  In56  1  0.68767755  0.48392992  0.19453373  1
  In  In57  1  0.00554338  0.33976895  0.67138701  1
  In  In58  1  0.83441472  0.86917285  0.31788572  1
  In  In59  1  0.86422758  0.68503333  0.14547220  1
  In  In60  1  0.16253027  0.49492487  0.66049220  1
  In  In61  1  0.51470002  0.33548924  0.48175508  1
  In  In62  1  0.49127556  0.50954250  0.67189006  1
  In  In63  1  0.33295044  0.84077689  0.16639685  1
  In  In64  1  0.15494098  0.14333664  0.65726540  1
  In  In65  1  0.00081807  0.66884209  0.33497694  1
  In  In66  1  0.16218231  -0.00149607  0.84559199  1
  In  In67  1  0.48085941  0.53183960  0.33642409  1
  In  In68  1  0.48184924  0.85655040  -0.03260664  1
  In  In69  1  0.33922219  0.31983280  0.02010231  1
  In  In70  1  0.31511468  0.32209948  0.31750338  1
  In  In71  1  0.82787135  0.13071343  0.04014323  1
  Te  Te72  1  0.07521418  0.07269026  0.09096678  1
  Te  Te73  1  0.09393400  0.09785210  0.40195919  1
  Te  Te74  1  0.08094341  0.10012869  0.77452499  1
  Te  Te75  1  0.13444494  0.41657623  0.10564562  1
  Te  Te76  1  0.05775890  0.42080160  0.41276406  1
  Te  Te77  1  0.07602647  0.43280669  0.76891793  1
  Te  Te78  1  0.10142826  0.76066739  0.10706357  1
  Te  Te79  1  0.09043895  0.76914821  0.41914528  1
  Te  Te80  1  0.05735036  0.70966522  0.73394326  1
  Te  Te81  1  0.40168923  0.06545075  0.07466293  1
  Te  Te82  1  0.40798052  0.09620525  0.39396011  1
  Te  Te83  1  0.42357637  0.05470784  0.77478502  1
  Te  Te84  1  0.39845828  0.43438650  0.10202669  1
  Te  Te85  1  0.40317137  0.41874019  0.41959617  1
  Te  Te86  1  0.42205908  0.41745578  0.77351839  1
  Te  Te87  1  0.41938253  0.74944090  0.07030045  1
  Te  Te88  1  0.44951230  0.71163914  0.40875903  1
  Te  Te89  1  0.42514147  0.80738186  0.78425637  1
  Te  Te90  1  0.71479578  0.06900202  0.11318438  1
  Te  Te91  1  0.76245792  0.08314120  0.38975274  1
  Te  Te92  1  0.75310910  0.08721175  0.72527158  1
  Te  Te93  1  0.76820030  0.40890050  0.09209718  1
  Te  Te94  1  0.73381913  0.43344799  0.42207565  1
  Te  Te95  1  0.76156112  0.40069540  0.75904891  1
  Te  Te96  1  0.73457192  0.74279324  0.09090638  1
  Te  Te97  1  0.74835502  0.76679508  0.39328735  1
  Te  Te98  1  0.75796349  0.76331123  0.77970329  1
  Te  Te99  1  0.10306215  0.23052960  0.21413597  1
  Te  Te100  1  0.07519621  0.24504865  0.57549662  1
  Te  Te101  1  0.07188136  0.24774816  0.91421041  1
  Te  Te102  1  0.10150803  0.61044483  0.24534486  1
  Te  Te103  1  0.07030363  0.57669899  0.58100854  1
  Te  Te104  1  0.10974344  0.57138881  0.93117277  1
  Te  Te105  1  0.09211520  0.97186486  0.23091506  1
  Te  Te106  1  0.08248337  0.92644532  0.59617078  1
  Te  Te107  1  0.07730879  0.88848069  0.91047357  1
  Te  Te108  1  0.42086832  0.23844686  0.25766871  1
  Te  Te109  1  0.42702532  0.25172934  0.58604559  1
  Te  Te110  1  0.40765101  0.24443077  0.90365014  1
  Te  Te111  1  0.38673975  0.58122361  0.23606481  1
  Te  Te112  1  0.40710985  0.60801216  0.59453059  1
  Te  Te113  1  0.42530094  0.60509502  0.92288724  1
  Te  Te114  1  0.40757681  0.91940269  0.27266052  1
  Te  Te115  1  0.42089550  0.89932014  0.58149099  1
  Te  Te116  1  0.36619805  0.90170368  0.88638010  1
  Te  Te117  1  0.75488050  0.23890702  0.23399240  1
  Te  Te118  1  0.73377624  0.24396267  0.55501133  1
  Te  Te119  1  0.74859083  0.23791518  0.95076740  1
  Te  Te120  1  0.78096616  0.59376910  0.24776334  1
  Te  Te121  1  0.74588239  0.57044524  0.60593200  1
  Te  Te122  1  0.74258021  0.58797940  0.90437950  1
  Te  Te123  1  0.77084752  0.94719847  0.19948483  1
  Te  Te124  1  0.75816355  0.90333946  0.58121384  1
  Te  Te125  1  0.74023010  0.93772656  0.92349038  1
  Te  Te126  1  0.26458908  0.22935858  0.11267027  1
  Te  Te127  1  0.21939845  0.25124200  0.40691626  1
  Te  Te128  1  0.25634904  0.25821900  0.72053674  1
  Te  Te129  1  0.19263181  0.55869988  0.06848606  1
  Te  Te130  1  0.25464035  0.59673261  0.40889975  1
  Te  Te131  1  0.26291512  0.58404276  0.73577660  1
  Te  Te132  1  0.26395313  0.94669932  0.09057113  1
  Te  Te133  1  0.26177976  0.91615140  0.41893351  1
  Te  Te134  1  0.22842313  0.89648315  0.75910936  1
  Te  Te135  1  0.57341727  0.25482481  0.05852640  1
  Te  Te136  1  0.58748932  0.23114304  0.40944869  1
  Te  Te137  1  0.57613888  0.22289015  0.74823530  1
  Te  Te138  1  0.60159481  0.57124772  0.09991477  1
  Te  Te139  1  0.57163920  0.60100436  0.43285403  1
  Te  Te140  1  0.56660160  0.60594084  0.75984845  1
  Te  Te141  1  0.57206021  0.89470489  0.08855500  1
  Te  Te142  1  0.57274445  0.91945775  0.40823041  1
  Te  Te143  1  0.56508189  0.87017521  0.74508510  1
  Te  Te144  1  0.92927578  0.24251226  0.07709856  1
  Te  Te145  1  0.89836914  0.25905415  0.39396394  1
  Te  Te146  1  0.91931142  0.24668981  0.75489087  1
  Te  Te147  1  0.94754919  0.57821432  0.08101512  1
  Te  Te148  1  0.90937989  0.58521834  0.42381599  1
  Te  Te149  1  0.94316069  0.62903432  0.79171885  1
  Te  Te150  1  0.91947980  0.90776147  0.08317563  1
  Te  Te151  1  0.93750801  0.93917441  0.40445724  1
  Te  Te152  1  0.94186803  0.91235811  0.75022593  1
  Te  Te153  1  0.22427892  0.13892506  0.24646217  1
  Te  Te154  1  0.27231328  0.07756988  0.58502670  1
  Te  Te155  1  0.24783067  0.08652406  0.93434774  1
  Te  Te156  1  0.22904240  0.41390639  0.23664101  1
  Te  Te157  1  0.22471601  0.40348547  0.55478749  1
  Te  Te158  1  0.24956273  0.40186393  0.92593932  1
  Te  Te159  1  0.23785522  0.75790160  0.24364215  1
  Te  Te160  1  0.25100627  0.76298953  0.58570577  1
  Te  Te161  1  0.25316765  0.74295059  0.93029120  1
  Te  Te162  1  0.59561037  0.08767987  0.21951353  1
  Te  Te163  1  0.59460581  0.06353834  0.57656755  1
  Te  Te164  1  0.59158976  0.04995968  0.91188799  1
  Te  Te165  1  0.57105358  0.41750369  0.26458386  1
  Te  Te166  1  0.58304403  0.41643579  0.59283912  1
  Te  Te167  1  0.60733798  0.41776433  0.93601806  1
  Te  Te168  1  0.55226506  0.75524459  0.26572633  1
  Te  Te169  1  0.57317339  0.75609773  0.60644178  1
  Te  Te170  1  0.59003881  0.77832631  0.90036850  1
  Te  Te171  1  0.95869037  0.05196494  0.21404661  1
  Te  Te172  1  0.93272323  0.07478044  0.58640078  1
  Te  Te173  1  0.90683538  0.08863193  0.91593505  1
  Te  Te174  1  0.95643863  0.43333842  0.23871874  1
  Te  Te175  1  0.90931182  0.43259847  0.59950834  1
  Te  Te176  1  0.93062833  0.42293929  0.93056103  1
  Te  Te177  1  0.93223070  0.77544054  0.24768528  1
  Te  Te178  1  0.91309823  0.73164652  0.57296605  1
  Te  Te179  1  0.91254334  0.72916386  0.92164544  1
