# generated using pymatgen
data_In2Te3
_symmetry_space_group_name_H-M   'P 1'
_cell_length_a   18.98723792
_cell_length_b   19.00966838
_cell_length_c   19.02474467
_cell_angle_alpha   90.16140756
_cell_angle_beta   89.86441489
_cell_angle_gamma   89.88475689
_symmetry_Int_Tables_number   1
_chemical_formula_structural   In2Te3
_chemical_formula_sum   'In72 Te108'
_cell_volume   6866.75174290
_cell_formula_units_Z   36
loop_
 _symmetry_equiv_pos_site_id
 _symmetry_equiv_pos_as_xyz
  1  'x, y, z'
loop_
 _atom_site_type_symbol
 _atom_site_label
 _atom_site_symmetry_multiplicity
 _atom_site_fract_x
 _atom_site_fract_y
 _atom_site_fract_z
 _atom_site_occupancy
  In  In0  1  0.80977719  0.85971676  0.66091270  1
  In  In1  1  0.01413566  0.50437522  0.16500965  1
  In  In2  1  0.88123523  0.71508103  0.18429006  1
  In  In3  1  0.49658418  0.35179332  0.84233151  1
  In  In4  1  0.84886186  0.15255334  0.65346889  1
  In  In5  1  0.67633491  0.18209034  0.15859831  1
  In  In6  1  0.83510111  0.53106902  0.33623632  1
  In  In7  1  0.32752554  0.77723756  0.81184840  1
  In  In8  1  0.41468110  -0.00015760  0.82229699  1
  In  In9  1  0.59856962  -0.03136722  0.63230588  1
  In  In10  1  0.00800402  0.30677990  0.68309077  1
  In  In11  1  0.33003130  0.50208870  0.15578311  1
  In  In12  1  0.10861324  0.72216190  0.20242300  1
  In  In13  1  0.82597324  0.69341729  0.82444041  1
  In  In14  1  -0.01066628  0.10998605  0.46073785  1
  In  In15  1  0.01838677  0.84543609  0.48139556  1
  In  In16  1  0.50459793  0.15373394  0.36450535  1
  In  In17  1  0.34913524  0.14015077  0.17527292  1
  In  In18  1  0.48463293  0.66969710  0.49125543  1
  In  In19  1  0.01111148  0.85800146  0.85595425  1
  In  In20  1  0.49302527  -0.00445936  0.16959596  1
  In  In21  1  0.14858772  0.64125741  0.83285403  1
  In  In22  1  0.66463480  0.52173315  0.17807067  1
  In  In23  1  0.66477175  0.82279454  0.44445744  1
  In  In24  1  0.17925083  0.52793116  0.32662610  1
  In  In25  1  0.29956797  -0.04025219  0.30666750  1
  In  In26  1  0.83037080  0.01357806  0.83426648  1
  In  In27  1  0.61814433  0.66850500  0.67493443  1
  In  In28  1  0.49758889  0.52768579  -0.00080818  1
  In  In29  1  0.17687580  0.50576368  -0.00571599  1
  In  In30  1  0.63570050  0.35747020  0.66297874  1
  In  In31  1  0.51355700  0.34760066  0.47657328  1
  In  In32  1  0.33395021  0.31110342  0.33789508  1
  In  In33  1  0.84423857  0.32445197  0.14117759  1
  In  In34  1  0.16024479  0.30182571  0.16951323  1
  In  In35  1  0.62253976  0.86419189  0.83947165  1
  In  In36  1  0.82360245  0.50021244  0.66829540  1
  In  In37  1  0.33403947  0.15179174  0.49352885  1
  In  In38  1  0.14657862  0.51163305  0.65451581  1
  In  In39  1  0.19576050  0.06491743  -0.03709306  1
  In  In40  1  0.67431183  0.50567364  0.82687534  1
  In  In41  1  0.65803551  0.03037347  -0.00365666  1
  In  In42  1  0.66601104  0.54312458  0.50610282  1
  In  In43  1  -0.01020934  0.31417862  -0.01464935  1
  In  In44  1  0.91914630  -0.05564646  0.27407292  1
  In  In45  1  0.48411611  0.15183178  -0.00872619  1
  In  In46  1  0.15362881  0.34767673  0.84428781  1
  In  In47  1  0.84725112  0.50194709  0.02434914  1
  In  In48  1  0.48210608  0.84557356  -0.00237165  1
  In  In49  1  -0.01687588  0.52434158  0.47688963  1
  In  In50  1  0.19290258  0.79111727  0.64392132  1
  In  In51  1  0.66064595  0.13629265  0.50349816  1
  In  In52  1  0.66488879  0.69657481  0.00459501  1
  In  In53  1  0.02595607  0.15295390  0.82829930  1
  In  In54  1  -0.00516137  0.33291845  0.34221548  1
  In  In55  1  0.34477691  0.32488566  0.67694745  1
  In  In56  1  0.68838449  0.00384180  0.33835600  1
  In  In57  1  0.86380917  0.86818055  0.01985075  1
  In  In58  1  0.18729522  0.32903309  0.49701518  1
  In  In59  1  0.66628737  0.17146889  0.82560424  1
  In  In60  1  0.17955496  0.14975112  0.64694515  1
  In  In61  1  0.83688954  0.16187696  -0.01264287  1
  In  In62  1  0.08576672  -0.07287539  0.05773440  1
  In  In63  1  0.33833539  0.66935018  0.35789322  1
  In  In64  1  0.19285776  -0.01174895  0.49849460  1
  In  In65  1  0.82700240  0.33348996  0.52051337  1
  In  In66  1  0.69774812  0.35203001  0.30700073  1
  In  In67  1  -0.02221765  0.68087988  0.66946338  1
  In  In68  1  0.64812922  0.83251365  0.20150832  1
  In  In69  1  0.32607005  0.68926600  0.03303927  1
  In  In70  1  0.49557046  0.50585303  0.33799860  1
  In  In71  1  0.33087762  0.34892746  -0.00421565  1
  Te  Te72  1  0.12867489  0.06895032  0.09318089  1
  Te  Te73  1  0.09560663  0.02827455  0.39248413  1
  Te  Te74  1  0.08537610  0.06907724  0.72472173  1
  Te  Te75  1  0.08642184  0.40149182  0.07931940  1
  Te  Te76  1  0.09199342  0.42291545  0.42032131  1
  Te  Te77  1  0.06274445  0.42681770  0.75415179  1
  Te  Te78  1  0.09032496  0.77372211  0.06356095  1
  Te  Te79  1  0.07127150  0.75010534  0.38104794  1
  Te  Te80  1  0.07638016  0.75901747  0.75402577  1
  Te  Te81  1  0.39903032  0.04918076  0.06310116  1
  Te  Te82  1  0.38937096  0.06225923  0.38452268  1
  Te  Te83  1  0.38525456  0.10998580  0.72895271  1
  Te  Te84  1  0.43164100  0.41683006  0.08466717  1
  Te  Te85  1  0.39559333  0.42554997  0.41737906  1
  Te  Te86  1  0.42260933  0.42979765  0.74310154  1
  Te  Te87  1  0.42577536  0.76854839  0.11031389  1
  Te  Te88  1  0.40715047  0.78014649  0.42948100  1
  Te  Te89  1  0.43545803  0.75411006  0.71094815  1
  Te  Te90  1  0.76398607  0.07650711  0.09181793  1
  Te  Te91  1  0.77056834  0.09279261  0.41952595  1
  Te  Te92  1  0.73762564  0.07470300  0.73294901  1
  Te  Te93  1  0.73770025  0.42091945  0.09006181  1
  Te  Te94  1  0.75170585  0.43220704  0.43121367  1
  Te  Te95  1  0.75179615  0.39785316  0.75247478  1
  Te  Te96  1  0.76939710  0.76894783  0.08855252  1
  Te  Te97  1  0.76209534  0.72241786  0.39937151  1
  Te  Te98  1  0.71704902  0.77434645  0.75504957  1
  Te  Te99  1  0.07206163  0.23472929  0.26403608  1
  Te  Te100  1  0.08301984  0.24392925  0.57003510  1
  Te  Te101  1  0.10852262  0.23186243  0.93015444  1
  Te  Te102  1  0.05301737  0.59386385  0.28014353  1
  Te  Te103  1  0.06718809  0.60976827  0.56881465  1
  Te  Te104  1  0.06397890  0.56695948  0.92628862  1
  Te  Te105  1  0.14216147  0.86498928  0.24981077  1
  Te  Te106  1  0.10516170  0.90467255  0.58895768  1
  Te  Te107  1  0.12556461  0.93850668  0.90713251  1
  Te  Te108  1  0.43673347  0.23932848  0.25629738  1
  Te  Te109  1  0.41659304  0.26238387  0.55722187  1
  Te  Te110  1  0.40405140  0.24985297  0.90738263  1
  Te  Te111  1  0.41223299  0.59086869  0.24609754  1
  Te  Te112  1  0.41025114  0.63386323  0.61758504  1
  Te  Te113  1  0.38925116  0.60045640  0.93375154  1
  Te  Te114  1  0.40973072  0.89095555  0.22969227  1
  Te  Te115  1  0.49411076  0.96894269  0.52617640  1
  Te  Te116  1  0.36692692  0.89013438  0.91377667  1
  Te  Te117  1  0.78300283  0.24034248  0.25265667  1
  Te  Te118  1  0.72902759  0.24859999  0.59673021  1
  Te  Te119  1  0.73243514  0.24684807  0.93160590  1
  Te  Te120  1  0.77166158  0.61498043  0.23037756  1
  Te  Te121  1  0.74964645  0.61541623  0.60764912  1
  Te  Te122  1  0.75283363  0.59873778  0.92631142  1
  Te  Te123  1  0.76508816  0.91355453  0.24632636  1
  Te  Te124  1  0.72233221  0.92314205  0.55893175  1
  Te  Te125  1  0.74721084  0.91946280  0.92074381  1
  Te  Te126  1  0.27459663  0.24477159  0.08977282  1
  Te  Te127  1  0.23226091  0.21967339  0.40149119  1
  Te  Te128  1  0.22630016  0.25952170  0.74286304  1
  Te  Te129  1  0.22271156  0.59523692  0.10636332  1
  Te  Te130  1  0.24504389  0.58902065  0.44342897  1
  Te  Te131  1  0.24444819  0.58635787  0.73521949  1
  Te  Te132  1  0.21173790  0.86195246  0.11551424  1
  Te  Te133  1  0.27200768  0.88175454  0.43231538  1
  Te  Te134  1  0.27315824  0.88350965  0.72428856  1
  Te  Te135  1  0.57874469  0.23621299  0.06516509  1
  Te  Te136  1  0.61419178  0.25955017  0.40361589  1
  Te  Te137  1  0.56578370  0.25338484  0.74707748  1
  Te  Te138  1  0.57748375  0.61470542  0.09709212  1
  Te  Te139  1  0.59942762  0.60365481  0.38616255  1
  Te  Te140  1  0.55987163  0.57488927  0.76905315  1
  Te  Te141  1  0.59907908  0.91570600  0.07867613  1
  Te  Te142  1  0.57079461  0.93248666  0.39611959  1
  Te  Te143  1  0.51495152  0.90168370  0.74072950  1
  Te  Te144  1  0.93955395  0.21965147  0.09115767  1
  Te  Te145  1  0.91343359  0.24618623  0.43606826  1
  Te  Te146  1  0.90826097  0.23422108  0.76696894  1
  Te  Te147  1  0.93561046  0.60727061  0.08723302  1
  Te  Te148  1  0.88027000  0.62801390  0.43987115  1
  Te  Te149  1  0.90990074  0.58289799  0.76279865  1
  Te  Te150  1  0.94512107  0.94095880  0.11981590  1
  Te  Te151  1  0.89850059  0.90534765  0.41728322  1
  Te  Te152  1  0.91649767  0.91893702  0.75340516  1
  Te  Te153  1  0.23191323  0.06775580  0.22749303  1
  Te  Te154  1  0.29378930  0.05266023  0.60101126  1
  Te  Te155  1  0.28573815  0.08538865  0.84666348  1
  Te  Te156  1  0.24479933  0.40874312  0.25002012  1
  Te  Te157  1  0.25414438  0.42115769  0.59347479  1
  Te  Te158  1  0.26547057  0.43702701  0.89248150  1
  Te  Te159  1  0.24576820  0.74465936  0.26360794  1
  Te  Te160  1  0.27183907  0.68800253  0.57327843  1
  Te  Te161  1  0.23007750  0.73349576  0.91998965  1
  Te  Te162  1  0.58729056  0.08785870  0.24533866  1
  Te  Te163  1  0.54364824  0.10469696  0.58852606  1
  Te  Te164  1  0.56285134  0.06773253  0.88538166  1
  Te  Te165  1  0.57649906  0.41590081  0.24493304  1
  Te  Te166  1  0.56260005  0.45533602  0.57308194  1
  Te  Te167  1  0.59182270  0.42974830  0.92982959  1
  Te  Te168  1  0.60143102  0.74931918  0.31079345  1
  Te  Te169  1  0.58462825  0.75875823  0.56174396  1
  Te  Te170  1  0.55848269  0.74682573  0.90953238  1
  Te  Te171  1  0.96992066  0.08180223  0.31095496  1
  Te  Te172  1  0.93180997  0.05501566  0.58481743  1
  Te  Te173  1  0.93863879  0.06973261  0.92289530  1
  Te  Te174  1  0.90902487  0.42292895  0.24660793  1
  Te  Te175  1  0.92938945  0.42531648  0.58445217  1
  Te  Te176  1  0.90108367  0.41105931  0.92364327  1
  Te  Te177  1  0.94498824  0.79084157  0.29904945  1
  Te  Te178  1  0.91217637  0.78293377  0.58126376  1
  Te  Te179  1  0.91782015  0.76054922  0.92476035  1
