# generated using pymatgen
data_In2Te3
_symmetry_space_group_name_H-M   'P 1'
_cell_length_a   18.75547118
_cell_length_b   18.75699744
_cell_length_c   18.75373939
_cell_angle_alpha   90.05180028
_cell_angle_beta   90.08207373
_cell_angle_gamma   89.97371740
_symmetry_Int_Tables_number   1
_chemical_formula_structural   In2Te3
_chemical_formula_sum   'In72 Te108'
_cell_volume   6597.48644077
_cell_formula_units_Z   36
loop_
 _symmetry_equiv_pos_site_id
 _symmetry_equiv_pos_as_xyz
  1  'x, y, z'
loop_
 _atom_site_type_symbol
 _atom_site_label
 _atom_site_symmetry_multiplicity
 _atom_site_fract_x
 _atom_site_fract_y
 _atom_site_fract_z
 _atom_site_occupancy
  In  In0  1  0.01869927  0.00421151  0.66797605  1
  In  In1  1  0.65486825  0.67155452  0.68408018  1
  In  In2  1  0.64910060  0.49000524  0.52753549  1
  In  In3  1  0.48642473  0.33363853  0.81108089  1
  In  In4  1  0.01240321  0.16963391  0.83465643  1
  In  In5  1  0.32616700  0.83374344  0.83785638  1
  In  In6  1  0.84623492  0.01113151  0.16552727  1
  In  In7  1  0.48509000  0.16927137  -0.02474081  1
  In  In8  1  0.00391647  0.33637564  0.33396807  1
  In  In9  1  0.84119395  0.33692850  0.85898157  1
  In  In10  1  0.01348108  0.47945134  0.49908649  1
  In  In11  1  0.18105390  0.82943188  0.00023201  1
  In  In12  1  0.01310959  0.34733750  -0.01931791  1
  In  In13  1  0.14696425  0.16239763  -0.00066850  1
  In  In14  1  0.18016296  0.00851966  0.50182897  1
  In  In15  1  0.01531075  0.83509472  0.49501751  1
  In  In16  1  0.51121811  0.67128756  0.82093295  1
  In  In17  1  0.84813248  0.82914206  0.67731084  1
  In  In18  1  0.03577547  0.32629576  0.64897707  1
  In  In19  1  0.64122742  0.62699582  0.32912032  1
  In  In20  1  0.45407793  0.70683196  0.15414236  1
  In  In21  1  0.65026041  0.65616814  -0.02074375  1
  In  In22  1  0.82528389  0.15924005  0.66709447  1
  In  In23  1  0.18826548  0.15586900  0.33988761  1
  In  In24  1  0.35183209  0.14859291  0.48737605  1
  In  In25  1  0.64653511  0.84463089  0.15696185  1
  In  In26  1  0.84906486  0.81274393  -0.02587035  1
  In  In27  1  0.64228047  0.14434815  0.18942032  1
  In  In28  1  0.31496817  0.16969291  0.17437391  1
  In  In29  1  0.46198980  0.50816903  -0.00239905  1
  In  In30  1  0.02005372  0.66302366  0.31238004  1
  In  In31  1  0.66699107  0.30392786  0.34371222  1
  In  In32  1  0.34042884  0.51342330  0.52494867  1
  In  In33  1  0.84936582  0.65655490  0.14092115  1
  In  In34  1  0.17756708  0.65929873  0.14312571  1
  In  In35  1  0.65810704  0.01447210  0.66086665  1
  In  In36  1  0.65889124  0.51185317  0.82232821  1
  In  In37  1  0.32128485  0.67366623  0.32204985  1
  In  In38  1  0.01866130  0.63387032  0.72099107  1
  In  In39  1  0.33119690  0.32346559  0.65973880  1
  In  In40  1  0.66628978  0.50433986  0.16256378  1
  In  In41  1  0.00839313  0.15207311  0.15544582  1
  In  In42  1  0.48535148  0.84955419  0.66217758  1
  In  In43  1  0.46390112  0.85163522  0.31740097  1
  In  In44  1  0.17961581  0.34870448  0.15191192  1
  In  In45  1  0.47493762  0.34277261  0.16470907  1
  In  In46  1  0.32313211  -0.00716417  0.00794469  1
  In  In47  1  0.85044983  0.84122212  0.35649785  1
  In  In48  1  0.32855225  0.17678177  0.82493724  1
  In  In49  1  0.87038219  0.49509011  -0.00039924  1
  In  In50  1  0.31574495  0.83063650  0.49735977  1
  In  In51  1  0.31584215  0.33732638  0.33190637  1
  In  In52  1  0.66080701  0.82679067  0.83675681  1
  In  In53  1  0.81726307  0.65757388  0.50638697  1
  In  In54  1  0.85840710  -0.00095022  0.52219140  1
  In  In55  1  0.82228474  0.17911681  -0.00360923  1
  In  In56  1  0.64276601  0.14842144  0.49974182  1
  In  In57  1  0.19090661  0.50943615  0.69673125  1
  In  In58  1  0.47789828  0.50535122  0.33725251  1
  In  In59  1  0.62616714  -0.01981277  0.00183858  1
  In  In60  1  0.66675080  0.31730923  -0.01620483  1
  In  In61  1  0.83746642  0.34355597  0.19586906  1
  In  In62  1  0.32600352  0.00835815  0.68806108  1
  In  In63  1  0.64167293  0.84059088  0.48384049  1
  In  In64  1  0.85751460  0.33139967  0.50905693  1
  In  In65  1  0.01280830  0.82261623  0.83006647  1
  In  In66  1  0.04844644  0.85363586  0.18968514  1
  In  In67  1  0.17934587  0.67322498  0.50138285  1
  In  In68  1  0.65526534  0.00332842  0.34356928  1
  In  In69  1  0.64282030  0.33374930  0.67683763  1
  In  In70  1  0.01026748  0.00001659  0.00828352  1
  In  In71  1  0.86029625  0.46816513  0.33316225  1
  Te  Te72  1  0.11516835  0.05434090  0.10513936  1
  Te  Te73  1  0.08375992  0.10668084  0.43627673  1
  Te  Te74  1  0.10526541  0.08703318  0.75501409  1
  Te  Te75  1  0.10589951  0.44004721  0.05490728  1
  Te  Te76  1  0.10652562  0.41168274  0.40834809  1
  Te  Te77  1  0.08606198  0.41931186  0.75301509  1
  Te  Te78  1  0.07290727  0.75269784  0.07822352  1
  Te  Te79  1  0.10469769  0.75793809  0.39761532  1
  Te  Te80  1  0.10857033  0.74785092  0.74398533  1
  Te  Te81  1  0.41398185  0.09208695  0.08460241  1
  Te  Te82  1  0.43075974  0.07208013  0.38739783  1
  Te  Te83  1  0.42908845  0.09187619  0.75676131  1
  Te  Te84  1  0.37907869  0.42143114  0.08530964  1
  Te  Te85  1  0.41023580  0.40883246  0.43100640  1
  Te  Te86  1  0.39343313  0.42836095  0.74754853  1
  Te  Te87  1  0.42438805  0.79337673  0.03897952  1
  Te  Te88  1  0.41650988  0.74590050  0.41718985  1
  Te  Te89  1  0.40543102  0.74465472  0.73588397  1
  Te  Te90  1  0.73745117  0.07930792  0.07915648  1
  Te  Te91  1  0.75869575  0.07585830  0.42993628  1
  Te  Te92  1  0.76393462  0.05765147  0.75426428  1
  Te  Te93  1  0.75633186  0.40998551  0.07372705  1
  Te  Te94  1  0.74092614  0.42268140  0.41823698  1
  Te  Te95  1  0.74995609  0.40943253  0.75554205  1
  Te  Te96  1  0.74035336  0.74667327  0.07881548  1
  Te  Te97  1  0.73772683  0.74619870  0.40729648  1
  Te  Te98  1  0.76478991  0.73869216  0.76818938  1
  Te  Te99  1  0.10001462  0.24547631  0.23848743  1
  Te  Te100  1  0.07084325  0.22480489  0.54966471  1
  Te  Te101  1  0.11332655  0.27152992  0.89392072  1
  Te  Te102  1  0.11532745  0.57157868  0.24775149  1
  Te  Te103  1  0.08417537  0.58617327  0.58597702  1
  Te  Te104  1  0.13006868  0.56460609  0.92833758  1
  Te  Te105  1  0.12216982  0.93371612  0.28731788  1
  Te  Te106  1  0.10836612  0.90499418  0.59280890  1
  Te  Te107  1  0.09774058  0.92361273  0.91088583  1
  Te  Te108  1  0.41584728  0.24340475  0.26344321  1
  Te  Te109  1  0.42711888  0.23845431  0.58173572  1
  Te  Te110  1  0.39743456  0.28080886  0.92329959  1
  Te  Te111  1  0.40221983  0.58107556  0.22889001  1
  Te  Te112  1  0.43877447  0.57814500  0.61056959  1
  Te  Te113  1  0.40094337  0.59892312  0.89630039  1
  Te  Te114  1  0.37082878  0.93149555  0.23436133  1
  Te  Te115  1  0.39885992  0.93491867  0.57182848  1
  Te  Te116  1  0.41770374  0.92452368  0.91450833  1
  Te  Te117  1  0.75901191  0.22268068  0.25271420  1
  Te  Te118  1  0.74243076  0.25322746  0.57672112  1
  Te  Te119  1  0.73353411  0.22748280  0.88116830  1
  Te  Te120  1  0.77073947  0.58406156  0.25251371  1
  Te  Te121  1  0.75008573  0.57161248  0.61112607  1
  Te  Te122  1  0.76180248  0.57541338  0.91842456  1
  Te  Te123  1  0.74838221  0.91591903  0.25100245  1
  Te  Te124  1  0.74836240  0.90087458  0.57730457  1
  Te  Te125  1  0.74892496  0.91600970  0.92522675  1
  Te  Te126  1  0.25560919  0.25223400  0.06077002  1
  Te  Te127  1  0.24723201  0.25394116  0.43915816  1
  Te  Te128  1  0.23039473  0.26238742  0.75228504  1
  Te  Te129  1  0.24931952  0.57890356  0.03733968  1
  Te  Te130  1  0.25177405  0.57320054  0.41227719  1
  Te  Te131  1  0.26782467  0.58622509  0.79872139  1
  Te  Te132  1  0.27305116  0.88779409  0.10875106  1
  Te  Te133  1  0.23601403  0.91294030  0.39678537  1
  Te  Te134  1  0.23302688  0.91263314  0.75186469  1
  Te  Te135  1  0.58188243  0.25135547  0.09313126  1
  Te  Te136  1  0.55900158  0.24078519  0.41936607  1
  Te  Te137  1  0.57160322  0.22780416  0.75290502  1
  Te  Te138  1  0.56407001  0.59441317  0.09145444  1
  Te  Te139  1  0.55641067  0.58475326  0.44635458  1
  Te  Te140  1  0.54950150  0.55381172  0.72027401  1
  Te  Te141  1  0.53067222  0.91888414  0.09976782  1
  Te  Te142  1  0.54157187  0.93912886  0.42837456  1
  Te  Te143  1  0.57570937  0.92526433  0.75835936  1
  Te  Te144  1  0.92391605  0.25954482  0.07924619  1
  Te  Te145  1  0.90704540  0.24646150  0.40005710  1
  Te  Te146  1  0.91801403  0.25712463  0.74766130  1
  Te  Te147  1  0.96026828  0.58814155  0.07342040  1
  Te  Te148  1  0.92432330  0.58822999  0.41839540  1
  Te  Te149  1  0.90166104  0.57971504  0.78797211  1
  Te  Te150  1  0.91938270  0.90251261  0.08498920  1
  Te  Te151  1  0.94874724  0.94377443  0.40941314  1
  Te  Te152  1  0.92182538  0.92991432  0.76261207  1
  Te  Te153  1  0.26892508  0.05294726  0.26161763  1
  Te  Te154  1  0.24872606  0.10508754  0.59682974  1
  Te  Te155  1  0.24305256  0.08116881  0.91216372  1
  Te  Te156  1  0.25382087  0.43961063  0.24428028  1
  Te  Te157  1  0.23448430  0.41949613  0.58036924  1
  Te  Te158  1  0.23430235  0.46326676  0.92652331  1
  Te  Te159  1  0.26002129  0.76263132  0.21840751  1
  Te  Te160  1  0.26358321  0.74013361  0.60253291  1
  Te  Te161  1  0.23773910  0.72979660  0.90413621  1
  Te  Te162  1  0.53913255  0.07111699  0.27083532  1
  Te  Te163  1  0.54738758  0.08904792  0.59747126  1
  Te  Te164  1  0.58496973  0.08522796  0.90700850  1
  Te  Te165  1  0.58449200  0.41456187  0.25747898  1
  Te  Te166  1  0.54966216  0.39289271  0.57775358  1
  Te  Te167  1  0.57838008  0.42747330  0.92499046  1
  Te  Te168  1  0.57683155  0.74804932  0.26072438  1
  Te  Te169  1  0.57002842  0.74865920  0.58194620  1
  Te  Te170  1  0.55608129  0.76929615  0.93495262  1
  Te  Te171  1  0.92975618  0.08534820  0.26096514  1
  Te  Te172  1  0.94352102  0.11329171  0.58023944  1
  Te  Te173  1  0.91699938  0.08436710  0.92122628  1
  Te  Te174  1  0.95402883  0.43680688  0.21917740  1
  Te  Te175  1  0.91897047  0.42835581  0.60661072  1
  Te  Te176  1  0.94907438  0.44969974  0.87184080  1
  Te  Te177  1  0.91855389  0.75979304  0.24523788  1
  Te  Te178  1  0.92561904  0.74125854  0.57895591  1
  Te  Te179  1  0.93964719  0.71674109  0.90792315  1
