# generated using pymatgen
data_In2Te3
_symmetry_space_group_name_H-M   'P 1'
_cell_length_a   18.89198994
_cell_length_b   18.90319175
_cell_length_c   18.89560329
_cell_angle_alpha   89.94897383
_cell_angle_beta   90.01086258
_cell_angle_gamma   90.07870259
_symmetry_Int_Tables_number   1
_chemical_formula_structural   In2Te3
_chemical_formula_sum   'In72 Te108'
_cell_volume   6747.96805928
_cell_formula_units_Z   36
loop_
 _symmetry_equiv_pos_site_id
 _symmetry_equiv_pos_as_xyz
  1  'x, y, z'
loop_
 _atom_site_type_symbol
 _atom_site_label
 _atom_site_symmetry_multiplicity
 _atom_site_fract_x
 _atom_site_fract_y
 _atom_site_fract_z
 _atom_site_occupancy
  In  In0  1  0.65822214  0.50496239  0.18296375  1
  In  In1  1  0.18601122  0.35154861  0.16301349  1
  In  In2  1  0.02763036  0.16709083  0.81933873  1
  In  In3  1  0.18089265  0.70521978  0.56478339  1
  In  In4  1  0.82263361  0.81711244  0.00635501  1
  In  In5  1  0.16883151  0.66540598  0.14151526  1
  In  In6  1  0.17819130  0.00564513  0.80629915  1
  In  In7  1  0.81512684  0.15389384  0.30771613  1
  In  In8  1  0.67028736  0.81959008  0.51457315  1
  In  In9  1  0.35195965  0.32898277  0.67488009  1
  In  In10  1  0.02676529  0.81668396  0.17201261  1
  In  In11  1  0.67491398  0.18282278  0.83804372  1
  In  In12  1  0.65926594  0.67966377  -0.01398441  1
  In  In13  1  0.33495114  0.85229075  0.15402076  1
  In  In14  1  0.32272244  0.00591212  0.36362954  1
  In  In15  1  0.81799872  0.46550660  0.35716053  1
  In  In16  1  0.02933747  0.84887457  0.52095312  1
  In  In17  1  0.51033988  0.49111473  0.66242037  1
  In  In18  1  0.66446370  0.00123110  0.34293161  1
  In  In19  1  0.83534102  0.79269899  0.67096929  1
  In  In20  1  0.00882733  0.81198428  0.80216093  1
  In  In21  1  0.68311467  0.36491116  0.68647224  1
  In  In22  1  0.33220422  0.48018407  0.51528202  1
  In  In23  1  0.00334299  0.36162214  0.67991930  1
  In  In24  1  0.62841912  0.84988018  0.84897311  1
  In  In25  1  0.82872716  0.64020188  0.14393151  1
  In  In26  1  0.01124449  0.00954512  -0.00252515  1
  In  In27  1  0.64855480  0.35957458  -0.00480853  1
  In  In28  1  0.86098338  0.47212454  -0.03516752  1
  In  In29  1  -0.02634326  0.15628090  0.15499959  1
  In  In30  1  0.82402179  0.19279117  -0.00331021  1
  In  In31  1  0.33291301  0.34402086  -0.01352505  1
  In  In32  1  0.80981593  0.29856893  0.15746823  1
  In  In33  1  0.63757935  0.19060207  0.48772772  1
  In  In34  1  0.50211423  0.49677319  0.35506855  1
  In  In35  1  0.50223305  0.64546952  0.80494847  1
  In  In36  1  -0.00883325  0.33555068  0.32281000  1
  In  In37  1  0.35038964  0.17908401  0.19448891  1
  In  In38  1  0.47959234  0.67467772  0.51481066  1
  In  In39  1  0.50081194  0.02228790  0.48463847  1
  In  In40  1  0.18362673  0.49150397  0.31937870  1
  In  In41  1  0.48427260  0.68763452  0.16994277  1
  In  In42  1  0.16258152  0.32611615  0.81840837  1
  In  In43  1  0.17577799  0.82145421  -0.01748561  1
  In  In44  1  0.32571004  0.65889973  0.35328430  1
  In  In45  1  0.18448324  0.32792160  0.50986417  1
  In  In46  1  0.85373300  0.16539398  0.67445957  1
  In  In47  1  -0.01373534  0.67220874  0.34950963  1
  In  In48  1  0.64165352  0.67109036  0.34343522  1
  In  In49  1  0.81375598  0.33195283  0.49406842  1
  In  In50  1  0.48529245  0.16747775  0.00707255  1
  In  In51  1  0.00896713  0.49985987  0.52767437  1
  In  In52  1  0.16451247  0.16504028  0.34527425  1
  In  In53  1  0.32827112  0.16327518  0.83538879  1
  In  In54  1  0.85494027  0.01116419  0.17818168  1
  In  In55  1  0.66624826  0.16353002  0.19222856  1
  In  In56  1  0.49428346  0.15854605  0.67119658  1
  In  In57  1  0.48878203  0.00246281  0.16635484  1
  In  In58  1  0.49713282  0.83989480  0.67793574  1
  In  In59  1  0.02078322  0.15694090  0.49319565  1
  In  In60  1  0.48606751  0.50796455  -0.02362552  1
  In  In61  1  0.62057073  0.00658786  0.01166126  1
  In  In62  1  0.32548033  0.48486747  0.15158997  1
  In  In63  1  0.31507078  0.00253054  0.64355334  1
  In  In64  1  0.84319305  -0.03430190  0.50134830  1
  In  In65  1  0.16953669  0.84914846  0.33262310  1
  In  In66  1  0.18512843  0.66601830  0.80276514  1
  In  In67  1  0.17003751  0.52518932  -0.03753324  1
  In  In68  1  0.01696389  0.49675119  0.14058255  1
  In  In69  1  0.84554543  -0.02294370  0.83255717  1
  In  In70  1  0.81596107  0.84578303  0.33364032  1
  In  In71  1  0.81807157  0.64475573  0.82982559  1
  Te  Te72  1  0.08770928  0.09917739  0.08400394  1
  Te  Te73  1  0.10948461  0.05259335  0.43098917  1
  Te  Te74  1  0.07563084  0.06955368  0.71952776  1
  Te  Te75  1  0.10528452  0.41561699  0.05084330  1
  Te  Te76  1  0.08315705  0.41361830  0.41606422  1
  Te  Te77  1  0.06735635  0.44787630  0.78583563  1
  Te  Te78  1  0.06852242  0.73459557  0.05204992  1
  Te  Te79  1  0.09915693  0.73943699  0.42468124  1
  Te  Te80  1  0.09750493  0.74533176  0.70288976  1
  Te  Te81  1  0.38855570  0.07771752  0.08114362  1
  Te  Te82  1  0.39371385  0.11445849  0.43808961  1
  Te  Te83  1  0.40630552  0.06273446  0.75089842  1
  Te  Te84  1  0.43414715  0.40669097  0.08131238  1
  Te  Te85  1  0.42955565  0.40004814  0.44062263  1
  Te  Te86  1  0.42317966  0.42248795  0.76252269  1
  Te  Te87  1  0.39536660  0.74825732  0.06969983  1
  Te  Te88  1  0.39560706  0.76337972  0.43033189  1
  Te  Te89  1  0.40166910  0.74035591  0.73996517  1
  Te  Te90  1  0.75537749  0.08840798  0.08521802  1
  Te  Te91  1  0.75868810  0.08249252  0.42991201  1
  Te  Te92  1  0.75898516  0.08219286  0.76030356  1
  Te  Te93  1  0.75571834  0.42461814  0.09318416  1
  Te  Te94  1  0.70615964  0.42022721  0.44194219  1
  Te  Te95  1  0.77570056  0.46483588  0.74459987  1
  Te  Te96  1  0.72844699  0.74711596  0.10391433  1
  Te  Te97  1  0.75923090  0.73816071  0.42256451  1
  Te  Te98  1  0.73017616  0.75815958  0.77885619  1
  Te  Te99  1  0.08945185  0.25720834  0.23912565  1
  Te  Te100  1  0.07685066  0.25841468  0.59172894  1
  Te  Te101  1  0.11262889  0.23058925  0.91924087  1
  Te  Te102  1  0.08087902  0.58786469  0.25235156  1
  Te  Te103  1  0.09537435  0.58655843  0.61406800  1
  Te  Te104  1  0.07387095  0.59939405  0.87867339  1
  Te  Te105  1  0.09392868  0.93044413  0.23507455  1
  Te  Te106  1  0.11446200  0.94614172  0.59281300  1
  Te  Te107  1  0.07536806  0.91445201  0.89764996  1
  Te  Te108  1  0.46610944  0.24526499  0.25513733  1
  Te  Te109  1  0.40046613  0.22739260  0.57898097  1
  Te  Te110  1  0.42610184  0.25972502  0.90169377  1
  Te  Te111  1  0.40581966  0.57661151  0.25227419  1
  Te  Te112  1  0.39814800  0.58398274  0.60318477  1
  Te  Te113  1  0.39589940  0.57412787  0.88132361  1
  Te  Te114  1  0.40924355  0.92024446  0.26649705  1
  Te  Te115  1  0.42476773  0.92419197  0.57243407  1
  Te  Te116  1  0.49024028  0.94608691  0.96433867  1
  Te  Te117  1  0.72736035  0.27498105  0.28100996  1
  Te  Te118  1  0.74613464  0.24070016  0.59738935  1
  Te  Te119  1  0.75535650  0.29301812  0.90587562  1
  Te  Te120  1  0.75520265  0.58789434  0.26991545  1
  Te  Te121  1  0.81401018  0.64883381  0.62351613  1
  Te  Te122  1  0.74014372  0.56270129  0.93219106  1
  Te  Te123  1  0.73717396  0.92694133  0.23249680  1
  Te  Te124  1  0.75017905  0.91032042  0.60488819  1
  Te  Te125  1  0.74088252  0.92740179  0.93636908  1
  Te  Te126  1  0.26493520  0.24972585  0.08349702  1
  Te  Te127  1  0.26372459  0.25013666  0.41405176  1
  Te  Te128  1  0.24529961  0.23303819  0.72976142  1
  Te  Te129  1  0.27063365  0.59080772  0.05793211  1
  Te  Te130  1  0.23333533  0.57303569  0.43779150  1
  Te  Te131  1  0.22703357  0.56112739  0.70281707  1
  Te  Te132  1  0.21384752  0.91143619  0.09388828  1
  Te  Te133  1  0.27148474  0.88400029  0.43396808  1
  Te  Te134  1  0.25291164  0.89655416  0.73447573  1
  Te  Te135  1  0.59790249  0.24187749  0.07683595  1
  Te  Te136  1  0.54000692  0.24224980  0.39341313  1
  Te  Te137  1  0.58264153  0.25851828  0.74507076  1
  Te  Te138  1  0.57522994  0.58706895  0.08536473  1
  Te  Te139  1  0.58429105  0.58253763  0.45153021  1
  Te  Te140  1  0.61087061  0.57450800  0.73414493  1
  Te  Te141  1  0.55813169  0.89082675  0.08965431  1
  Te  Te142  1  0.58229832  0.90331736  0.42326331  1
  Te  Te143  1  0.58316125  0.93990511  0.74384864  1
  Te  Te144  1  0.93078521  0.27552638  0.06977236  1
  Te  Te145  1  0.91454824  0.24453157  0.41649271  1
  Te  Te146  1  0.91904382  0.26695493  0.76623404  1
  Te  Te147  1  0.92985959  0.58102458  0.04807061  1
  Te  Te148  1  0.91291782  0.56521553  0.42814889  1
  Te  Te149  1  0.89496408  0.56634007  0.72774912  1
  Te  Te150  1  0.92102874  0.90890363  0.08183339  1
  Te  Te151  1  0.93845616  0.90112360  0.40325577  1
  Te  Te152  1  0.92520437  0.91136465  0.72405261  1
  Te  Te153  1  0.24962436  0.07980567  0.25176382  1
  Te  Te154  1  0.20873863  0.06456986  0.55738274  1
  Te  Te155  1  0.25120782  0.06787155  0.91682148  1
  Te  Te156  1  0.28723053  0.39416212  0.27014894  1
  Te  Te157  1  0.22939222  0.42533367  0.61986844  1
  Te  Te158  1  0.25762519  0.42631751  0.88483457  1
  Te  Te159  1  0.24787921  0.74051821  0.24649564  1
  Te  Te160  1  0.28798306  0.77654918  0.63813207  1
  Te  Te161  1  0.26747226  0.75159967  0.89302557  1
  Te  Te162  1  0.56044972  0.08734895  0.27329422  1
  Te  Te163  1  0.59783320  0.08205089  0.58513705  1
  Te  Te164  1  0.56562790  0.09396721  0.89691473  1
  Te  Te165  1  0.56667100  0.41329394  0.25068585  1
  Te  Te166  1  0.58393844  0.39123969  0.57991774  1
  Te  Te167  1  0.57701526  0.43089524  0.88938551  1
  Te  Te168  1  0.56580219  0.76619112  0.26347540  1
  Te  Te169  1  0.58511602  0.73550547  0.60651195  1
  Te  Te170  1  0.54311945  0.74475348  0.91714892  1
  Te  Te171  1  0.94388779  0.07750380  0.28192856  1
  Te  Te172  1  0.92380497  0.07320121  0.57642808  1
  Te  Te173  1  0.91006258  0.09230891  0.91516806  1
  Te  Te174  1  0.91633805  0.43592182  0.23806379  1
  Te  Te175  1  0.89265120  0.42022986  0.59022874  1
  Te  Te176  1  0.96053519  0.40066784  0.88743361  1
  Te  Te177  1  0.90781240  0.74379589  0.23633699  1
  Te  Te178  1  0.92981161  0.74357790  0.56113869  1
  Te  Te179  1  0.90641210  0.75042864  0.90088732  1
