# generated using pymatgen
data_In2Te3
_symmetry_space_group_name_H-M   'P 1'
_cell_length_a   18.92712638
_cell_length_b   18.90952565
_cell_length_c   18.91439180
_cell_angle_alpha   90.01564460
_cell_angle_beta   90.05191063
_cell_angle_gamma   90.07534964
_symmetry_Int_Tables_number   1
_chemical_formula_structural   In2Te3
_chemical_formula_sum   'In72 Te108'
_cell_volume   6769.50833872
_cell_formula_units_Z   36
loop_
 _symmetry_equiv_pos_site_id
 _symmetry_equiv_pos_as_xyz
  1  'x, y, z'
loop_
 _atom_site_type_symbol
 _atom_site_label
 _atom_site_symmetry_multiplicity
 _atom_site_fract_x
 _atom_site_fract_y
 _atom_site_fract_z
 _atom_site_occupancy
  In  In0  1  0.32339689  0.15481485  0.50099314  1
  In  In1  1  0.50353200  0.00730848  0.49898144  1
  In  In2  1  0.83285045  0.34823995  0.47985291  1
  In  In3  1  0.68013192  0.69344272  0.00135219  1
  In  In4  1  0.50019200  0.31036480  0.47925296  1
  In  In5  1  0.54523319  0.85953815  0.03153816  1
  In  In6  1  0.84816608  -0.00615453  0.82726523  1
  In  In7  1  0.00346535  0.00360616  -0.02347093  1
  In  In8  1  0.50672964  0.67823975  0.86627026  1
  In  In9  1  0.16608219  0.01712593  0.81949399  1
  In  In10  1  0.34132898  0.33541130  0.32171877  1
  In  In11  1  0.32818124  0.64619683  0.01252079  1
  In  In12  1  0.52183944  0.16844110  0.02444361  1
  In  In13  1  0.83326711  0.32543434  0.84705312  1
  In  In14  1  0.79213128  0.51282937  0.31090000  1
  In  In15  1  0.47897845  0.48100671  0.66197702  1
  In  In16  1  0.66719250  0.68278989  0.69079763  1
  In  In17  1  0.82913761  0.01260553  0.17927982  1
  In  In18  1  -0.03116703  0.65397356  0.32855701  1
  In  In19  1  0.17052708  -0.01535815  0.48806360  1
  In  In20  1  0.49015440  0.66106192  0.49098815  1
  In  In21  1  -0.00309594  0.17266142  0.15490472  1
  In  In22  1  0.15349626  0.84010162  0.64956627  1
  In  In23  1  0.52214653  0.84920993  0.66835699  1
  In  In24  1  0.69578235  0.15122263  0.83549215  1
  In  In25  1  0.18703341  0.82144919  0.33271272  1
  In  In26  1  0.50279447  0.65625708  0.17296845  1
  In  In27  1  0.16736947  0.47555903  0.00136402  1
  In  In28  1  0.30534168  0.19389092  0.81851185  1
  In  In29  1  0.16884045  0.47607588  0.33024819  1
  In  In30  1  -0.00836345  -0.00555892  0.36156465  1
  In  In31  1  0.30764093  0.68060166  0.67780285  1
  In  In32  1  0.83259147  0.84752853  0.00073669  1
  In  In33  1  0.51270557  0.83901564  0.32114499  1
  In  In34  1  0.48429101  0.49798805  0.01567970  1
  In  In35  1  -0.01197674  0.32160162  0.33611005  1
  In  In36  1  0.49119698  0.02188830  0.83088834  1
  In  In37  1  0.34650124  0.82723927  0.17082455  1
  In  In38  1  0.00251394  0.50383636  0.15110966  1
  In  In39  1  0.00215936  0.81342151  0.16852807  1
  In  In40  1  0.16454736  0.18706722  -0.02885775  1
  In  In41  1  0.18462371  -0.00621949  0.16736740  1
  In  In42  1  0.15377874  0.64513027  0.49359800  1
  In  In43  1  0.66954470  0.31085189  0.66715410  1
  In  In44  1  0.67352818  0.16301272  0.17906992  1
  In  In45  1  0.82930129  0.32109996  0.16898197  1
  In  In46  1  0.01850232  0.51013082  0.49507965  1
  In  In47  1  0.85350171  0.75512801  0.81734941  1
  In  In48  1  0.67210887  0.50910902  0.48688978  1
  In  In49  1  0.30223138  0.46328437  0.51592387  1
  In  In50  1  0.16342240  0.64413420  0.83404673  1
  In  In51  1  0.81823564  0.52178670  0.02353188  1
  In  In52  1  0.82354347  -0.01225415  0.52994476  1
  In  In53  1  0.35693590  0.17573011  0.16418940  1
  In  In54  1  0.80588032  0.69437760  0.47884834  1
  In  In55  1  0.33883535  0.33690103  0.01214507  1
  In  In56  1  -0.00015697  0.18039776  0.83552177  1
  In  In57  1  0.65779568  0.00226555  0.33159952  1
  In  In58  1  0.49553286  0.15962237  0.65696343  1
  In  In59  1  0.52247539  0.46988586  0.29770959  1
  In  In60  1  -0.00483511  0.85685655  0.49652647  1
  In  In61  1  -0.01068772  0.50783260  0.83651689  1
  In  In62  1  0.64576986  0.50952820  0.86857680  1
  In  In63  1  0.15831664  0.15951706  0.33476908  1
  In  In64  1  0.83300848  0.48469082  0.67742650  1
  In  In65  1  0.02506088  0.31156186  0.67216766  1
  In  In66  1  0.66094082  0.17343701  0.48234346  1
  In  In67  1  0.00524930  0.66954638  0.63733921  1
  In  In68  1  0.34200131  0.84483031  0.84525938  1
  In  In69  1  0.48772135  0.34641920  0.84324439  1
  In  In70  1  0.14920353  0.84110182  0.00964729  1
  In  In71  1  0.36716364  0.83650933  0.48595052  1
  Te  Te72  1  0.09938890  0.08028703  0.07388749  1
  Te  Te73  1  0.07371342  0.09364474  0.44260452  1
  Te  Te74  1  0.06611906  0.08965804  0.73995422  1
  Te  Te75  1  0.06822646  0.39608624  0.07816759  1
  Te  Te76  1  0.08772225  0.39423237  0.42875539  1
  Te  Te77  1  0.07824277  0.40489353  0.77632074  1
  Te  Te78  1  0.10856608  0.73699159  0.10358299  1
  Te  Te79  1  0.07091822  0.74698109  0.41541563  1
  Te  Te80  1  0.08587618  0.74232223  0.74383093  1
  Te  Te81  1  0.42911826  0.07261053  0.08773915  1
  Te  Te82  1  0.42806391  0.09853334  0.41398027  1
  Te  Te83  1  0.38908146  0.09165361  0.74170933  1
  Te  Te84  1  0.40617669  0.42075878  0.11511287  1
  Te  Te85  1  0.42351034  0.42925892  0.42435247  1
  Te  Te86  1  0.39122419  0.39945531  0.74621439  1
  Te  Te87  1  0.43829896  0.74995923  0.06454317  1
  Te  Te88  1  0.41356942  0.73587767  0.38352532  1
  Te  Te89  1  0.42478876  0.74974527  0.74850215  1
  Te  Te90  1  0.74403421  0.07870870  0.07713748  1
  Te  Te91  1  0.75736402  0.07673717  0.41742764  1
  Te  Te92  1  0.77345998  0.08256665  0.73374326  1
  Te  Te93  1  0.73779660  0.42533173  0.10699959  1
  Te  Te94  1  0.72305639  0.40237526  0.39063396  1
  Te  Te95  1  0.72194803  0.42123030  0.76059129  1
  Te  Te96  1  0.76854039  0.75726878  0.09874582  1
  Te  Te97  1  0.71268050  0.71899057  0.36822141  1
  Te  Te98  1  0.73902298  0.80922460  0.73161442  1
  Te  Te99  1  0.08866475  0.25749966  0.24205496  1
  Te  Te100  1  0.12717599  0.24802413  0.58464029  1
  Te  Te101  1  0.08389418  0.28734784  0.89781674  1
  Te  Te102  1  0.08171271  0.58088018  0.26096541  1
  Te  Te103  1  0.10659715  0.55918822  0.60950193  1
  Te  Te104  1  0.07246387  0.58532985  0.93673677  1
  Te  Te105  1  0.09145835  0.92254204  0.26504549  1
  Te  Te106  1  0.04141859  0.93882843  0.61578189  1
  Te  Te107  1  0.08296027  0.90809151  0.89113175  1
  Te  Te108  1  0.44495598  0.24876851  0.26053700  1
  Te  Te109  1  0.40788131  0.25950385  0.58594836  1
  Te  Te110  1  0.41757946  0.23345713  0.92156260  1
  Te  Te111  1  0.41606172  0.55113957  0.23187575  1
  Te  Te112  1  0.39462895  0.58399776  0.58290297  1
  Te  Te113  1  0.40814534  0.57060141  0.90494514  1
  Te  Te114  1  0.42902557  0.92817506  0.23872809  1
  Te  Te115  1  0.41414394  0.92819234  0.59565984  1
  Te  Te116  1  0.43911324  0.91980948  0.93147179  1
  Te  Te117  1  0.76849467  0.23233596  0.26785814  1
  Te  Te118  1  0.76380000  0.24384604  0.57264037  1
  Te  Te119  1  0.73280902  0.25885411  0.92866860  1
  Te  Te120  1  0.72330715  0.62583622  0.24777707  1
  Te  Te121  1  0.74878605  0.58797816  0.59355333  1
  Te  Te122  1  0.75675633  0.60381438  0.90277834  1
  Te  Te123  1  0.73133336  0.91314469  0.23417855  1
  Te  Te124  1  0.75580315  0.87126788  0.58865372  1
  Te  Te125  1  0.75098820  0.94475241  0.92869050  1
  Te  Te126  1  0.24305144  0.24514731  0.08705100  1
  Te  Te127  1  0.24923369  0.25525560  0.41189178  1
  Te  Te128  1  0.21533178  0.25011860  0.71405453  1
  Te  Te129  1  0.24545980  0.56043646  0.09539166  1
  Te  Te130  1  0.25666351  0.57025368  0.41331604  1
  Te  Te131  1  0.25640063  0.56574152  0.75189697  1
  Te  Te132  1  0.26699299  0.91457592  0.06890225  1
  Te  Te133  1  0.27772852  0.92462858  0.39919988  1
  Te  Te134  1  0.25070524  0.91154806  0.74420042  1
  Te  Te135  1  0.57947562  0.26754482  0.12150538  1
  Te  Te136  1  0.57770484  0.23792261  0.37725186  1
  Te  Te137  1  0.57266946  0.24220997  0.76210772  1
  Te  Te138  1  0.59256064  0.58790037  0.07160899  1
  Te  Te139  1  0.57492533  0.57910254  0.39536745  1
  Te  Te140  1  0.56719073  0.57880282  0.75056066  1
  Te  Te141  1  0.62713365  0.95432842  0.11467065  1
  Te  Te142  1  0.59409065  0.90565837  0.43201978  1
  Te  Te143  1  0.59036013  0.95167015  0.74675949  1
  Te  Te144  1  0.91836863  0.26009890  0.06847120  1
  Te  Te145  1  0.91871522  0.23823481  0.43499608  1
  Te  Te146  1  0.90142785  0.24870273  0.73809081  1
  Te  Te147  1  0.90742970  0.60538692  0.10397158  1
  Te  Te148  1  0.89263602  0.56943579  0.43213911  1
  Te  Te149  1  0.91004771  0.59990756  0.74166388  1
  Te  Te150  1  0.94014656  0.93516867  0.09739174  1
  Te  Te151  1  0.88225677  0.90247186  0.40748520  1
  Te  Te152  1  0.91422198  0.87801889  0.76121350  1
  Te  Te153  1  0.26437967  0.08688920  0.25520580  1
  Te  Te154  1  0.24414710  0.06373264  0.58590513  1
  Te  Te155  1  0.26056840  0.08205410  0.91810165  1
  Te  Te156  1  0.25118245  0.40698201  0.23019583  1
  Te  Te157  1  0.22621129  0.37215251  0.60284577  1
  Te  Te158  1  0.25802690  0.40328576  0.90987262  1
  Te  Te159  1  0.25368277  0.73366183  0.23670073  1
  Te  Te160  1  0.24556546  0.75964364  0.55507334  1
  Te  Te161  1  0.25190821  0.74602434  0.91719556  1
  Te  Te162  1  0.56956936  0.05572113  0.22038816  1
  Te  Te163  1  0.60373405  0.08009687  0.58824423  1
  Te  Te164  1  0.59580781  0.07853861  0.92591977  1
  Te  Te165  1  0.61195019  0.40749908  0.19939886  1
  Te  Te166  1  0.59061946  0.40802525  0.57804047  1
  Te  Te167  1  0.58303718  0.39878013  0.94893217  1
  Te  Te168  1  0.60038855  0.75214697  0.23499615  1
  Te  Te169  1  0.58505360  0.74428198  0.57533605  1
  Te  Te170  1  0.60339885  0.78510463  0.90557757  1
  Te  Te171  1  0.92640401  0.09328113  0.26365025  1
  Te  Te172  1  0.93893546  0.05158749  0.59261686  1
  Te  Te173  1  0.90623798  0.10436995  0.92722014  1
  Te  Te174  1  0.91137682  0.43107511  0.26104705  1
  Te  Te175  1  0.93168967  0.41359378  0.58770763  1
  Te  Te176  1  0.90170785  0.42941976  0.93222549  1
  Te  Te177  1  0.90183761  0.76674375  0.26444202  1
  Te  Te178  1  0.90052433  0.76175674  0.57791487  1
  Te  Te179  1  0.93192383  0.75650831  0.94014578  1
