# generated using pymatgen
data_In2Te3
_symmetry_space_group_name_H-M   'P 1'
_cell_length_a   18.90224806
_cell_length_b   18.90049419
_cell_length_c   18.90757985
_cell_angle_alpha   90.01201407
_cell_angle_beta   89.86022931
_cell_angle_gamma   90.11649662
_symmetry_Int_Tables_number   1
_chemical_formula_structural   In2Te3
_chemical_formula_sum   'In72 Te108'
_cell_volume   6754.92236490
_cell_formula_units_Z   36
loop_
 _symmetry_equiv_pos_site_id
 _symmetry_equiv_pos_as_xyz
  1  'x, y, z'
loop_
 _atom_site_type_symbol
 _atom_site_label
 _atom_site_symmetry_multiplicity
 _atom_site_fract_x
 _atom_site_fract_y
 _atom_site_fract_z
 _atom_site_occupancy
  In  In0  1  0.34910483  0.29529461  -0.00313124  1
  In  In1  1  0.02300097  0.15586040  0.19250474  1
  In  In2  1  -0.00083207  0.32180948  0.66318952  1
  In  In3  1  0.87072281  0.03356220  0.51247283  1
  In  In4  1  0.18346830  0.65659234  0.83220573  1
  In  In5  1  0.15932023  0.16094237  -0.00299405  1
  In  In6  1  0.67639918  0.66700977  -0.00195500  1
  In  In7  1  0.13624357  0.86234127  0.65786986  1
  In  In8  1  0.51126359  0.67098328  0.18888348  1
  In  In9  1  0.51553973  0.32663333  0.50821596  1
  In  In10  1  0.66558382  0.00550116  0.35017414  1
  In  In11  1  0.48039590  0.81466345  0.33170451  1
  In  In12  1  0.83802070  0.33444732  0.15283177  1
  In  In13  1  0.34109163  0.67208881  -0.01507819  1
  In  In14  1  0.00654781  0.00808489  0.34644971  1
  In  In15  1  0.29639629  0.14462698  0.48737673  1
  In  In16  1  0.30193486  0.11288239  0.17803798  1
  In  In17  1  0.67656180  0.50908372  0.83021631  1
  In  In18  1  0.16599502  0.68481642  0.17601770  1
  In  In19  1  0.30717792  0.65898236  0.33985203  1
  In  In20  1  0.86576359  0.82823051  0.66016841  1
  In  In21  1  0.14945412  0.02494729  0.80206952  1
  In  In22  1  0.83053772  0.17768206  0.66450943  1
  In  In23  1  0.66165141  0.33807817  0.32997046  1
  In  In24  1  0.84306132  0.48076904  0.34329812  1
  In  In25  1  0.35867472  0.83310007  0.83689645  1
  In  In26  1  0.00483839  0.68389504  0.34268104  1
  In  In27  1  0.52439245  0.50977708  0.37027043  1
  In  In28  1  -0.00306962  0.83917849  0.83088513  1
  In  In29  1  0.51213535  0.67100533  0.81655384  1
  In  In30  1  0.33635299  0.49230921  0.79351256  1
  In  In31  1  0.86320841  0.49686256  0.66278003  1
  In  In32  1  0.66005292  0.17845682  0.50796698  1
  In  In33  1  0.14088302  0.33186756  0.19553589  1
  In  In34  1  0.35253745  0.33095816  0.35589982  1
  In  In35  1  0.31232974  0.88333127  0.15940467  1
  In  In36  1  0.65715311  -0.01434627  -0.00486685  1
  In  In37  1  0.16608926  0.49370503  -0.02309036  1
  In  In38  1  0.85930158  0.85624514  0.33031103  1
  In  In39  1  0.67793009  0.34110566  0.65582903  1
  In  In40  1  0.50504686  0.82120205  0.00666142  1
  In  In41  1  0.70338464  0.49862643  0.16084312  1
  In  In42  1  0.46728515  0.00531677  0.49249948  1
  In  In43  1  0.32481831  0.48516558  0.17233075  1
  In  In44  1  0.31260464  0.84050426  0.47770005  1
  In  In45  1  0.31341029  0.00453653  0.64134023  1
  In  In46  1  -0.01554526  0.50313365  0.84193807  1
  In  In47  1  0.13093271  0.48956224  0.38054526  1
  In  In48  1  -0.00778891  0.02784650  -0.01390658  1
  In  In49  1  0.83502570  0.18266179  -0.02222139  1
  In  In50  1  0.81844193  0.67190021  0.83081591  1
  In  In51  1  0.02443001  0.84285665  0.18159889  1
  In  In52  1  0.85451847  0.00281136  0.16956087  1
  In  In53  1  -0.04157685  0.53832639  0.17287327  1
  In  In54  1  0.50230496  0.17590122  0.67396412  1
  In  In55  1  0.49860231  0.01233788  0.14167200  1
  In  In56  1  0.67047317  -0.00983171  0.68430622  1
  In  In57  1  0.17458552  0.31056476  0.81642611  1
  In  In58  1  0.67793228  0.82650674  0.51319707  1
  In  In59  1  0.49766119  0.31382392  0.17823011  1
  In  In60  1  0.52872299  0.47623152  -0.02135311  1
  In  In61  1  0.31547650  0.34421587  0.63884830  1
  In  In62  1  0.01984853  0.33059836  -0.01003149  1
  In  In63  1  0.51434854  -0.00953218  0.83782264  1
  In  In64  1  0.14444229  0.65826158  0.50850969  1
  In  In65  1  0.68571540  0.63736926  0.68158652  1
  In  In66  1  0.80821508  0.83286979  -0.00297888  1
  In  In67  1  0.32879707  0.18339135  0.82082740  1
  In  In68  1  -0.01564114  0.18433734  0.50561141  1
  In  In69  1  0.84435092  0.67259587  0.51370841  1
  In  In70  1  0.49609117  0.77530669  0.65213483  1
  In  In71  1  0.66641434  0.17329063  0.16250519  1
  Te  Te72  1  0.09848174  0.05858243  0.10065321  1
  Te  Te73  1  0.08317906  0.07989170  0.45411762  1
  Te  Te74  1  0.06266667  0.12303204  0.73934414  1
  Te  Te75  1  0.08356259  0.42978435  0.08766872  1
  Te  Te76  1  0.04112655  0.38164414  0.43949528  1
  Te  Te77  1  0.07830577  0.41350207  0.76132041  1
  Te  Te78  1  0.08769066  0.75871324  0.07831270  1
  Te  Te79  1  0.11270011  0.75989658  0.40588134  1
  Te  Te80  1  0.09140967  0.74990101  0.75123718  1
  Te  Te81  1  0.40408574  0.10159137  0.07338814  1
  Te  Te82  1  0.39782996  0.08792145  0.39262287  1
  Te  Te83  1  0.41551764  0.06843993  0.74063957  1
  Te  Te84  1  0.41702756  0.41698811  0.07272231  1
  Te  Te85  1  0.41868310  0.43402465  0.44721227  1
  Te  Te86  1  0.41744419  0.38435891  0.73689915  1
  Te  Te87  1  0.40682728  0.74836058  0.09990837  1
  Te  Te88  1  0.40767899  0.72787106  0.43364749  1
  Te  Te89  1  0.37642168  0.71112404  0.74439897  1
  Te  Te90  1  0.76095144  0.08216405  0.08062127  1
  Te  Te91  1  0.76063732  0.09723777  0.42437529  1
  Te  Te92  1  0.73443228  0.10417801  0.75458553  1
  Te  Te93  1  0.72603367  0.38499471  0.06537812  1
  Te  Te94  1  0.73902485  0.41605594  0.42640258  1
  Te  Te95  1  0.77183268  0.41554353  0.75252503  1
  Te  Te96  1  0.74646154  0.74717569  0.09855104  1
  Te  Te97  1  0.77163126  0.76041995  0.41322321  1
  Te  Te98  1  0.74666182  0.76503272  0.73547564  1
  Te  Te99  1  0.09916055  0.23110353  0.29599738  1
  Te  Te100  1  0.09615859  0.27088327  0.55999170  1
  Te  Te101  1  0.06995250  0.22427860  0.89059066  1
  Te  Te102  1  0.08834795  0.57862715  0.25329229  1
  Te  Te103  1  0.09673335  0.54633758  0.59230043  1
  Te  Te104  1  0.07430340  0.59960578  0.92359718  1
  Te  Te105  1  0.10750342  0.92899830  0.27032740  1
  Te  Te106  1  0.05670235  0.92778977  0.55542557  1
  Te  Te107  1  0.08607910  0.93582898  0.90813292  1
  Te  Te108  1  0.37853790  0.24088206  0.23598627  1
  Te  Te109  1  0.41090045  0.22980232  0.56642738  1
  Te  Te110  1  0.43882632  0.25105664  0.89007267  1
  Te  Te111  1  0.41047614  0.57506787  0.26117631  1
  Te  Te112  1  0.41863342  0.65640874  0.60724118  1
  Te  Te113  1  0.42424185  0.57189803  0.90697183  1
  Te  Te114  1  0.42414259  0.92908036  0.24952199  1
  Te  Te115  1  0.41429746  0.89774937  0.58875996  1
  Te  Te116  1  0.41713282  0.92552851  0.94129017  1
  Te  Te117  1  0.75988319  0.25031992  0.25447670  1
  Te  Te118  1  0.77113216  0.26841637  0.55751326  1
  Te  Te119  1  0.73776652  0.28582458  0.94428527  1
  Te  Te120  1  0.76173907  0.57851046  0.26645400  1
  Te  Te121  1  0.75920950  0.56107652  0.57252696  1
  Te  Te122  1  0.77434251  0.56353983  0.93958756  1
  Te  Te123  1  0.74937605  0.92519070  0.25160784  1
  Te  Te124  1  0.76408413  0.93606403  0.57576371  1
  Te  Te125  1  0.74779820  0.92218187  0.89920554  1
  Te  Te126  1  0.22730230  0.26623167  0.08389777  1
  Te  Te127  1  0.24256918  0.27179697  0.43477390  1
  Te  Te128  1  0.24134145  0.22868133  0.70683128  1
  Te  Te129  1  0.25210380  0.58157205  0.07873067  1
  Te  Te130  1  0.25032556  0.56460038  0.44203487  1
  Te  Te131  1  0.22442711  0.56090852  0.72106603  1
  Te  Te132  1  0.22749400  0.96979117  0.08030848  1
  Te  Te133  1  0.27668334  0.96583955  0.40586864  1
  Te  Te134  1  0.25691426  0.91220415  0.75316936  1
  Te  Te135  1  0.57374077  0.24554109  0.07409004  1
  Te  Te136  1  0.57005571  0.23681396  0.39851190  1
  Te  Te137  1  0.62168324  0.23075503  0.74135195  1
  Te  Te138  1  0.57550363  0.58365832  0.07971625  1
  Te  Te139  1  0.59275621  0.62600463  0.42222860  1
  Te  Te140  1  0.56596006  0.55685247  0.73492900  1
  Te  Te141  1  0.59293373  0.89791576  0.10266272  1
  Te  Te142  1  0.57508699  0.90454281  0.42878187  1
  Te  Te143  1  0.56672645  0.89158853  0.73439961  1
  Te  Te144  1  0.94105899  0.23222040  0.08824738  1
  Te  Te145  1  0.95202769  0.26675079  0.38660841  1
  Te  Te146  1  0.89219989  0.27631612  0.75577027  1
  Te  Te147  1  0.87543531  0.57122889  0.06078550  1
  Te  Te148  1  0.92891617  0.58184324  0.42317096  1
  Te  Te149  1  0.92632418  0.60681631  0.74559185  1
  Te  Te150  1  0.92922417  0.91296912  0.07447859  1
  Te  Te151  1  0.94041025  0.90519733  0.45064252  1
  Te  Te152  1  0.91023027  0.93051144  0.75473547  1
  Te  Te153  1  0.22282260  0.04646454  0.28357810  1
  Te  Te154  1  0.19786786  0.06238961  0.56819147  1
  Te  Te155  1  0.25186910  0.08398315  0.90465453  1
  Te  Te156  1  0.23821315  0.41866216  0.27715162  1
  Te  Te157  1  0.21182288  0.44324159  0.60036063  1
  Te  Te158  1  0.26542868  0.40406113  0.90617595  1
  Te  Te159  1  0.25722524  0.77507916  0.25591530  1
  Te  Te160  1  0.22851816  0.76748014  0.58126427  1
  Te  Te161  1  0.24530853  0.76850869  0.92214618  1
  Te  Te162  1  0.58039351  0.08410342  0.25204468  1
  Te  Te163  1  0.57811474  0.06813828  0.57888311  1
  Te  Te164  1  0.58361078  0.08849344  0.92141933  1
  Te  Te165  1  0.57309244  0.43000694  0.24379350  1
  Te  Te166  1  0.58383086  0.43043318  0.58579201  1
  Te  Te167  1  0.60311714  0.39028912  0.88560408  1
  Te  Te168  1  0.60000104  0.74028943  0.28355463  1
  Te  Te169  1  0.60291397  0.70133240  0.56085113  1
  Te  Te170  1  0.59816330  0.75878497  0.90395523  1
  Te  Te171  1  0.90722239  0.09683432  0.27497682  1
  Te  Te172  1  0.95406968  0.08401141  0.63506113  1
  Te  Te173  1  0.89568498  0.08073251  0.89054221  1
  Te  Te174  1  0.93540961  0.40760872  0.24391951  1
  Te  Te175  1  0.93683704  0.41627128  0.56150265  1
  Te  Te176  1  0.91247243  0.40579128  0.92587018  1
  Te  Te177  1  0.91695316  0.74959223  0.23792687  1
  Te  Te178  1  0.95435791  0.73883106  0.58524411  1
  Te  Te179  1  0.91226642  0.74956524  0.92077591  1
