# generated using pymatgen
data_In2Te3
_symmetry_space_group_name_H-M   'P 1'
_cell_length_a   18.82900425
_cell_length_b   18.83773164
_cell_length_c   18.81476844
_cell_angle_alpha   89.89365335
_cell_angle_beta   89.92881887
_cell_angle_gamma   90.01166628
_symmetry_Int_Tables_number   1
_chemical_formula_structural   In2Te3
_chemical_formula_sum   'In72 Te108'
_cell_volume   6673.50122199
_cell_formula_units_Z   36
loop_
 _symmetry_equiv_pos_site_id
 _symmetry_equiv_pos_as_xyz
  1  'x, y, z'
loop_
 _atom_site_type_symbol
 _atom_site_label
 _atom_site_symmetry_multiplicity
 _atom_site_fract_x
 _atom_site_fract_y
 _atom_site_fract_z
 _atom_site_occupancy
  In  In0  1  0.34411044  0.51699429  0.18226269  1
  In  In1  1  0.49964630  0.84464855  0.02670039  1
  In  In2  1  0.02613789  0.19356427  0.81929463  1
  In  In3  1  0.79041081  0.65430143  0.82488041  1
  In  In4  1  0.65761791  0.02968108  0.02567824  1
  In  In5  1  0.66102352  0.35472868  0.64783617  1
  In  In6  1  0.50146558  0.32217170  0.19046836  1
  In  In7  1  0.66275144  0.66308045  0.00521609  1
  In  In8  1  0.34663759  0.69850345  -0.00332618  1
  In  In9  1  0.21434681  0.15856803  0.65571103  1
  In  In10  1  0.82015714  -0.01408018  0.84016676  1
  In  In11  1  0.34377599  0.83835383  0.84364361  1
  In  In12  1  0.67490926  0.13952870  0.47657890  1
  In  In13  1  0.00225588  0.01218377  -0.00014192  1
  In  In14  1  -0.01019786  0.49087742  0.19910317  1
  In  In15  1  0.81970020  0.84234003  0.34853849  1
  In  In16  1  0.50370501  0.00116799  0.48274349  1
  In  In17  1  0.48111648  0.17733225  0.65365129  1
  In  In18  1  -0.00249448  0.52460168  0.50077363  1
  In  In19  1  0.83426513  0.14289941  0.02217734  1
  In  In20  1  0.34937431  0.67902600  0.32113620  1
  In  In21  1  0.00737938  0.87287059  0.17753974  1
  In  In22  1  0.16633957  0.17610328  -0.00065394  1
  In  In23  1  0.65884523  0.31173796  0.02924908  1
  In  In24  1  0.82272522  0.14180230  0.68905927  1
  In  In25  1  0.20096044  0.70366909  0.16177105  1
  In  In26  1  0.36531452  0.02680306  0.02633585  1
  In  In27  1  0.85014834  0.32840252  0.85450707  1
  In  In28  1  -0.01983362  0.32404668  0.33846648  1
  In  In29  1  -0.02600666  0.81164916  0.81839473  1
  In  In30  1  0.49129231  0.15238492  0.33974253  1
  In  In31  1  0.33219770  0.87460259  0.48954589  1
  In  In32  1  0.65797300  0.52833759  0.48711387  1
  In  In33  1  0.17609695  0.16643494  0.33724390  1
  In  In34  1  0.67589008  0.31469005  0.31724771  1
  In  In35  1  0.49676924  0.65647314  0.82605782  1
  In  In36  1  0.80809175  0.85614812  0.61729644  1
  In  In37  1  0.66409195  0.15015285  0.81768637  1
  In  In38  1  0.00149071  0.18686267  0.50046270  1
  In  In39  1  0.84487477  0.48713169  0.66143290  1
  In  In40  1  0.18052040  0.50578787  0.32473609  1
  In  In41  1  0.17837937  -0.00456368  0.85774365  1
  In  In42  1  0.34094208  0.85473536  0.18324356  1
  In  In43  1  0.01077803  0.01340440  0.63899941  1
  In  In44  1  0.16882893  0.34043676  0.51521802  1
  In  In45  1  0.51001763  0.83296435  0.32172820  1
  In  In46  1  -0.04156355  0.17496983  0.18272008  1
  In  In47  1  0.17908996  -0.00321810  0.19502909  1
  In  In48  1  0.65857502  0.48886457  0.18667824  1
  In  In49  1  0.16845851  0.48998610  -0.01277022  1
  In  In50  1  0.63409722  0.73134817  0.64002583  1
  In  In51  1  0.17127286  0.67057312  0.48978394  1
  In  In52  1  0.83184529  0.33043693  0.49769714  1
  In  In53  1  0.80891036  0.67021291  0.16852161  1
  In  In54  1  0.34225536  0.49083443  0.83012936  1
  In  In55  1  0.19249342  0.34541807  0.16902897  1
  In  In56  1  -0.01170856  0.67519209  0.65082691  1
  In  In57  1  0.82484544  0.00184827  0.18851237  1
  In  In58  1  0.52817000  0.47566477  0.01401859  1
  In  In59  1  0.34578095  0.01735845  0.64889033  1
  In  In60  1  0.14791603  0.85397530  0.64542268  1
  In  In61  1  0.34412521  0.64832779  0.65314046  1
  In  In62  1  0.83948405  0.67102652  0.49246283  1
  In  In63  1  0.48975923  0.49923224  0.65735390  1
  In  In64  1  0.36266127  0.30037155  -0.02032454  1
  In  In65  1  0.03088181  0.44787484  0.82416878  1
  In  In66  1  0.80023284  0.82918324  -0.01576685  1
  In  In67  1  0.19017054  0.81034895  -0.01800182  1
  In  In68  1  -0.00800996  0.66707984  0.33496516  1
  In  In69  1  0.64550297  0.49640876  0.85337784  1
  In  In70  1  0.01486014  0.64255946  0.00740275  1
  In  In71  1  0.33372024  0.33292519  0.64890714  1
  Te  Te72  1  0.08774734  0.08650913  0.09878635  1
  Te  Te73  1  0.08794554  0.08983564  0.43023810  1
  Te  Te74  1  0.09871169  0.07432582  0.75243410  1
  Te  Te75  1  0.08396161  0.42335865  0.09566788  1
  Te  Te76  1  0.08104093  0.42466305  0.40776072  1
  Te  Te77  1  0.08160884  0.38574807  0.70434056  1
  Te  Te78  1  0.07500029  0.76375748  0.08250487  1
  Te  Te79  1  0.06511024  0.75357000  0.42883931  1
  Te  Te80  1  0.08906511  0.74900606  0.74132040  1
  Te  Te81  1  0.46006853  0.09354643  0.12054917  1
  Te  Te82  1  0.39197284  0.08730150  0.43470065  1
  Te  Te83  1  0.41798347  0.08915942  0.75544869  1
  Te  Te84  1  0.41028926  0.41213824  0.08786823  1
  Te  Te85  1  0.37417385  0.38669644  0.50810472  1
  Te  Te86  1  0.43495963  0.39823934  0.75429043  1
  Te  Te87  1  0.42475457  0.74472669  0.11796778  1
  Te  Te88  1  0.42018685  0.75905530  0.43271872  1
  Te  Te89  1  0.41797629  0.75356841  0.74098928  1
  Te  Te90  1  0.73110352  0.12090138  0.13609445  1
  Te  Te91  1  0.75767410  0.03505348  0.40843341  1
  Te  Te92  1  0.72155234  0.03610223  0.73246117  1
  Te  Te93  1  0.74463967  0.41068354  0.09437585  1
  Te  Te94  1  0.74165743  0.41907708  0.41672345  1
  Te  Te95  1  0.74945421  0.41503086  0.75966275  1
  Te  Te96  1  0.71791161  0.77131142  0.09879109  1
  Te  Te97  1  0.73124191  0.74100378  0.41700473  1
  Te  Te98  1  0.75510567  0.78132696  0.74731579  1
  Te  Te99  1  0.08390587  0.26016597  0.24282795  1
  Te  Te100  1  0.09040472  0.24901077  0.61066423  1
  Te  Te101  1  0.08142623  0.27484827  0.92803023  1
  Te  Te102  1  0.09998698  0.60339964  0.23921659  1
  Te  Te103  1  0.09856642  0.58457979  0.59552697  1
  Te  Te104  1  0.08988845  0.57959941  0.89250390  1
  Te  Te105  1  0.09241023  0.92006396  0.29018030  1
  Te  Te106  1  0.08713594  0.93562941  0.53891188  1
  Te  Te107  1  0.06911527  0.90101103  0.91110856  1
  Te  Te108  1  0.40152452  0.24972004  0.27126042  1
  Te  Te109  1  0.39875772  0.23523062  0.54102290  1
  Te  Te110  1  0.45027179  0.20378432  0.91337356  1
  Te  Te111  1  0.44205688  0.57136652  0.27807078  1
  Te  Te112  1  0.44277188  0.59592511  0.55635329  1
  Te  Te113  1  0.42665869  0.57094917  0.93343721  1
  Te  Te114  1  0.42231198  0.94339349  0.26960363  1
  Te  Te115  1  0.44156085  0.91050923  0.59676588  1
  Te  Te116  1  0.43286084  0.93304138  0.92071705  1
  Te  Te117  1  0.76738937  0.22316973  0.24876737  1
  Te  Te118  1  0.74497217  0.24017604  0.58796251  1
  Te  Te119  1  0.74968285  0.23055660  0.91901558  1
  Te  Te120  1  0.73620241  0.58846560  0.26839931  1
  Te  Te121  1  0.75417823  0.58855099  0.59135597  1
  Te  Te122  1  0.75394044  0.55984856  0.94048628  1
  Te  Te123  1  0.73124144  0.90340961  0.24516334  1
  Te  Te124  1  0.71850599  0.93124277  0.52486958  1
  Te  Te125  1  0.70363631  0.92648050  0.91986265  1
  Te  Te126  1  0.27121920  0.24174531  0.08950760  1
  Te  Te127  1  0.25378544  0.26104156  0.42372469  1
  Te  Te128  1  0.26545538  0.25240781  0.75495001  1
  Te  Te129  1  0.25290540  0.58567742  0.07329546  1
  Te  Te130  1  0.27214938  0.58270365  0.41768871  1
  Te  Te131  1  0.25506060  0.56372958  0.73642476  1
  Te  Te132  1  0.25294142  0.91953140  0.06846439  1
  Te  Te133  1  0.24226520  0.91131217  0.37845000  1
  Te  Te134  1  0.25290116  0.91889901  0.74803657  1
  Te  Te135  1  0.55285660  0.22334777  0.08978252  1
  Te  Te136  1  0.58452405  0.24581081  0.41947883  1
  Te  Te137  1  0.58696622  0.25405421  0.73586758  1
  Te  Te138  1  0.57353702  0.58852585  0.10329005  1
  Te  Te139  1  0.60877582  0.63692006  0.38691771  1
  Te  Te140  1  0.59820097  0.58445122  0.73718508  1
  Te  Te141  1  0.57768925  0.93723794  0.11439917  1
  Te  Te142  1  0.60423376  0.90932934  0.41552262  1
  Te  Te143  1  0.61151166  0.83792218  0.73642358  1
  Te  Te144  1  0.92087817  0.25314036  0.06567023  1
  Te  Te145  1  0.88591154  0.22325422  0.40383163  1
  Te  Te146  1  0.91310073  0.25507875  0.73658244  1
  Te  Te147  1  0.91157155  0.57825204  0.09956871  1
  Te  Te148  1  0.89635329  0.56498613  0.39550926  1
  Te  Te149  1  0.91161538  0.59031220  0.75283430  1
  Te  Te150  1  0.89575456  0.92303726  0.06646005  1
  Te  Te151  1  0.89465119  0.95759378  0.40242345  1
  Te  Te152  1  0.91950644  0.92493207  0.73255613  1
  Te  Te153  1  0.27163504  0.09767792  0.24584173  1
  Te  Te154  1  0.25279300  0.06816395  0.54408639  1
  Te  Te155  1  0.27092549  0.09447003  0.92243675  1
  Te  Te156  1  0.28478030  0.40704503  0.27455113  1
  Te  Te157  1  0.25280680  0.44732780  0.58282876  1
  Te  Te158  1  0.25695198  0.39287989  0.91115827  1
  Te  Te159  1  0.23852591  0.78220780  0.28888870  1
  Te  Te160  1  0.25787135  0.76612645  0.58071987  1
  Te  Te161  1  0.25221358  0.71864153  0.87960474  1
  Te  Te162  1  0.54950830  0.05257842  0.24384826  1
  Te  Te163  1  0.58277889  0.08373566  0.58467659  1
  Te  Te164  1  0.56787144  0.09980479  0.92332063  1
  Te  Te165  1  0.56498712  0.42004032  0.28744051  1
  Te  Te166  1  0.56935602  0.41767339  0.54669188  1
  Te  Te167  1  0.57679628  0.37503896  0.91187531  1
  Te  Te168  1  0.58319585  0.71863702  0.26334000  1
  Te  Te169  1  0.53632081  0.77446013  0.53905846  1
  Te  Te170  1  0.56939020  0.74940364  0.92229015  1
  Te  Te171  1  0.93609075  0.05866298  0.27176114  1
  Te  Te172  1  0.89913313  0.08851172  0.56967282  1
  Te  Te173  1  0.92153630  0.08922334  0.89427215  1
  Te  Te174  1  0.88852777  0.39727565  0.24881053  1
  Te  Te175  1  0.93974275  0.40384460  0.57763077  1
  Te  Te176  1  0.92256787  0.43615346  0.92259628  1
  Te  Te177  1  0.91753814  0.76280136  0.23849988  1
  Te  Te178  1  0.92694672  0.77949694  0.55769248  1
  Te  Te179  1  0.90330905  0.73071378  0.92858123  1
