# generated using pymatgen
data_In2Te3
_symmetry_space_group_name_H-M   'P 1'
_cell_length_a   18.86436515
_cell_length_b   18.86882623
_cell_length_c   18.86468198
_cell_angle_alpha   89.95617381
_cell_angle_beta   89.99159975
_cell_angle_gamma   90.03787980
_symmetry_Int_Tables_number   1
_chemical_formula_structural   In2Te3
_chemical_formula_sum   'In72 Te108'
_cell_volume   6714.85038831
_cell_formula_units_Z   36
loop_
 _symmetry_equiv_pos_site_id
 _symmetry_equiv_pos_as_xyz
  1  'x, y, z'
loop_
 _atom_site_type_symbol
 _atom_site_label
 _atom_site_symmetry_multiplicity
 _atom_site_fract_x
 _atom_site_fract_y
 _atom_site_fract_z
 _atom_site_occupancy
  In  In0  1  -0.02482929  -0.01704416  -0.00470034  1
  In  In1  1  0.33266346  0.46290531  0.50157745  1
  In  In2  1  0.18016545  -0.00680149  0.83728987  1
  In  In3  1  0.65837019  -0.01937986  0.43939908  1
  In  In4  1  0.65017886  0.67117058  0.34105524  1
  In  In5  1  0.17334331  0.16847004  0.35648554  1
  In  In6  1  -0.00264818  0.66956988  0.69544926  1
  In  In7  1  0.32852930  0.67121364  0.30728253  1
  In  In8  1  -0.00403482  0.48077665  0.80953070  1
  In  In9  1  0.33189662  0.66225975  -0.01186194  1
  In  In10  1  0.82931496  0.82058396  0.01322256  1
  In  In11  1  0.35195500  0.85798716  0.84447337  1
  In  In12  1  0.83299939  0.83311017  0.32533723  1
  In  In13  1  0.66417790  0.67819978  0.67517465  1
  In  In14  1  0.83663171  0.20677284  0.46112793  1
  In  In15  1  0.49945809  0.17106266  0.34564462  1
  In  In16  1  0.15439536  0.19411558  0.65309433  1
  In  In17  1  0.83501956  0.65233347  0.50027877  1
  In  In18  1  0.00076477  0.35086961  -0.00072048  1
  In  In19  1  0.00756562  0.00540670  0.34356458  1
  In  In20  1  0.48932538  0.00263370  0.15670309  1
  In  In21  1  0.32700813  0.01009820  0.32348609  1
  In  In22  1  0.82531637  0.20442403  0.00721171  1
  In  In23  1  0.66472572  0.50725628  0.15814075  1
  In  In24  1  0.17059383  0.00585481  0.49778454  1
  In  In25  1  0.15537433  0.52894535  0.31602070  1
  In  In26  1  0.52337017  0.44590583  0.66201360  1
  In  In27  1  0.48634071  0.32513679  0.17222102  1
  In  In28  1  -0.02356555  0.18612526  0.82583863  1
  In  In29  1  0.33966371  0.47450582  0.16125532  1
  In  In30  1  0.34314272  0.84374469  0.49166251  1
  In  In31  1  0.01804483  0.67458510  0.03253371  1
  In  In32  1  0.50774573  0.65804579  0.50233023  1
  In  In33  1  0.18508405  0.15868863  -0.01642622  1
  In  In34  1  0.79558423  0.84129192  0.66978376  1
  In  In35  1  0.67654684  0.33143715  0.36063936  1
  In  In36  1  0.64648674  0.00023208  0.65049028  1
  In  In37  1  0.85522344  -0.00640329  0.16494944  1
  In  In38  1  0.35471269  0.16113556  0.78753509  1
  In  In39  1  0.32872672  0.67622422  0.64485989  1
  In  In40  1  0.32561465  0.83413123  0.16019501  1
  In  In41  1  0.53537863  0.68286079  0.85577322  1
  In  In42  1  0.18097858  0.50719182  0.00445836  1
  In  In43  1  0.82381494  0.30477711  0.81547995  1
  In  In44  1  -0.00385060  0.84580410  0.83722826  1
  In  In45  1  0.83462331  0.50030685  0.66388983  1
  In  In46  1  0.34398294  0.15825092  0.51588761  1
  In  In47  1  -0.01802243  0.03932990  0.65203727  1
  In  In48  1  0.69993378  0.82135436  0.15110280  1
  In  In49  1  0.83117729  0.36288754  0.17758784  1
  In  In50  1  0.34120334  0.32413239  -0.02729023  1
  In  In51  1  0.79251658  0.00796169  0.82457690  1
  In  In52  1  0.48497311  0.48728661  0.35056391  1
  In  In53  1  0.61847863  0.17134519  0.78206217  1
  In  In54  1  0.16443767  0.46747947  0.64780040  1
  In  In55  1  0.67305154  0.50807673  0.83786930  1
  In  In56  1  0.50155198  0.14909126  -0.01488442  1
  In  In57  1  -0.00214451  0.84108634  0.49741778  1
  In  In58  1  0.84878585  0.66963667  0.16286319  1
  In  In59  1  0.16591614  0.33342966  0.18304967  1
  In  In60  1  0.16027946  0.67129887  0.48415000  1
  In  In61  1  0.16744544  0.67620740  0.83696914  1
  In  In62  1  0.65846870  0.01357410  -0.00911030  1
  In  In63  1  0.48769232  0.83253344  0.67014464  1
  In  In64  1  0.16612706  -0.02086629  0.16457145  1
  In  In65  1  0.66348063  0.34930622  -0.01441026  1
  In  In66  1  0.34622504  0.49976323  0.81559861  1
  In  In67  1  0.02098109  0.15207231  0.18981453  1
  In  In68  1  0.82845465  0.47958660  0.35432294  1
  In  In69  1  0.66043562  0.17013799  0.19440887  1
  In  In70  1  0.52301574  0.67709889  0.14255509  1
  In  In71  1  0.00549369  0.49043248  0.48575561  1
  Te  Te72  1  0.07318530  0.08476163  0.06368267  1
  Te  Te73  1  0.06464068  0.10502069  0.44580508  1
  Te  Te74  1  0.07655174  0.08271094  0.76659139  1
  Te  Te75  1  0.08596199  0.43077489  0.09703928  1
  Te  Te76  1  0.12301256  0.43090679  0.42070790  1
  Te  Te77  1  0.07985506  0.38577093  0.73662625  1
  Te  Te78  1  0.12440573  0.73203067  0.11544223  1
  Te  Te79  1  0.06863060  0.75293317  0.40357161  1
  Te  Te80  1  0.09521328  0.77467144  0.74509432  1
  Te  Te81  1  0.40801294  0.10402388  0.08838934  1
  Te  Te82  1  0.42431418  0.06393974  0.42614266  1
  Te  Te83  1  0.44017380  0.06992480  0.70261840  1
  Te  Te84  1  0.43232335  0.41258408  0.05904335  1
  Te  Te85  1  0.43140872  0.37808680  0.43161027  1
  Te  Te86  1  0.39561778  0.39669476  0.72087808  1
  Te  Te87  1  0.42104165  0.75877391  0.06593088  1
  Te  Te88  1  0.42113800  0.74185022  0.40818082  1
  Te  Te89  1  0.40758670  0.73221886  0.76236991  1
  Te  Te90  1  0.75671646  0.08739930  0.08721936  1
  Te  Te91  1  0.71635521  0.11465710  0.42220305  1
  Te  Te92  1  0.74587710  0.10670647  0.72189073  1
  Te  Te93  1  0.76263374  0.43517964  0.06318322  1
  Te  Te94  1  0.76270169  0.40040452  0.46039025  1
  Te  Te95  1  0.74090083  0.40864043  0.74067221  1
  Te  Te96  1  0.73175924  0.70526476  0.05234606  1
  Te  Te97  1  0.74836892  0.75229650  0.42431261  1
  Te  Te98  1  0.75442115  0.74374014  0.77224781  1
  Te  Te99  1  0.07391034  0.26110359  0.28022520  1
  Te  Te100  1  0.06512713  0.24069091  0.54642046  1
  Te  Te101  1  0.08069451  0.25202314  0.91702581  1
  Te  Te102  1  0.09502004  0.61315286  0.21226784  1
  Te  Te103  1  0.07657019  0.59050558  0.59266141  1
  Te  Te104  1  0.07987372  0.57378549  0.90907270  1
  Te  Te105  1  0.06495292  0.91146168  0.24629100  1
  Te  Te106  1  0.07408238  0.93226937  0.59219604  1
  Te  Te107  1  0.09363616  0.90917170  0.93541611  1
  Te  Te108  1  0.40421286  0.23524396  0.25268368  1
  Te  Te109  1  0.44060494  0.21102348  0.62109165  1
  Te  Te110  1  0.44038088  0.24832628  0.88690840  1
  Te  Te111  1  0.43747936  0.58026441  0.23915069  1
  Te  Te112  1  0.41718737  0.56763788  0.58486000  1
  Te  Te113  1  0.43277646  0.58028386  0.91132618  1
  Te  Te114  1  0.41849795  0.90928194  0.25592747  1
  Te  Te115  1  0.39941244  0.93019122  0.59967856  1
  Te  Te116  1  0.46073274  0.92523307  0.91684344  1
  Te  Te117  1  0.76775462  0.25399969  0.26240577  1
  Te  Te118  1  0.78554262  0.21806252  0.60150468  1
  Te  Te119  1  0.71493376  0.22509393  0.90021983  1
  Te  Te120  1  0.74903869  0.58755013  0.25823739  1
  Te  Te121  1  0.73135110  0.57711417  0.58221818  1
  Te  Te122  1  0.71505393  0.62318820  0.91824515  1
  Te  Te123  1  0.74441804  0.93121200  0.24949272  1
  Te  Te124  1  0.74789441  0.93166728  0.55939589  1
  Te  Te125  1  0.73955536  0.90332825  0.91946016  1
  Te  Te126  1  0.25085834  0.25966660  0.07839941  1
  Te  Te127  1  0.27080669  0.25133655  0.42802647  1
  Te  Te128  1  0.23580585  0.24593542  0.76428330  1
  Te  Te129  1  0.26100538  0.59081893  0.10329767  1
  Te  Te130  1  0.27228138  0.58694899  0.42340083  1
  Te  Te131  1  0.23733007  0.58268815  0.73678340  1
  Te  Te132  1  0.26468718  0.93198818  0.06826672  1
  Te  Te133  1  0.23864874  0.91185459  0.40100838  1
  Te  Te134  1  0.26067116  0.91333967  0.74340209  1
  Te  Te135  1  0.59086520  0.24473806  0.08150901  1
  Te  Te136  1  0.59698397  0.23353390  0.44284075  1
  Te  Te137  1  0.58417231  0.28927942  0.69386900  1
  Te  Te138  1  0.57461339  0.56785765  0.05864320  1
  Te  Te139  1  0.59589114  0.55730243  0.42745510  1
  Te  Te140  1  0.56464007  0.58165360  0.73743883  1
  Te  Te141  1  0.59322587  0.91512146  0.08696687  1
  Te  Te142  1  0.55414056  0.88279703  0.46199693  1
  Te  Te143  1  0.59981151  0.89517585  0.74308792  1
  Te  Te144  1  0.93418346  0.25337836  0.10120219  1
  Te  Te145  1  0.95051794  0.30464185  0.46070401  1
  Te  Te146  1  0.91335133  0.25153827  0.70755429  1
  Te  Te147  1  0.91942835  0.57533726  0.07581773  1
  Te  Te148  1  0.92956134  0.58997037  0.40049899  1
  Te  Te149  1  0.89372568  0.58947943  0.77191171  1
  Te  Te150  1  0.93757337  0.88157804  0.10329642  1
  Te  Te151  1  0.90033994  0.93015601  0.42243067  1
  Te  Te152  1  0.90583944  0.93145358  0.74626364  1
  Te  Te153  1  0.23513957  0.09468210  0.23694071  1
  Te  Te154  1  0.24472098  0.08182275  0.60504245  1
  Te  Te155  1  0.28663989  0.07977859  0.90389797  1
  Te  Te156  1  0.25869984  0.41574552  0.27192125  1
  Te  Te157  1  0.26872655  0.37194758  0.60146703  1
  Te  Te158  1  0.24574319  0.41808218  0.89956785  1
  Te  Te159  1  0.22719848  0.76228789  0.24881234  1
  Te  Te160  1  0.23359314  0.76993864  0.57497438  1
  Te  Te161  1  0.24673021  0.76930065  0.92448238  1
  Te  Te162  1  0.58011200  0.06496317  0.26459816  1
  Te  Te163  1  0.54975131  0.10010692  0.59407826  1
  Te  Te164  1  0.56508372  0.05881361  0.87645765  1
  Te  Te165  1  0.59271423  0.40583640  0.24921167  1
  Te  Te166  1  0.60317248  0.37249839  0.56298858  1
  Te  Te167  1  0.57442546  0.41025621  0.88773572  1
  Te  Te168  1  0.58670308  0.76955314  0.24549552  1
  Te  Te169  1  0.59221930  0.77037748  0.56541996  1
  Te  Te170  1  0.55943773  0.80954295  0.92586320  1
  Te  Te171  1  0.90515956  0.09360917  0.26898802  1
  Te  Te172  1  0.88192567  0.09133432  0.55604399  1
  Te  Te173  1  0.89462378  0.08606106  0.91638364  1
  Te  Te174  1  0.93077082  0.42962248  0.26134878  1
  Te  Te175  1  0.92815711  0.41253490  0.58748252  1
  Te  Te176  1  0.89828065  0.40802788  0.90299892  1
  Te  Te177  1  0.93022249  0.74454558  0.25958244  1
  Te  Te178  1  0.90858907  0.74948779  0.59653386  1
  Te  Te179  1  0.92779441  0.74382334  0.92506682  1
