# generated using pymatgen
data_In2Te3
_symmetry_space_group_name_H-M   'P 1'
_cell_length_a   18.99675649
_cell_length_b   19.00664852
_cell_length_c   18.97303763
_cell_angle_alpha   90.12398441
_cell_angle_beta   90.00916535
_cell_angle_gamma   90.01742768
_symmetry_Int_Tables_number   1
_chemical_formula_structural   In2Te3
_chemical_formula_sum   'In72 Te108'
_cell_volume   6850.47719674
_cell_formula_units_Z   36
loop_
 _symmetry_equiv_pos_site_id
 _symmetry_equiv_pos_as_xyz
  1  'x, y, z'
loop_
 _atom_site_type_symbol
 _atom_site_label
 _atom_site_symmetry_multiplicity
 _atom_site_fract_x
 _atom_site_fract_y
 _atom_site_fract_z
 _atom_site_occupancy
  In  In0  1  0.36313181  0.66295902  0.31589134  1
  In  In1  1  0.67951821  0.48507483  0.83857081  1
  In  In2  1  0.34135432  0.50941752  0.16277263  1
  In  In3  1  0.84849453  0.69635834  0.15526930  1
  In  In4  1  0.00788941  0.51691530  0.84367502  1
  In  In5  1  0.67643215  0.13558976  0.51085106  1
  In  In6  1  0.00309491  -0.01229136  -0.01796168  1
  In  In7  1  0.15604631  0.57008391  0.63950853  1
  In  In8  1  -0.00677864  -0.01582069  0.33687699  1
  In  In9  1  0.82891708  0.53127287  0.33232214  1
  In  In10  1  -0.00915930  0.49580937  0.17303666  1
  In  In11  1  0.50511290  0.47944804  0.67844374  1
  In  In12  1  0.82912841  0.34124786  0.80951057  1
  In  In13  1  0.34286741  0.16995919  0.15733394  1
  In  In14  1  0.50618706  0.50296553  -0.01861075  1
  In  In15  1  0.81780664  0.84036445  0.67278305  1
  In  In16  1  0.00104426  0.81003350  0.50278748  1
  In  In17  1  0.15461326  0.17809969  0.31671394  1
  In  In18  1  0.34619867  0.49742078  0.49888820  1
  In  In19  1  -0.01001262  0.84362968  0.17603173  1
  In  In20  1  0.31422391  0.81900409  0.81730444  1
  In  In21  1  0.67609785  0.34306130  0.68348403  1
  In  In22  1  0.35056985  0.32555168  0.00136135  1
  In  In23  1  0.66336636  0.00122530  0.67663491  1
  In  In24  1  -0.00865645  0.17565359  0.51493143  1
  In  In25  1  0.33277753  0.68365770  -0.01252623  1
  In  In26  1  0.81094882  0.63481515  0.52993849  1
  In  In27  1  0.18130560  0.17562171  -0.00870615  1
  In  In28  1  0.31252084  0.34567662  0.65807401  1
  In  In29  1  0.80399045  0.00514686  0.17305298  1
  In  In30  1  0.02087156  0.82497197  0.81457687  1
  In  In31  1  0.16604106  0.81029099  0.65394401  1
  In  In32  1  0.53792419  0.67102743  0.54146634  1
  In  In33  1  -0.00062847  0.34179613  0.01661787  1
  In  In34  1  0.51842213  0.81520382  0.00431548  1
  In  In35  1  0.83507125  0.14944159  0.01285248  1
  In  In36  1  0.17189349  0.33697061  0.84359711  1
  In  In37  1  0.52281798  0.64924061  0.18114404  1
  In  In38  1  0.67635782  0.83169142  0.83558668  1
  In  In39  1  0.32363966  0.32767266  0.33031023  1
  In  In40  1  0.17162251  -0.00518597  0.51346297  1
  In  In41  1  0.78706430  0.20074604  0.31003812  1
  In  In42  1  0.49162658  0.84365556  0.38211376  1
  In  In43  1  0.30855456  0.50603079  0.81068035  1
  In  In44  1  -0.01529724  0.35930666  0.33526179  1
  In  In45  1  0.47119947  0.13001538  0.71838251  1
  In  In46  1  0.37223628  -0.01518991  0.40102434  1
  In  In47  1  0.34029908  0.85603146  0.17405346  1
  In  In48  1  0.50914165  0.31334313  0.52806440  1
  In  In49  1  0.18449383  0.13949112  0.65572004  1
  In  In50  1  0.84608680  0.65970311  0.82877613  1
  In  In51  1  0.50963694  0.16676659  -0.01138993  1
  In  In52  1  0.01081597  0.67014016  -0.00928152  1
  In  In53  1  0.21068674  0.01340267  0.14415334  1
  In  In54  1  0.82023251  0.35316310  0.48354819  1
  In  In55  1  0.67854458  0.82566238  0.15833087  1
  In  In56  1  0.66625060  0.49282879  0.16390564  1
  In  In57  1  0.49742418  0.70326829  0.77216886  1
  In  In58  1  -0.00950355  0.18094999  0.15860283  1
  In  In59  1  0.31747031  0.14786626  0.49645302  1
  In  In60  1  -0.00187169  0.34666478  0.66312632  1
  In  In61  1  0.65770421  -0.00763581  0.33240391  1
  In  In62  1  0.15364694  0.67614282  0.18159392  1
  In  In63  1  0.12756312  0.83216977  0.34610059  1
  In  In64  1  0.65456936  0.16268523  0.82618576  1
  In  In65  1  0.15055361  0.50004623  0.33650208  1
  In  In66  1  -0.00942452  0.01782749  0.69190600  1
  In  In67  1  0.53830774  0.19116205  0.31282672  1
  In  In68  1  0.66030412  0.67217699  0.36168208  1
  In  In69  1  0.81978378  0.14760369  0.68562901  1
  In  In70  1  0.66975789  0.34047482  0.00918963  1
  In  In71  1  0.34773812  -0.00502147  -0.01693832  1
  Te  Te72  1  0.09267289  0.09171625  0.08701754  1
  Te  Te73  1  0.08285774  0.08522196  0.42074814  1
  Te  Te74  1  0.09934923  0.08583270  0.76064293  1
  Te  Te75  1  0.08798550  0.43662996  0.08221728  1
  Te  Te76  1  0.08239693  0.41030197  0.43036111  1
  Te  Te77  1  0.09332143  0.42717942  0.75045479  1
  Te  Te78  1  0.08313407  0.76751922  0.08441755  1
  Te  Te79  1  0.10446641  0.71049511  0.44082590  1
  Te  Te80  1  0.07497620  0.71840746  0.72599094  1
  Te  Te81  1  0.42913817  0.07108752  0.08449249  1
  Te  Te82  1  0.43661487  0.12073452  0.40854058  1
  Te  Te83  1  0.36998146  0.02738317  0.73703654  1
  Te  Te84  1  0.43624794  0.41928960  0.08589859  1
  Te  Te85  1  0.42492469  0.39005894  0.42717276  1
  Te  Te86  1  0.40714982  0.40116173  0.76274372  1
  Te  Te87  1  0.42205468  0.74110100  0.10612491  1
  Te  Te88  1  0.42823224  0.71922987  0.43956275  1
  Te  Te89  1  0.39768305  0.78391602  0.69744601  1
  Te  Te90  1  0.72381711  0.08814643  0.08327550  1
  Te  Te91  1  0.76339173  0.08108813  0.40130077  1
  Te  Te92  1  0.75597501  0.05663931  0.78584508  1
  Te  Te93  1  0.75745097  0.44760268  0.05772569  1
  Te  Te94  1  0.73354187  0.43500324  0.39596767  1
  Te  Te95  1  0.78400508  0.45120495  0.71135342  1
  Te  Te96  1  0.76303282  0.76421856  0.05157569  1
  Te  Te97  1  0.73526415  0.74329487  0.46428789  1
  Te  Te98  1  0.74249822  0.72980684  0.74304299  1
  Te  Te99  1  0.07395955  0.27848420  0.23867623  1
  Te  Te100  1  0.09543877  0.24728986  0.59453662  1
  Te  Te101  1  0.07226020  0.25093904  0.91820473  1
  Te  Te102  1  0.05690991  0.59641094  0.26561476  1
  Te  Te103  1  0.05948067  0.59106322  0.53228753  1
  Te  Te104  1  0.11214191  0.59266044  0.91660924  1
  Te  Te105  1  0.10629376  0.93918927  0.23664529  1
  Te  Te106  1  0.06240962  0.92274595  0.58929885  1
  Te  Te107  1  0.09917622  0.91176194  0.90490559  1
  Te  Te108  1  0.42673061  0.26724335  0.23771520  1
  Te  Te109  1  0.39844361  0.23518225  0.59617652  1
  Te  Te110  1  0.39292743  0.21681955  0.91102296  1
  Te  Te111  1  0.44895854  0.54712851  0.26376080  1
  Te  Te112  1  0.42495432  0.57829408  0.59834303  1
  Te  Te113  1  0.40888919  0.58556868  0.90081372  1
  Te  Te114  1  0.42868616  0.93068714  0.26787957  1
  Te  Te115  1  0.44712946  0.91641114  0.50959792  1
  Te  Te116  1  0.41915169  0.88277938  0.91212931  1
  Te  Te117  1  0.69339797  0.26510356  0.21566815  1
  Te  Te118  1  0.75900878  0.24954377  0.58899313  1
  Te  Te119  1  0.74910789  0.25307999  0.90369591  1
  Te  Te120  1  0.74268680  0.61419729  0.23756324  1
  Te  Te121  1  0.72209891  0.54596327  0.60549134  1
  Te  Te122  1  0.76779764  0.56992906  0.91823209  1
  Te  Te123  1  0.75722002  0.89589705  0.26681065  1
  Te  Te124  1  0.74407306  0.92608528  0.57936869  1
  Te  Te125  1  0.71254712  0.88873617  0.96827271  1
  Te  Te126  1  0.24470560  0.26558520  0.09428400  1
  Te  Te127  1  0.23277318  0.25201621  0.42498852  1
  Te  Te128  1  0.24771854  0.24542289  0.75052022  1
  Te  Te129  1  0.24940236  0.60337129  0.08912762  1
  Te  Te130  1  0.26732498  0.57798257  0.39783583  1
  Te  Te131  1  0.26570859  0.61584575  0.72385378  1
  Te  Te132  1  0.25402098  0.89809997  0.05676535  1
  Te  Te133  1  0.24541215  0.89545506  0.42402793  1
  Te  Te134  1  0.22760517  0.91351483  0.74184863  1
  Te  Te135  1  0.57931782  0.25369658  0.08781151  1
  Te  Te136  1  0.60970251  0.24829312  0.43509060  1
  Te  Te137  1  0.57010710  0.24939347  0.73671162  1
  Te  Te138  1  0.59679838  0.59137651  0.06424691  1
  Te  Te139  1  0.57045527  0.58027829  0.42999639  1
  Te  Te140  1  0.58595112  0.57476861  0.76198504  1
  Te  Te141  1  0.59338112  0.91948451  0.07920393  1
  Te  Te142  1  0.59772219  0.92510049  0.45153767  1
  Te  Te143  1  0.57776524  0.90963320  0.75602866  1
  Te  Te144  1  0.88738322  0.26724522  0.09169060  1
  Te  Te145  1  0.90778419  0.24055100  0.40520155  1
  Te  Te146  1  0.92375958  0.24211936  0.74504811  1
  Te  Te147  1  0.91735470  0.58759854  0.07662420  1
  Te  Te148  1  0.91883025  0.57634357  0.44246037  1
  Te  Te149  1  0.93816341  0.58975247  0.73702384  1
  Te  Te150  1  0.90843459  0.93161066  0.08576378  1
  Te  Te151  1  0.91337558  0.89134032  0.41546005  1
  Te  Te152  1  0.90773198  0.91694675  0.76799841  1
  Te  Te153  1  0.26589823  0.08972386  0.26374306  1
  Te  Te154  1  0.29489342  0.03524700  0.60284651  1
  Te  Te155  1  0.27043059  0.09468042  0.90573428  1
  Te  Te156  1  0.24582954  0.42343934  0.24294959  1
  Te  Te157  1  0.23094640  0.44385494  0.58101489  1
  Te  Te158  1  0.25862888  0.42396867  0.93163138  1
  Te  Te159  1  0.25377439  0.76265157  0.26036922  1
  Te  Te160  1  0.22362834  0.76207504  0.52806656  1
  Te  Te161  1  0.22715772  0.72647909  0.89492263  1
  Te  Te162  1  0.59485162  0.08110666  0.23474249  1
  Te  Te163  1  0.56349218  0.09038946  0.60343456  1
  Te  Te164  1  0.56221392  0.06921146  0.89114596  1
  Te  Te165  1  0.63248042  0.39562310  0.26824270  1
  Te  Te166  1  0.60380142  0.42585378  0.57417963  1
  Te  Te167  1  0.57566400  0.39431709  0.90211774  1
  Te  Te168  1  0.57871319  0.76426961  0.26146830  1
  Te  Te169  1  0.55717821  0.77382909  0.64941724  1
  Te  Te170  1  0.58061976  0.72849424  0.89897125  1
  Te  Te171  1  0.91771944  0.08308329  0.24701860  1
  Te  Te172  1  0.90197180  0.07367436  0.58015261  1
  Te  Te173  1  0.92485938  0.09082262  0.91499374  1
  Te  Te174  1  0.88132877  0.41808818  0.24353826  1
  Te  Te175  1  0.92680655  0.42092589  0.55794080  1
  Te  Te176  1  0.91785399  0.41359740  0.90860707  1
  Te  Te177  1  0.92226174  0.75388730  0.26942297  1
  Te  Te178  1  0.90443170  0.74259638  0.59611121  1
  Te  Te179  1  0.92116958  0.76260022  0.91276669  1
