# generated using pymatgen
data_In2Te3
_symmetry_space_group_name_H-M   'P 1'
_cell_length_a   19.01022702
_cell_length_b   19.03207430
_cell_length_c   18.99729853
_cell_angle_alpha   90.00838085
_cell_angle_beta   89.88199463
_cell_angle_gamma   89.87903258
_symmetry_Int_Tables_number   1
_chemical_formula_structural   In2Te3
_chemical_formula_sum   'In72 Te108'
_cell_volume   6873.26963052
_cell_formula_units_Z   36
loop_
 _symmetry_equiv_pos_site_id
 _symmetry_equiv_pos_as_xyz
  1  'x, y, z'
loop_
 _atom_site_type_symbol
 _atom_site_label
 _atom_site_symmetry_multiplicity
 _atom_site_fract_x
 _atom_site_fract_y
 _atom_site_fract_z
 _atom_site_occupancy
  In  In0  1  0.17461790  0.16614644  0.68955326  1
  In  In1  1  0.48827432  0.66943337  0.51722582  1
  In  In2  1  0.34861026  0.49224690  0.79299451  1
  In  In3  1  0.84517757  0.17935315  0.32880748  1
  In  In4  1  0.82233261  0.29655601  0.82244678  1
  In  In5  1  -0.00272360  0.12626832  0.84317509  1
  In  In6  1  0.81907530  0.84615767  0.00507895  1
  In  In7  1  0.67933547  0.85051483  0.16546639  1
  In  In8  1  0.14883858  0.17321846  0.32197571  1
  In  In9  1  0.83721255  0.51600370  0.36314546  1
  In  In10  1  0.51397460  0.00381260  0.15236848  1
  In  In11  1  0.14144559  0.00848010  0.16832572  1
  In  In12  1  0.31247221  0.18534523  0.86888646  1
  In  In13  1  -0.00513666  0.84329327  0.15355595  1
  In  In14  1  0.83287541  0.82910629  0.33773985  1
  In  In15  1  0.16730082  0.33122036  0.84410062  1
  In  In16  1  0.49703652  0.86970462  0.67889469  1
  In  In17  1  0.16919311  -0.04106397  0.82516075  1
  In  In18  1  -0.00611331  0.48656331  0.15585224  1
  In  In19  1  0.66948429  0.49692256  0.82773481  1
  In  In20  1  0.34515879  0.82570208  0.83002958  1
  In  In21  1  0.66212319  0.50002074  0.19985779  1
  In  In22  1  -0.01514106  -0.02767085  0.32682515  1
  In  In23  1  0.83443171  0.00082717  0.49516108  1
  In  In24  1  0.54026065  0.47302485  0.63233874  1
  In  In25  1  -0.00821531  0.34148119  0.64917773  1
  In  In26  1  0.50795390  0.52799102  -0.00148946  1
  In  In27  1  0.19415965  0.36992359  0.52399318  1
  In  In28  1  0.14885138  0.63443500  0.49636321  1
  In  In29  1  0.34902185  0.66107332  0.69235328  1
  In  In30  1  0.66449356  0.15437076  0.84736040  1
  In  In31  1  0.48049309  0.65708139  0.16027822  1
  In  In32  1  -0.00300944  0.17023429  0.16919234  1
  In  In33  1  0.85336612  0.79563840  0.63389946  1
  In  In34  1  0.51017108  0.31392348  0.84403740  1
  In  In35  1  0.30727373  0.03252613  0.31802240  1
  In  In36  1  0.16877926  0.82340284  0.65627570  1
  In  In37  1  0.83006620  0.35621937  0.17532197  1
  In  In38  1  0.16790151  0.00688181  0.50802081  1
  In  In39  1  0.50374427  0.02166164  0.83212642  1
  In  In40  1  0.00709942  0.49468284  0.81552066  1
  In  In41  1  0.80983570  0.51181962  0.00067631  1
  In  In42  1  0.67040911  0.67556285  0.31903727  1
  In  In43  1  0.52168015  0.30797965  0.14233052  1
  In  In44  1  0.80881365  0.16158700  0.65414193  1
  In  In45  1  0.67513430  0.65418901  0.66755660  1
  In  In46  1  -0.00627955  0.35516852  -0.02160461  1
  In  In47  1  0.34266756  0.81952982  0.17228780  1
  In  In48  1  0.17021645  0.47979119  0.34466901  1
  In  In49  1  0.67449378  0.32299155  0.34308484  1
  In  In50  1  0.34111679  0.33683064  0.33597690  1
  In  In51  1  0.33336512  0.48429111  0.17235081  1
  In  In52  1  0.15279154  0.66321639  0.85449225  1
  In  In53  1  0.65674403  0.17467779  0.51555607  1
  In  In54  1  0.48762849  0.49487048  0.36468882  1
  In  In55  1  0.84518630  0.67333510  0.84057814  1
  In  In56  1  0.82992872  0.49442704  0.64307237  1
  In  In57  1  0.01307663  0.68650316  0.34435858  1
  In  In58  1  0.16370397  0.83475850  -0.00427604  1
  In  In59  1  0.34074874  0.01265942  0.00136999  1
  In  In60  1  0.49254982  0.16983701  0.65951577  1
  In  In61  1  0.50295332  0.85443070  0.34948248  1
  In  In62  1  0.82695463  0.15519558  -0.00261640  1
  In  In63  1  -0.02416636  0.84776632  0.82827898  1
  In  In64  1  0.66548258  0.84199270  0.49150813  1
  In  In65  1  0.67124026  -0.00689084  -0.00106596  1
  In  In66  1  0.50548284  0.15343152  0.30334893  1
  In  In67  1  0.34993356  0.85912940  0.51093368  1
  In  In68  1  0.33867582  0.17445143  0.50185415  1
  In  In69  1  0.18131443  0.66201870  0.17472927  1
  In  In70  1  0.17131500  0.49583225  -0.00135527  1
  In  In71  1  -0.01309278  0.18747523  0.49108862  1
  Te  Te72  1  0.06273400  0.08383041  0.07214501  1
  Te  Te73  1  0.06594847  0.07618163  0.40523826  1
  Te  Te74  1  0.08530425  0.05605347  0.74231158  1
  Te  Te75  1  0.09456270  0.39697045  0.08317367  1
  Te  Te76  1  0.08164410  0.41832192  0.44474492  1
  Te  Te77  1  0.09845909  0.41220382  0.73110540  1
  Te  Te78  1  0.08720398  0.74096399  0.08553687  1
  Te  Te79  1  0.11297152  0.75588748  0.42401628  1
  Te  Te80  1  0.08057347  0.75661770  0.76176529  1
  Te  Te81  1  0.41007572  0.09374943  0.09996596  1
  Te  Te82  1  0.41618010  0.08457416  0.40837311  1
  Te  Te83  1  0.40289532  0.10739620  0.76415674  1
  Te  Te84  1  0.43451762  0.41991541  0.08295116  1
  Te  Te85  1  0.41712242  0.39529972  0.44706253  1
  Te  Te86  1  0.44857190  0.39732101  0.73286690  1
  Te  Te87  1  0.41344155  0.74786226  0.06315077  1
  Te  Te88  1  0.41254987  0.75407138  0.41778411  1
  Te  Te89  1  0.45310448  0.74719500  0.75924140  1
  Te  Te90  1  0.75646737  0.06781965  0.09154646  1
  Te  Te91  1  0.75248810  0.10109424  0.41962148  1
  Te  Te92  1  0.76686316  0.07960597  0.76813054  1
  Te  Te93  1  0.72550477  0.41949249  0.08677006  1
  Te  Te94  1  0.71870643  0.44085616  0.42253548  1
  Te  Te95  1  0.75248296  0.40482111  0.74168032  1
  Te  Te96  1  0.75496453  0.74915836  0.09508103  1
  Te  Te97  1  0.75435445  0.73718218  0.42890070  1
  Te  Te98  1  0.75755794  0.75236966  0.74586382  1
  Te  Te99  1  0.05046275  0.26449958  0.26586882  1
  Te  Te100  1  0.09653266  0.24231225  0.58196114  1
  Te  Te101  1  0.07092048  0.24085351  0.91574969  1
  Te  Te102  1  0.08300502  0.57357297  0.25251421  1
  Te  Te103  1  0.05805304  0.60176553  0.60538675  1
  Te  Te104  1  0.05914347  0.57473757  0.93312748  1
  Te  Te105  1  0.09445783  0.89614718  0.25680615  1
  Te  Te106  1  0.08223673  0.91770369  0.58504112  1
  Te  Te107  1  0.06297797  0.92407433  0.92860742  1
  Te  Te108  1  0.41122286  0.24978370  0.23388138  1
  Te  Te109  1  0.42201238  0.26985256  0.57539703  1
  Te  Te110  1  0.41775686  0.25869703  0.95230652  1
  Te  Te111  1  0.40579244  0.57771830  0.26574031  1
  Te  Te112  1  0.41206690  0.56076061  0.58855244  1
  Te  Te113  1  0.40353808  0.58301504  0.90073361  1
  Te  Te114  1  0.40879777  0.93216490  0.25256025  1
  Te  Te115  1  0.44331742  0.95248756  0.57217810  1
  Te  Te116  1  0.42496084  0.92008842  0.91666045  1
  Te  Te117  1  0.74407772  0.24662036  0.23389458  1
  Te  Te118  1  0.74672676  0.27358358  0.58179938  1
  Te  Te119  1  0.73276188  0.25856703  0.93736008  1
  Te  Te120  1  0.77383710  0.58964252  0.24727801  1
  Te  Te121  1  0.74979344  0.58775589  0.56254030  1
  Te  Te122  1  0.72936702  0.60688930  0.91230617  1
  Te  Te123  1  0.73113919  0.92136331  0.28431260  1
  Te  Te124  1  0.75642028  0.91186117  0.58898075  1
  Te  Te125  1  0.72331385  0.89455473  0.90371235  1
  Te  Te126  1  0.27357092  0.25798638  -0.00402039  1
  Te  Te127  1  0.23491025  0.25225889  0.41986059  1
  Te  Te128  1  0.26539703  0.27032935  0.74590056  1
  Te  Te129  1  0.26649956  0.58224117  0.07789561  1
  Te  Te130  1  0.26053551  0.56694078  0.42392728  1
  Te  Te131  1  0.23220105  0.58463265  0.75294402  1
  Te  Te132  1  0.24763715  0.91741115  0.09064023  1
  Te  Te133  1  0.25356023  0.92692988  0.41250205  1
  Te  Te134  1  0.27456328  0.91139344  0.72853025  1
  Te  Te135  1  0.58950499  0.21243485  0.05751301  1
  Te  Te136  1  0.56855705  0.24085358  0.41062276  1
  Te  Te137  1  0.59850787  0.24271751  0.74469784  1
  Te  Te138  1  0.60527117  0.59704470  0.09908753  1
  Te  Te139  1  0.58039315  0.59939996  0.41947494  1
  Te  Te140  1  0.57162784  0.57363211  0.74197870  1
  Te  Te141  1  0.57346899  0.89457151  0.06758238  1
  Te  Te142  1  0.60470317  0.94466473  0.40477005  1
  Te  Te143  1  0.59749741  0.92773687  0.76849313  1
  Te  Te144  1  0.90936734  0.27206644  0.07414413  1
  Te  Te145  1  0.89372244  0.27767663  0.42520987  1
  Te  Te146  1  0.94495654  0.24159050  0.75346799  1
  Te  Te147  1  0.91325033  0.57896988  0.07774301  1
  Te  Te148  1  0.92514930  0.61024216  0.43899597  1
  Te  Te149  1  0.91200955  0.58316107  0.73955683  1
  Te  Te150  1  0.89406936  0.93287327  0.09816077  1
  Te  Te151  1  0.92603071  0.89220976  0.43967063  1
  Te  Te152  1  0.91325342  0.90583061  0.71038723  1
  Te  Te153  1  0.23798280  0.11842043  0.21352910  1
  Te  Te154  1  0.26275197  0.08359699  0.59615187  1
  Te  Te155  1  0.22851534  0.06473443  0.91511404  1
  Te  Te156  1  0.23658288  0.39084238  0.23963715  1
  Te  Te157  1  0.26967179  0.48604149  0.56785633  1
  Te  Te158  1  0.26846764  0.42495513  0.90704771  1
  Te  Te159  1  0.25948661  0.74469299  0.26481937  1
  Te  Te160  1  0.28008461  0.74581946  0.58784321  1
  Te  Te161  1  0.26020908  0.74252749  0.92405176  1
  Te  Te162  1  0.60970514  0.07667189  0.23553958  1
  Te  Te163  1  0.59299326  0.07772851  0.60429128  1
  Te  Te164  1  0.56127825  0.10402215  0.95003854  1
  Te  Te165  1  0.56116071  0.40572204  0.26153163  1
  Te  Te166  1  0.63481785  0.39772439  0.54940315  1
  Te  Te167  1  0.58682262  0.41648172  0.92370412  1
  Te  Te168  1  0.56457410  0.75853881  0.24763438  1
  Te  Te169  1  0.58264508  0.76076748  0.59136218  1
  Te  Te170  1  0.51423785  0.67311082  0.95222766  1
  Te  Te171  1  0.90777596  0.07066042  0.24333022  1
  Te  Te172  1  0.92122191  0.08857235  0.58469491  1
  Te  Te173  1  0.87890125  0.05851916  0.89712679  1
  Te  Te174  1  0.92040700  0.42353172  0.27426899  1
  Te  Te175  1  0.92489616  0.42662196  0.55096565  1
  Te  Te176  1  0.88826300  0.42389200  0.89403232  1
  Te  Te177  1  0.91785535  0.74763891  0.24352797  1
  Te  Te178  1  0.95877636  0.70604032  0.56744167  1
  Te  Te179  1  0.92558505  0.75486374  0.93557615  1
