# generated using pymatgen
data_In2Te3
_symmetry_space_group_name_H-M   'P 1'
_cell_length_a   19.01585103
_cell_length_b   19.00528334
_cell_length_c   18.99698469
_cell_angle_alpha   90.03039985
_cell_angle_beta   90.08517578
_cell_angle_gamma   89.94959346
_symmetry_Int_Tables_number   1
_chemical_formula_structural   In2Te3
_chemical_formula_sum   'In72 Te108'
_cell_volume   6865.53015437
_cell_formula_units_Z   36
loop_
 _symmetry_equiv_pos_site_id
 _symmetry_equiv_pos_as_xyz
  1  'x, y, z'
loop_
 _atom_site_type_symbol
 _atom_site_label
 _atom_site_symmetry_multiplicity
 _atom_site_fract_x
 _atom_site_fract_y
 _atom_site_fract_z
 _atom_site_occupancy
  In  In0  1  0.83703198  0.17707989  0.34105096  1
  In  In1  1  0.53105502  0.00301967  0.18601990  1
  In  In2  1  0.30578257  0.01275005  0.35771125  1
  In  In3  1  0.31633780  0.02595062  0.62068419  1
  In  In4  1  0.50191185  0.81912317  0.67767572  1
  In  In5  1  0.18070957  0.51127366  -0.00713734  1
  In  In6  1  0.32796346  -0.01542597  -0.00239647  1
  In  In7  1  0.52063328  0.14492541  0.01489084  1
  In  In8  1  0.68248333  0.34373938  0.35098076  1
  In  In9  1  0.15544811  0.15366607  0.00487398  1
  In  In10  1  0.33106133  0.84806180  0.82755051  1
  In  In11  1  0.83596154  0.18981498  0.64665636  1
  In  In12  1  0.50419227  0.48220443  0.35522190  1
  In  In13  1  0.00140286  0.00678457  0.34188610  1
  In  In14  1  0.36164265  0.50361948  0.53096733  1
  In  In15  1  0.50861867  0.63505335  0.80486274  1
  In  In16  1  0.16308919  0.29964593  0.17235750  1
  In  In17  1  0.33770432  0.18296468  0.82994942  1
  In  In18  1  0.33990486  0.34617193  0.01886300  1
  In  In19  1  -0.00216789  -0.00799035  0.01949769  1
  In  In20  1  0.50410297  0.01189305  0.48490307  1
  In  In21  1  -0.01678705  0.34979385  0.66296873  1
  In  In22  1  0.48991297  0.83084905  0.34763973  1
  In  In23  1  0.01313085  0.32693782  0.31969315  1
  In  In24  1  0.49455387  0.65753157  0.19027210  1
  In  In25  1  0.51907696  0.32524202  0.82544759  1
  In  In26  1  0.68115787  0.00188566  0.00668939  1
  In  In27  1  0.66088056  0.84219607  0.84256240  1
  In  In28  1  0.14945749  0.32880779  0.80209997  1
  In  In29  1  0.85241490  0.02890690  0.80512536  1
  In  In30  1  0.50453953  0.48494228  -0.00326655  1
  In  In31  1  -0.00849381  0.83281168  0.84642724  1
  In  In32  1  0.32512482  0.50328415  0.81547417  1
  In  In33  1  0.81603077  0.50217518  0.66938818  1
  In  In34  1  0.37867808  0.16027631  0.22598443  1
  In  In35  1  0.00199787  0.83521823  0.18050542  1
  In  In36  1  0.17946642  0.49499607  0.32566899  1
  In  In37  1  0.85152674  0.84565074  0.00890205  1
  In  In38  1  0.00670056  0.66574684  0.64859560  1
  In  In39  1  0.00935949  0.50646230  0.15208389  1
  In  In40  1  0.14031034  0.83749364  0.01275979  1
  In  In41  1  0.16490299  0.66510421  0.50313775  1
  In  In42  1  0.83364925  0.69190619  0.82083286  1
  In  In43  1  0.66746473  0.33125854  0.66541146  1
  In  In44  1  0.82694695  0.01629451  0.48610585  1
  In  In45  1  0.67037899  0.15893971  0.48283460  1
  In  In46  1  0.32973970  0.83181100  0.48648356  1
  In  In47  1  0.17055510  0.83016844  0.64723537  1
  In  In48  1  0.67132003  0.50376788  0.17670711  1
  In  In49  1  0.68157461  0.66415883  -0.02276662  1
  In  In50  1  0.68029952  0.69494308  0.33362017  1
  In  In51  1  0.32429879  0.66136543  0.02821831  1
  In  In52  1  0.82593348  0.15449754  0.01614844  1
  In  In53  1  0.84279048  0.33950544  0.14636798  1
  In  In54  1  0.51381037  0.30650122  0.50099419  1
  In  In55  1  -0.01434567  0.32905251  -0.01155463  1
  In  In56  1  0.00298269  0.17985480  0.49648303  1
  In  In57  1  0.19149292  0.32760384  0.47314608  1
  In  In58  1  -0.00415379  0.85393958  0.50305875  1
  In  In59  1  0.84197283  0.51244408  -0.02359712  1
  In  In60  1  0.49615517  0.01646752  0.83823283  1
  In  In61  1  0.67773674  0.50079131  0.50053560  1
  In  In62  1  -0.01968641  0.63394074  0.37354252  1
  In  In63  1  0.33736711  0.30946439  0.64487657  1
  In  In64  1  0.82381300  0.84044003  0.66617944  1
  In  In65  1  0.65524925  0.30628041  -0.00305567  1
  In  In66  1  0.32925126  0.83613894  0.17173238  1
  In  In67  1  0.13472130  0.03903207  0.78258508  1
  In  In68  1  0.17195437  0.65409765  0.84742358  1
  In  In69  1  0.81908037  0.70371709  0.16784255  1
  In  In70  1  0.34096166  0.67821762  0.32723713  1
  In  In71  1  0.66791216  0.83313871  0.50821442  1
  Te  Te72  1  0.08874954  0.06968076  0.10262797  1
  Te  Te73  1  0.09271473  0.07294786  0.44305771  1
  Te  Te74  1  0.03411790  0.12387122  0.72096238  1
  Te  Te75  1  0.09327824  0.39978140  0.07990472  1
  Te  Te76  1  0.08475992  0.42092875  0.41572486  1
  Te  Te77  1  0.07325012  0.43618290  0.74186115  1
  Te  Te78  1  0.06709578  0.73947218  0.08905985  1
  Te  Te79  1  0.07138064  0.74888116  0.42145089  1
  Te  Te80  1  0.08852343  0.75806941  0.75547648  1
  Te  Te81  1  0.41399279  0.06756866  0.08935001  1
  Te  Te82  1  0.39660214  0.10521879  0.43519489  1
  Te  Te83  1  0.40317594  0.08059324  0.73924501  1
  Te  Te84  1  0.42645657  0.42609110  0.10433221  1
  Te  Te85  1  0.40913245  0.39502780  0.43469553  1
  Te  Te86  1  0.40860283  0.39709726  0.74921791  1
  Te  Te87  1  0.42659836  0.75236360  0.09095865  1
  Te  Te88  1  0.43144253  0.72690996  0.43863300  1
  Te  Te89  1  0.40184853  0.73648408  0.75577804  1
  Te  Te90  1  0.73708412  0.08642789  0.11096108  1
  Te  Te91  1  0.73536762  0.07056328  0.37758153  1
  Te  Te92  1  0.75217832  0.10188977  0.72967873  1
  Te  Te93  1  0.74371416  0.42609088  0.06728843  1
  Te  Te94  1  0.77378456  0.45113686  0.39658689  1
  Te  Te95  1  0.76756001  0.39200789  0.75337850  1
  Te  Te96  1  0.72776653  0.77802716  0.06264352  1
  Te  Te97  1  0.76750528  0.75153142  0.43710790  1
  Te  Te98  1  0.72340738  0.75218159  0.73688464  1
  Te  Te99  1  0.10960719  0.21984877  0.28480500  1
  Te  Te100  1  0.08637325  0.28002730  0.57192544  1
  Te  Te101  1  0.08127717  0.24247347  0.90856652  1
  Te  Te102  1  0.07745289  0.58539600  0.26203077  1
  Te  Te103  1  0.08455608  0.56755409  0.57512573  1
  Te  Te104  1  0.07330880  0.57831050  0.92199555  1
  Te  Te105  1  0.08890841  0.92120937  0.26002062  1
  Te  Te106  1  0.09103451  0.93319056  0.58223527  1
  Te  Te107  1  0.09090809  0.93198600  0.90273941  1
  Te  Te108  1  0.38465357  0.29981976  0.26558628  1
  Te  Te109  1  0.44443483  0.22064783  0.59800610  1
  Te  Te110  1  0.43065125  0.24815545  0.93058431  1
  Te  Te111  1  0.40815170  0.55935475  0.26152031  1
  Te  Te112  1  0.44791095  0.57059867  0.62982182  1
  Te  Te113  1  0.40353721  0.57677971  0.92480333  1
  Te  Te114  1  0.40957932  0.92770361  0.26360168  1
  Te  Te115  1  0.41715080  0.91645902  0.58012028  1
  Te  Te116  1  0.43364479  0.90716854  0.92178841  1
  Te  Te117  1  0.75578455  0.26392255  0.24354493  1
  Te  Te118  1  0.74862222  0.26834695  0.55122854  1
  Te  Te119  1  0.75707502  0.23958096  0.91942501  1
  Te  Te120  1  0.76171475  0.58987658  0.25536524  1
  Te  Te121  1  0.74510595  0.59951204  0.58568885  1
  Te  Te122  1  0.74580998  0.57816969  0.87580469  1
  Te  Te123  1  0.73985993  0.80750227  0.24618450  1
  Te  Te124  1  0.74307046  0.94062061  0.58739803  1
  Te  Te125  1  0.77865403  0.92064133  0.89706813  1
  Te  Te126  1  0.26337922  0.23156552  0.08016208  1
  Te  Te127  1  0.28038660  0.20751178  0.45982841  1
  Te  Te128  1  0.23662980  0.22999760  0.72765957  1
  Te  Te129  1  0.24301473  0.57308976  0.10915989  1
  Te  Te130  1  0.26555635  0.57515169  0.42288016  1
  Te  Te131  1  0.23500472  0.58480033  0.73621024  1
  Te  Te132  1  0.23081623  0.92539259  0.09628613  1
  Te  Te133  1  0.22869127  0.89851867  0.40626919  1
  Te  Te134  1  0.25056795  0.93543248  0.73426961  1
  Te  Te135  1  0.56659618  0.25448886  0.09945006  1
  Te  Te136  1  0.57947378  0.23632353  0.38425723  1
  Te  Te137  1  0.58531430  0.23128153  0.73689423  1
  Te  Te138  1  0.58917309  0.59501072  0.08252789  1
  Te  Te139  1  0.59037055  0.58916396  0.41034066  1
  Te  Te140  1  0.56955497  0.53854931  0.71643314  1
  Te  Te141  1  0.57955384  0.92238635  0.07590186  1
  Te  Te142  1  0.59512376  0.92195068  0.40431700  1
  Te  Te143  1  0.58138287  0.92854582  0.74721402  1
  Te  Te144  1  0.93609496  0.23417788  0.09418075  1
  Te  Te145  1  0.91327444  0.27741237  0.42340629  1
  Te  Te146  1  0.93386796  0.23813289  0.75128966  1
  Te  Te147  1  0.89773099  0.58930517  0.09219064  1
  Te  Te148  1  0.89261947  0.54895223  0.45736684  1
  Te  Te149  1  0.91985303  0.59340946  0.74780012  1
  Te  Te150  1  0.89883900  0.93476597  0.11871810  1
  Te  Te151  1  0.89793188  0.91253070  0.40315008  1
  Te  Te152  1  0.93247282  0.91843891  0.73700229  1
  Te  Te153  1  0.24514873  0.10571037  0.26021689  1
  Te  Te154  1  0.21153666  0.10227160  0.54854975  1
  Te  Te155  1  0.25414426  0.08110840  0.90720747  1
  Te  Te156  1  0.25540213  0.38200014  0.25959628  1
  Te  Te157  1  0.25014056  0.41749942  0.58541288  1
  Te  Te158  1  0.24770097  0.39881461  0.90894889  1
  Te  Te159  1  0.24200872  0.74822606  0.24812051  1
  Te  Te160  1  0.27012923  0.73465605  0.58772579  1
  Te  Te161  1  0.25451099  0.76450946  0.93010065  1
  Te  Te162  1  0.51776592  0.12189177  0.26835129  1
  Te  Te163  1  0.58601462  0.08798028  0.57881082  1
  Te  Te164  1  0.60954814  0.09012026  0.90597072  1
  Te  Te165  1  0.58475551  0.40700219  0.25092958  1
  Te  Te166  1  0.57569523  0.41894199  0.58112268  1
  Te  Te167  1  0.60250564  0.42289499  0.90402280  1
  Te  Te168  1  0.57710426  0.77363781  0.23799663  1
  Te  Te169  1  0.57315872  0.74319233  0.57642358  1
  Te  Te170  1  0.57053005  0.73539658  0.90232493  1
  Te  Te171  1  0.93586364  0.10904465  0.25876326  1
  Te  Te172  1  0.92372707  0.08101817  0.58207301  1
  Te  Te173  1  0.92673756  0.08552683  0.92430350  1
  Te  Te174  1  0.92232306  0.42359577  0.24370014  1
  Te  Te175  1  0.90723500  0.43882243  0.56679831  1
  Te  Te176  1  0.90650848  0.40955287  0.89634445  1
  Te  Te177  1  0.93020254  0.73425917  0.26932777  1
  Te  Te178  1  0.90781743  0.75326744  0.57518403  1
  Te  Te179  1  0.92287636  0.73384435  0.93690869  1
