# generated using pymatgen
data_In2Te3
_symmetry_space_group_name_H-M   'P 1'
_cell_length_a   19.03239671
_cell_length_b   19.01811898
_cell_length_c   18.99118669
_cell_angle_alpha   89.80977042
_cell_angle_beta   89.90958480
_cell_angle_gamma   90.00791263
_symmetry_Int_Tables_number   1
_chemical_formula_structural   In2Te3
_chemical_formula_sum   'In72 Te108'
_cell_volume   6874.01073196
_cell_formula_units_Z   36
loop_
 _symmetry_equiv_pos_site_id
 _symmetry_equiv_pos_as_xyz
  1  'x, y, z'
loop_
 _atom_site_type_symbol
 _atom_site_label
 _atom_site_symmetry_multiplicity
 _atom_site_fract_x
 _atom_site_fract_y
 _atom_site_fract_z
 _atom_site_occupancy
  In  In0  1  0.00727465  0.34136701  -0.02002741  1
  In  In1  1  0.67542218  0.49767432  0.47512406  1
  In  In2  1  0.32059520  0.83366541  0.50689389  1
  In  In3  1  0.83851987  0.85871268  0.67430855  1
  In  In4  1  0.32928911  0.00729577  0.35477294  1
  In  In5  1  0.50160068  0.48943850  0.30576770  1
  In  In6  1  0.67446756  0.84516053  0.15626093  1
  In  In7  1  0.49527908  0.17477014  0.64335020  1
  In  In8  1  0.81357369  0.49110071  0.64058570  1
  In  In9  1  0.00693135  0.16493339  0.18682463  1
  In  In10  1  0.30446643  0.51906046  0.57149157  1
  In  In11  1  0.17505323  0.16445843  0.33385947  1
  In  In12  1  0.66355322  0.31671396  0.67448915  1
  In  In13  1  0.81792884  0.04092707  0.57954135  1
  In  In14  1  0.81461874  0.82956280  0.34017087  1
  In  In15  1  0.00282749  0.48174580  0.14231289  1
  In  In16  1  0.82618941  0.30931451  0.16154982  1
  In  In17  1  0.49765382  0.01561203  0.16638852  1
  In  In18  1  0.00563830  0.65781431  0.65821684  1
  In  In19  1  -0.00089344  0.50529649  0.84350933  1
  In  In20  1  0.84996141  0.48093975  -0.01333877  1
  In  In21  1  0.52110320  0.48790040  0.68788093  1
  In  In22  1  0.84129741  0.06819774  0.78697853  1
  In  In23  1  0.65631601  0.02865702  -0.01144187  1
  In  In24  1  0.18800519  0.51293610  0.34728835  1
  In  In25  1  0.64696629  0.30044300  0.02599696  1
  In  In26  1  0.34029221  0.51129872  0.15292014  1
  In  In27  1  0.32611909  0.82709414  0.18401558  1
  In  In28  1  0.65932369  0.67277022  -0.02020095  1
  In  In29  1  0.82941080  0.50111902  0.33101729  1
  In  In30  1  0.82224526  0.66099717  0.47523786  1
  In  In31  1  0.66314294  0.34602810  0.33265277  1
  In  In32  1  0.67334054  0.15706848  0.53113196  1
  In  In33  1  0.30927114  -0.02029014  0.66473071  1
  In  In34  1  0.83774369  0.82556302  0.00521058  1
  In  In35  1  0.01576658  0.33679444  0.35341746  1
  In  In36  1  0.34565320  0.51235596  0.79786187  1
  In  In37  1  0.14747336  0.00137690  0.52088655  1
  In  In38  1  0.81343453  0.16703347  -0.00953136  1
  In  In39  1  0.00180064  0.81040084  0.47703710  1
  In  In40  1  0.00995682  0.67983027  0.34614223  1
  In  In41  1  0.51459578  0.65849388  0.15938955  1
  In  In42  1  0.66769420  0.66472044  0.31454726  1
  In  In43  1  0.50223007  0.46977651  -0.02960208  1
  In  In44  1  0.50559036  0.13570724  0.33673551  1
  In  In45  1  0.16452325  0.67625079  0.17824561  1
  In  In46  1  0.33102935  0.01661378  0.00124043  1
  In  In47  1  0.15575139  0.17303431  0.01171987  1
  In  In48  1  0.48721392  0.32220535  0.49214338  1
  In  In49  1  -0.00121366  -0.00356132  0.32394621  1
  In  In50  1  0.36209374  0.15636958  0.17127305  1
  In  In51  1  -0.02258461  0.83183139  0.19134723  1
  In  In52  1  0.33880917  0.31851447  0.30385234  1
  In  In53  1  0.50286268  0.01067161  0.83762055  1
  In  In54  1  0.67304692  0.86157803  0.81529393  1
  In  In55  1  0.49494027  0.90101643  0.40664516  1
  In  In56  1  0.00271978  0.30189918  0.68048170  1
  In  In57  1  0.50351534  0.69811658  0.76022683  1
  In  In58  1  0.33002934  0.66150217  -0.02337202  1
  In  In59  1  0.84388535  0.67025993  0.85353407  1
  In  In60  1  0.18904090  0.82392730  -0.01683797  1
  In  In61  1  0.03328209  0.48239402  0.52305553  1
  In  In62  1  0.16804055  0.34093293  0.83878434  1
  In  In63  1  0.47422178  0.71982087  0.56091371  1
  In  In64  1  0.16203224  0.81969323  0.66318475  1
  In  In65  1  0.32857378  0.33550926  -0.01181673  1
  In  In66  1  0.34000335  0.17389017  0.84337054  1
  In  In67  1  0.46662269  0.84872796  -0.02741439  1
  In  In68  1  0.84387957  0.18961806  0.35195330  1
  In  In69  1  0.15118433  0.15605377  0.68379896  1
  In  In70  1  0.00998824  0.66348383  -0.00773460  1
  In  In71  1  0.00556089  -0.01659020  0.00416890  1
  Te  Te72  1  0.08729836  0.07083328  0.10013458  1
  Te  Te73  1  0.07499260  0.08747467  0.41762116  1
  Te  Te74  1  0.05748968  0.04926770  0.73041886  1
  Te  Te75  1  0.10249435  0.41407603  0.06213534  1
  Te  Te76  1  0.12570905  0.40332493  0.43317573  1
  Te  Te77  1  0.08024916  0.42292098  0.74334418  1
  Te  Te78  1  0.07841643  0.76510958  0.08907911  1
  Te  Te79  1  0.11707889  0.72731717  0.43538525  1
  Te  Te80  1  0.07595211  0.74070471  0.75395762  1
  Te  Te81  1  0.44555222  0.10255310  0.05080478  1
  Te  Te82  1  0.39617159  0.11296694  0.43249568  1
  Te  Te83  1  0.40491104  0.08434249  0.73848196  1
  Te  Te84  1  0.42436724  0.40764163  0.08468692  1
  Te  Te85  1  0.40995447  0.41341198  0.39928764  1
  Te  Te86  1  0.42141350  0.39687707  0.74603179  1
  Te  Te87  1  0.41223286  0.74739268  0.07806904  1
  Te  Te88  1  0.43510806  0.76422595  0.42314699  1
  Te  Te89  1  0.36905248  0.75516252  0.75292790  1
  Te  Te90  1  0.73222046  0.09844537  0.09041085  1
  Te  Te91  1  0.77296882  0.08824183  0.43827458  1
  Te  Te92  1  0.72924306  0.08490223  0.69111583  1
  Te  Te93  1  0.75328729  0.40692149  0.07519265  1
  Te  Te94  1  0.77446148  0.39537959  0.42449662  1
  Te  Te95  1  0.74065808  0.42010868  0.74430178  1
  Te  Te96  1  0.74887358  0.73362128  0.08597561  1
  Te  Te97  1  0.71408525  0.75550925  0.42686750  1
  Te  Te98  1  0.76258983  0.75399252  0.75726182  1
  Te  Te99  1  0.09994571  0.26556489  0.24848107  1
  Te  Te100  1  0.08820262  0.23929220  0.57918239  1
  Te  Te101  1  0.07620459  0.23450773  0.89814716  1
  Te  Te102  1  0.07145698  0.57089638  0.25133620  1
  Te  Te103  1  0.10048513  0.61015450  0.55474809  1
  Te  Te104  1  0.09964863  0.59028609  0.90472154  1
  Te  Te105  1  0.08537261  0.89573162  0.26412945  1
  Te  Te106  1  0.05654111  0.89972513  0.58508149  1
  Te  Te107  1  0.10393969  0.92186408  0.91363980  1
  Te  Te108  1  0.46563448  0.25144991  0.23562998  1
  Te  Te109  1  0.40341364  0.28518032  0.60695006  1
  Te  Te110  1  0.43062533  0.26422464  0.91257715  1
  Te  Te111  1  0.41035706  0.60011939  0.25205751  1
  Te  Te112  1  0.44797838  0.57506685  0.58312993  1
  Te  Te113  1  0.43483204  0.58630953  0.89909599  1
  Te  Te114  1  0.41984342  0.91854227  0.26221416  1
  Te  Te115  1  0.41382449  0.92206059  0.57753427  1
  Te  Te116  1  0.37887220  0.93090547  0.88530527  1
  Te  Te117  1  0.73367578  0.23667514  0.25446933  1
  Te  Te118  1  0.76905732  0.24096387  0.60353914  1
  Te  Te119  1  0.73771825  0.26499070  0.91232932  1
  Te  Te120  1  0.73633014  0.56122839  0.23605992  1
  Te  Te121  1  0.72662719  0.59776905  0.57630478  1
  Te  Te122  1  0.74892334  0.57005106  0.91318342  1
  Te  Te123  1  0.73880043  0.92627546  0.25933845  1
  Te  Te124  1  0.74293862  0.91014824  0.57407880  1
  Te  Te125  1  0.74878351  0.92289025  0.92902169  1
  Te  Te126  1  0.26364124  0.24284261  0.09041997  1
  Te  Te127  1  0.27823842  0.23650588  0.41110958  1
  Te  Te128  1  0.24998805  0.25216784  0.74998228  1
  Te  Te129  1  0.23824487  0.59206629  0.07580686  1
  Te  Te130  1  0.27848101  0.57968834  0.43935391  1
  Te  Te131  1  0.23656791  0.55936981  0.70663320  1
  Te  Te132  1  0.25394044  0.91625420  0.08559157  1
  Te  Te133  1  0.22832903  0.91780552  0.42199822  1
  Te  Te134  1  0.19577745  0.93692234  0.74948401  1
  Te  Te135  1  0.55610525  0.22276269  0.11044644  1
  Te  Te136  1  0.59365245  0.23973341  0.42058839  1
  Te  Te137  1  0.57748710  0.22593695  0.75433011  1
  Te  Te138  1  0.58131488  0.57027128  0.06011755  1
  Te  Te139  1  0.57453717  0.58174717  0.40174665  1
  Te  Te140  1  0.59633509  0.58581091  0.76414232  1
  Te  Te141  1  0.56628546  0.91497702  0.06620087  1
  Te  Te142  1  0.61393307  0.94870404  0.47385626  1
  Te  Te143  1  0.56510731  0.92298143  0.73577976  1
  Te  Te144  1  0.93475192  0.24440007  0.07638197  1
  Te  Te145  1  0.94723855  0.24246877  0.44106621  1
  Te  Te146  1  0.91263387  0.19855286  0.74170571  1
  Te  Te147  1  0.91327096  0.58494199  0.07811943  1
  Te  Te148  1  0.93045166  0.56386037  0.42756560  1
  Te  Te149  1  0.90340497  0.57712834  0.74402582  1
  Te  Te150  1  0.90087829  0.92442373  0.09985319  1
  Te  Te151  1  0.91062229  0.91552571  0.41832676  1
  Te  Te152  1  0.91702377  0.94101563  0.76641043  1
  Te  Te153  1  0.25519120  0.07402272  0.24093457  1
  Te  Te154  1  0.24943374  0.09209276  0.58221933  1
  Te  Te155  1  0.23305348  0.08947486  0.91213221  1
  Te  Te156  1  0.25131710  0.42453300  0.23982075  1
  Te  Te157  1  0.21024275  0.42668046  0.63652361  1
  Te  Te158  1  0.25896908  0.44075231  0.90505406  1
  Te  Te159  1  0.25140972  0.74130271  0.27467386  1
  Te  Te160  1  0.28606624  0.74224252  0.62240686  1
  Te  Te161  1  0.26043268  0.74626751  0.87667449  1
  Te  Te162  1  0.60008996  0.04811318  0.26707151  1
  Te  Te163  1  0.55752691  0.06604351  0.55941020  1
  Te  Te164  1  0.60402027  0.11086487  0.87718719  1
  Te  Te165  1  0.60992156  0.43188019  0.22616213  1
  Te  Te166  1  0.59187881  0.40782045  0.56467635  1
  Te  Te167  1  0.60520061  0.38532454  0.90924590  1
  Te  Te168  1  0.57851488  0.76547742  0.24382753  1
  Te  Te169  1  0.57479866  0.77381070  0.65051738  1
  Te  Te170  1  0.57368851  0.76898263  0.89983532  1
  Te  Te171  1  0.89930225  0.08523898  0.25267264  1
  Te  Te172  1  0.95438651  0.09253378  0.63080648  1
  Te  Te173  1  0.91352072  0.07652760  0.92518994  1
  Te  Te174  1  0.91642996  0.39991956  0.24584794  1
  Te  Te175  1  0.92474676  0.40268760  0.59057761  1
  Te  Te176  1  0.90583415  0.38986598  0.87999681  1
  Te  Te177  1  0.89366884  0.72669059  0.26069796  1
  Te  Te178  1  0.90023177  0.74302499  0.57577605  1
  Te  Te179  1  0.94057267  0.77109289  0.90967026  1
