# generated using pymatgen
data_In2Te3
_symmetry_space_group_name_H-M   'P 1'
_cell_length_a   18.76424137
_cell_length_b   18.76635034
_cell_length_c   18.76658488
_cell_angle_alpha   90.09609414
_cell_angle_beta   89.94779551
_cell_angle_gamma   89.99191406
_symmetry_Int_Tables_number   1
_chemical_formula_structural   In2Te3
_chemical_formula_sum   'In72 Te108'
_cell_volume   6608.38417455
_cell_formula_units_Z   36
loop_
 _symmetry_equiv_pos_site_id
 _symmetry_equiv_pos_as_xyz
  1  'x, y, z'
loop_
 _atom_site_type_symbol
 _atom_site_label
 _atom_site_symmetry_multiplicity
 _atom_site_fract_x
 _atom_site_fract_y
 _atom_site_fract_z
 _atom_site_occupancy
  In  In0  1  0.84334979  0.17861663  -0.00915460  1
  In  In1  1  0.00555682  0.82928679  0.17127049  1
  In  In2  1  0.52761318  0.00107506  0.80191804  1
  In  In3  1  0.49513145  0.51240750  0.65683919  1
  In  In4  1  0.50588699  -0.00634464  0.51386597  1
  In  In5  1  0.17867725  0.16349411  0.35392677  1
  In  In6  1  0.83587210  0.33716952  0.51675538  1
  In  In7  1  0.81920230  0.49365615  0.33486054  1
  In  In8  1  0.16707551  -0.00934412  0.51448305  1
  In  In9  1  0.69563796  0.33531165  -0.01363576  1
  In  In10  1  0.16878447  0.31369869  0.52127545  1
  In  In11  1  -0.01241867  0.52244915  0.14902758  1
  In  In12  1  -0.01680062  0.31578050  0.35184524  1
  In  In13  1  0.68322189  0.49818671  0.81209516  1
  In  In14  1  0.51399710  0.66952459  0.51303500  1
  In  In15  1  0.82241275  0.67412435  0.51442644  1
  In  In16  1  0.17173846  0.00805063  0.16068956  1
  In  In17  1  0.13910287  0.35211838  0.81870694  1
  In  In18  1  0.67251795  0.49580793  0.17426511  1
  In  In19  1  0.66006616  0.00462005  0.36176788  1
  In  In20  1  0.82613849  0.65466152  0.81990418  1
  In  In21  1  0.81597068  0.01250861  0.53085908  1
  In  In22  1  -0.00065670  -0.00486330  0.65112697  1
  In  In23  1  -0.02382506  0.49175223  0.52279869  1
  In  In24  1  0.33031190  0.49372175  0.80429469  1
  In  In25  1  0.34185580  0.31602514  0.65153568  1
  In  In26  1  0.18137197  0.80914893  0.33725394  1
  In  In27  1  0.16771941  0.15316147  0.67107617  1
  In  In28  1  0.51840968  0.49244765  -0.01508424  1
  In  In29  1  -0.02145525  0.18519477  0.80879201  1
  In  In30  1  0.15391596  0.50544630  0.32859932  1
  In  In31  1  0.33410623  0.48329884  0.51551223  1
  In  In32  1  0.52132762  0.31468610  0.52318749  1
  In  In33  1  0.31697044  0.31872612  -0.03214180  1
  In  In34  1  0.85637861  0.00623654  0.17436916  1
  In  In35  1  0.31968364  0.17277598  0.18177462  1
  In  In36  1  0.81702178  0.32417868  0.16959098  1
  In  In37  1  -0.04240146  0.35081339  -0.02246135  1
  In  In38  1  0.68270286  0.67678469  0.65320482  1
  In  In39  1  0.51092626  0.35481578  0.15993661  1
  In  In40  1  0.53361374  0.51676635  0.34644693  1
  In  In41  1  0.33394131  0.69942195  0.32911850  1
  In  In42  1  0.14522738  0.63909191  0.83954934  1
  In  In43  1  0.33282090  0.66956530  0.01332065  1
  In  In44  1  0.65951363  0.83107748  0.16290506  1
  In  In45  1  0.65247936  0.67074212  -0.01686884  1
  In  In46  1  0.33009107  0.85989493  0.80944333  1
  In  In47  1  0.17271901  0.82975641  -0.00811261  1
  In  In48  1  0.48652418  0.70284096  0.83269002  1
  In  In49  1  0.36163101  0.15161397  0.82310807  1
  In  In50  1  0.68018609  0.17455516  0.18555997  1
  In  In51  1  0.48893865  0.69690553  0.18459530  1
  In  In52  1  -0.01814074  0.83509631  0.81860315  1
  In  In53  1  0.65435897  -0.00239476  -0.01089167  1
  In  In54  1  0.32994268  -0.01278059  -0.01276855  1
  In  In55  1  0.48539434  -0.05384603  0.21963918  1
  In  In56  1  0.16226533  0.14337753  -0.00637447  1
  In  In57  1  0.51172137  0.15178461  0.36218083  1
  In  In58  1  0.32459958  0.53446526  0.14027904  1
  In  In59  1  0.34333900  0.83047983  0.51763333  1
  In  In60  1  -0.01466011  0.01533716  0.34560930  1
  In  In61  1  0.80650530  0.02698851  0.78722503  1
  In  In62  1  0.01927420  -0.00443826  -0.01132808  1
  In  In63  1  0.81279369  0.82192723  -0.02382627  1
  In  In64  1  0.50098015  0.14497709  -0.00830494  1
  In  In65  1  0.65788276  0.32433228  0.67564639  1
  In  In66  1  -0.01239928  0.66843650  0.66000440  1
  In  In67  1  0.13892455  0.35665346  0.17629515  1
  In  In68  1  0.17135897  0.68532403  0.50054280  1
  In  In69  1  0.32573345  0.32360731  0.34993271  1
  In  In70  1  0.01190230  0.67934470  0.32626854  1
  In  In71  1  0.83480948  0.82859279  0.35044772  1
  Te  Te72  1  0.06092123  0.09271807  0.09947649  1
  Te  Te73  1  0.07709801  0.09215977  0.44177291  1
  Te  Te74  1  0.07201958  0.07524479  0.76251156  1
  Te  Te75  1  0.07006660  0.42115793  0.05979226  1
  Te  Te76  1  0.08817390  0.40892849  0.42545194  1
  Te  Te77  1  0.04441447  0.44669148  0.75538525  1
  Te  Te78  1  0.07658907  0.74812130  0.07021199  1
  Te  Te79  1  0.06585737  0.77358658  0.43186621  1
  Te  Te80  1  0.08543105  0.74762708  0.74772736  1
  Te  Te81  1  0.40146490  0.08076362  0.08777125  1
  Te  Te82  1  0.41172464  0.06302113  0.41977064  1
  Te  Te83  1  0.42026583  0.06436516  0.71616103  1
  Te  Te84  1  0.40413685  0.41234549  0.06548573  1
  Te  Te85  1  0.43152569  0.40975765  0.42247147  1
  Te  Te86  1  0.43406980  0.40056273  0.74126884  1
  Te  Te87  1  0.43227851  0.76434141  0.06711522  1
  Te  Te88  1  0.44149712  0.76442219  0.41507404  1
  Te  Te89  1  0.41612607  0.77263244  0.72314843  1
  Te  Te90  1  0.75049441  0.08213809  0.07611299  1
  Te  Te91  1  0.76442596  0.09205127  0.41466783  1
  Te  Te92  1  0.72382890  0.12634777  0.70410044  1
  Te  Te93  1  0.77270108  0.43430168  0.07395411  1
  Te  Te94  1  0.74220137  0.42402329  0.43857532  1
  Te  Te95  1  0.77373768  0.39913982  0.74231270  1
  Te  Te96  1  0.75029105  0.73526262  0.08445626  1
  Te  Te97  1  0.73240613  0.75413683  0.42683455  1
  Te  Te98  1  0.74601282  0.76084850  0.75809231  1
  Te  Te99  1  0.08567999  0.24202894  0.26075113  1
  Te  Te100  1  0.06911027  0.24407238  0.60587366  1
  Te  Te101  1  0.07466180  0.24732941  0.91889757  1
  Te  Te102  1  0.09676444  0.60030862  0.22596374  1
  Te  Te103  1  0.08603421  0.58207825  0.57789795  1
  Te  Te104  1  0.06403578  0.57645218  0.94682039  1
  Te  Te105  1  0.08265154  0.92570142  0.26234152  1
  Te  Te106  1  0.09287203  0.89203696  0.59745194  1
  Te  Te107  1  0.09694431  0.91247858  0.88778340  1
  Te  Te108  1  0.42956335  0.25441674  0.25186689  1
  Te  Te109  1  0.43682355  0.21723797  0.59541031  1
  Te  Te110  1  0.44034842  0.25623852  0.90381485  1
  Te  Te111  1  0.41980000  0.57093154  0.25917128  1
  Te  Te112  1  0.39488725  0.60377210  0.58739704  1
  Te  Te113  1  0.41717864  0.57830254  0.90923192  1
  Te  Te114  1  0.38534666  0.85070565  0.27157011  1
  Te  Te115  1  0.41243608  0.92598775  0.61249670  1
  Te  Te116  1  0.43736166  0.92291043  0.90208108  1
  Te  Te117  1  0.75631151  0.25403852  0.28388621  1
  Te  Te118  1  0.74026177  0.23751464  0.58263041  1
  Te  Te119  1  0.76831634  0.25203606  0.88522771  1
  Te  Te120  1  0.75309906  0.59394364  0.24902338  1
  Te  Te121  1  0.77631617  0.57024177  0.60906540  1
  Te  Te122  1  0.75274555  0.56999553  0.92757055  1
  Te  Te123  1  0.75217399  0.92504547  0.25095491  1
  Te  Te124  1  0.71496999  0.91601482  0.58886003  1
  Te  Te125  1  0.74370838  0.92518628  0.88899274  1
  Te  Te126  1  0.23462735  0.25502391  0.08281617  1
  Te  Te127  1  0.27631922  0.22610350  0.45477548  1
  Te  Te128  1  0.25047806  0.25289412  0.76585706  1
  Te  Te129  1  0.21677725  0.58293056  0.05061207  1
  Te  Te130  1  0.25748512  0.57913565  0.41436176  1
  Te  Te131  1  0.24306732  0.59159291  0.73828093  1
  Te  Te132  1  0.26095479  0.90369248  0.09432507  1
  Te  Te133  1  0.25841011  0.91190470  0.41848206  1
  Te  Te134  1  0.23336002  0.96093215  0.76488371  1
  Te  Te135  1  0.59115324  0.25268002  0.07597112  1
  Te  Te136  1  0.60893639  0.23661642  0.43168922  1
  Te  Te137  1  0.59673100  0.20543752  0.74147145  1
  Te  Te138  1  0.57194017  0.58360491  0.09449213  1
  Te  Te139  1  0.61912940  0.59572107  0.43651211  1
  Te  Te140  1  0.57704200  0.59502076  0.75783714  1
  Te  Te141  1  0.56401822  0.92174222  0.08501127  1
  Te  Te142  1  0.57605484  0.90001225  0.41983163  1
  Te  Te143  1  0.61017852  0.91473226  0.70704680  1
  Te  Te144  1  0.92830256  0.25251399  0.09346642  1
  Te  Te145  1  0.91907967  0.22925070  0.45130567  1
  Te  Te146  1  0.87768642  0.27878077  0.75588994  1
  Te  Te147  1  0.93850437  0.60310723  0.03604754  1
  Te  Te148  1  0.92571862  0.58606543  0.41161118  1
  Te  Te149  1  0.93415575  0.56203051  0.76257934  1
  Te  Te150  1  0.91119135  0.90904716  0.06674225  1
  Te  Te151  1  0.91205981  0.92276804  0.44097486  1
  Te  Te152  1  0.89063400  0.91314650  0.72651600  1
  Te  Te153  1  0.26251414  0.06415609  0.27135437  1
  Te  Te154  1  0.26372478  0.06535212  0.60137329  1
  Te  Te155  1  0.24539821  0.06678373  0.88575707  1
  Te  Te156  1  0.26213307  0.41767080  0.24537584  1
  Te  Te157  1  0.23341908  0.42033233  0.61080237  1
  Te  Te158  1  0.23531182  0.43213956  0.90889514  1
  Te  Te159  1  0.24475647  0.74311800  0.21963701  1
  Te  Te160  1  0.23801468  0.76817621  0.60309456  1
  Te  Te161  1  0.25992883  0.74481392  0.89534150  1
  Te  Te162  1  0.57596201  0.07438826  0.23571990  1
  Te  Te163  1  0.62005693  0.04316562  0.60365449  1
  Te  Te164  1  0.60790718  0.10572467  0.88909251  1
  Te  Te165  1  0.60304304  0.40068696  0.27261312  1
  Te  Te166  1  0.59935743  0.43361409  0.58012182  1
  Te  Te167  1  0.59238051  0.39957288  0.89114141  1
  Te  Te168  1  0.59910520  0.74626164  0.26778343  1
  Te  Te169  1  0.57960035  0.77251158  0.60103260  1
  Te  Te170  1  0.58523392  0.77991120  0.91111243  1
  Te  Te171  1  0.90993519  0.11140957  0.26145310  1
  Te  Te172  1  0.91331468  0.10421370  0.59841940  1
  Te  Te173  1  0.91161506  0.06688139  0.90416641  1
  Te  Te174  1  0.92990850  0.41970007  0.24844863  1
  Te  Te175  1  0.94646129  0.37909598  0.61568773  1
  Te  Te176  1  0.91684758  0.43266850  0.86105715  1
  Te  Te177  1  0.90131226  0.74146993  0.24095605  1
  Te  Te178  1  0.90961504  0.76943987  0.58608970  1
  Te  Te179  1  0.92494679  0.73584184  0.91819799  1
