# generated using pymatgen
data_In2Te3
_symmetry_space_group_name_H-M   'P 1'
_cell_length_a   18.96332664
_cell_length_b   18.98991973
_cell_length_c   18.97116076
_cell_angle_alpha   89.82617514
_cell_angle_beta   90.01578496
_cell_angle_gamma   89.87954032
_symmetry_Int_Tables_number   1
_chemical_formula_structural   In2Te3
_chemical_formula_sum   'In72 Te108'
_cell_volume   6831.69679401
_cell_formula_units_Z   36
loop_
 _symmetry_equiv_pos_site_id
 _symmetry_equiv_pos_as_xyz
  1  'x, y, z'
loop_
 _atom_site_type_symbol
 _atom_site_label
 _atom_site_symmetry_multiplicity
 _atom_site_fract_x
 _atom_site_fract_y
 _atom_site_fract_z
 _atom_site_occupancy
  In  In0  1  0.63577528  0.50506497  0.48691385  1
  In  In1  1  0.67514077  0.02320330  0.36516086  1
  In  In2  1  0.15818179  0.17083655  0.01481726  1
  In  In3  1  0.03841671  0.33021082  0.67131487  1
  In  In4  1  0.33452915  0.85596281  0.81307125  1
  In  In5  1  -0.02077044  0.00540472  0.64995049  1
  In  In6  1  0.49214648  0.83959174  0.35131481  1
  In  In7  1  0.65003691  0.33630918  0.34733315  1
  In  In8  1  0.64445565  0.19615981  0.87923544  1
  In  In9  1  0.15853903  0.69199351  0.50684590  1
  In  In10  1  0.68278135  0.33051046  0.64023377  1
  In  In11  1  0.67483821  0.00299225  0.64090736  1
  In  In12  1  0.35433709  0.18967035  0.84341912  1
  In  In13  1  0.47797702  0.65070578  0.18225696  1
  In  In14  1  0.68736740  0.00072614  -0.00381315  1
  In  In15  1  0.83067546  0.17229399  0.64879433  1
  In  In16  1  0.82729595  0.62307933  0.18193087  1
  In  In17  1  0.17908326  0.01796459  0.16473466  1
  In  In18  1  0.34569016  0.51129801  0.50746587  1
  In  In19  1  0.82802837  0.82849738  -0.00701336  1
  In  In20  1  0.83699363  0.29450920  0.45567634  1
  In  In21  1  0.17569761  0.33343259  0.16983954  1
  In  In22  1  0.82817418  0.66540841  0.50161996  1
  In  In23  1  -0.00099783  0.14980961  0.18579814  1
  In  In24  1  0.49195645  0.34897488  0.48390692  1
  In  In25  1  0.84215028  0.47054647  0.02433872  1
  In  In26  1  0.14703643  0.01783541  0.49895817  1
  In  In27  1  0.17075997  0.84306098  -0.01195889  1
  In  In28  1  0.17456449  0.80840618  0.31865237  1
  In  In29  1  0.04385291  0.53956230  0.87083424  1
  In  In30  1  0.83185469  0.67531164  0.82335812  1
  In  In31  1  0.01462055  0.47174813  0.50087005  1
  In  In32  1  0.84322441  0.49154907  0.63853956  1
  In  In33  1  0.82525253  0.32250569  0.84138480  1
  In  In34  1  0.82064766  0.01313139  0.17399500  1
  In  In35  1  -0.01505150  -0.01304196  0.32929256  1
  In  In36  1  0.32352207  0.34189562  0.66020888  1
  In  In37  1  0.64791523  0.52074974  0.82361247  1
  In  In38  1  0.84369632  0.82221125  0.34458017  1
  In  In39  1  0.18167301  0.52783228  0.68041491  1
  In  In40  1  0.68135950  0.66333820  0.00563223  1
  In  In41  1  0.82880006  0.33582876  0.20200014  1
  In  In42  1  -0.00349647  0.68177619  0.69018870  1
  In  In43  1  0.25055079  0.43526286  0.84837497  1
  In  In44  1  0.32985859  0.00956553  0.33633477  1
  In  In45  1  -0.00273955  0.14361626  0.84724424  1
  In  In46  1  0.47484541  0.34324796  0.84404356  1
  In  In47  1  0.16641307  0.48257045  0.32147123  1
  In  In48  1  0.51743712  0.16779702  0.66481688  1
  In  In49  1  0.00327905  0.48430595  0.16313428  1
  In  In50  1  0.51861217  0.81943635  0.61664762  1
  In  In51  1  0.51693274  -0.00666289  0.20293817  1
  In  In52  1  0.00808956  0.81632927  0.13971977  1
  In  In53  1  0.19864981  0.16852739  0.65150084  1
  In  In54  1  0.64183328  0.82823453  0.18706945  1
  In  In55  1  0.31814748  0.64985629  0.31007482  1
  In  In56  1  0.32496850  0.19576228  0.45341342  1
  In  In57  1  0.83625034  0.01325349  0.81039220  1
  In  In58  1  0.50566174  0.68282216  0.82892348  1
  In  In59  1  0.83009456  0.83839122  0.67035426  1
  In  In60  1  0.32808010  0.66214977  0.01257912  1
  In  In61  1  -0.01250835  0.31031420  0.00753292  1
  In  In62  1  0.01273220  0.63972511  0.33672112  1
  In  In63  1  0.32639497  0.83207713  0.51867726  1
  In  In64  1  0.16120199  -0.01392371  0.82365106  1
  In  In65  1  0.15475295  0.82503436  0.68041780  1
  In  In66  1  0.33937332  0.03383169  0.01518992  1
  In  In67  1  0.49952681  0.81998089  -0.02313380  1
  In  In68  1  0.35895818  0.18737386  0.20240486  1
  In  In69  1  0.64776997  0.51257759  0.18983363  1
  In  In70  1  0.51190375  -0.01316098  0.79331374  1
  In  In71  1  0.45539337  0.46541988  0.01018059  1
  Te  Te72  1  0.06594149  0.06855757  0.07566139  1
  Te  Te73  1  0.07346900  0.08627884  0.39253137  1
  Te  Te74  1  0.08520094  0.09018451  0.72883668  1
  Te  Te75  1  0.08871206  0.40528417  0.06652184  1
  Te  Te76  1  0.08206623  0.38707883  0.39979716  1
  Te  Te77  1  0.10054390  0.43075408  0.76870237  1
  Te  Te78  1  0.09624449  0.73219715  0.05576970  1
  Te  Te79  1  0.06351948  0.76169841  0.41158262  1
  Te  Te80  1  0.10317487  0.72851694  0.77808407  1
  Te  Te81  1  0.43727722  0.09172467  0.11310728  1
  Te  Te82  1  0.42476118  0.11000824  0.38679966  1
  Te  Te83  1  0.41129355  0.09068485  0.74461031  1
  Te  Te84  1  0.48174181  0.37623029  0.13079197  1
  Te  Te85  1  0.37970561  0.40872187  0.40941478  1
  Te  Te86  1  0.40309246  0.43256292  0.74853788  1
  Te  Te87  1  0.41889745  0.75863589  0.08821242  1
  Te  Te88  1  0.38435472  0.74887051  0.40735450  1
  Te  Te89  1  0.42680300  0.76967725  0.73238448  1
  Te  Te90  1  0.72225134  0.09618112  0.10120451  1
  Te  Te91  1  0.76143634  0.09441108  0.46128661  1
  Te  Te92  1  0.73420259  0.10343699  0.74276853  1
  Te  Te93  1  0.73042762  0.41509199  0.10692852  1
  Te  Te94  1  0.74975972  0.41430586  0.43187224  1
  Te  Te95  1  0.75046037  0.41815109  0.74727351  1
  Te  Te96  1  0.74991070  0.75021762  0.10902374  1
  Te  Te97  1  0.74107092  0.74294707  0.41205112  1
  Te  Te98  1  0.74316699  0.73292041  0.72443822  1
  Te  Te99  1  0.06975187  0.26270676  0.24603707  1
  Te  Te100  1  0.10225284  0.24578875  0.56534601  1
  Te  Te101  1  0.08607443  0.25025002  0.90776048  1
  Te  Te102  1  0.09973346  0.58315645  0.22783217  1
  Te  Te103  1  0.07048642  0.58674957  0.58535073  1
  Te  Te104  1  0.13951835  0.58915986  0.97109936  1
  Te  Te105  1  0.08668458  0.91158705  0.23354076  1
  Te  Te106  1  0.07673052  0.91074914  0.58052468  1
  Te  Te107  1  0.06978220  0.92476909  0.91795965  1
  Te  Te108  1  0.46700557  0.27774778  0.24683425  1
  Te  Te109  1  0.41275554  0.24803334  0.58395393  1
  Te  Te110  1  0.43996612  0.24310187  0.95352015  1
  Te  Te111  1  0.38642135  0.54592702  0.23050421  1
  Te  Te112  1  0.44273278  0.60514494  0.56537894  1
  Te  Te113  1  0.43176440  0.59360082  0.92519937  1
  Te  Te114  1  0.40087480  0.90839036  0.24877955  1
  Te  Te115  1  0.42935479  0.92600335  0.56528107  1
  Te  Te116  1  0.41400261  0.93614871  0.91506671  1
  Te  Te117  1  0.72579062  0.24699127  0.25731575  1
  Te  Te118  1  0.72049495  0.21896683  0.54401249  1
  Te  Te119  1  0.74913122  0.27199264  0.95646780  1
  Te  Te120  1  0.73065722  0.58818009  0.28481958  1
  Te  Te121  1  0.73374043  0.57806234  0.58378138  1
  Te  Te122  1  0.76096505  0.56291197  0.92489794  1
  Te  Te123  1  0.74290791  0.91355920  0.26140539  1
  Te  Te124  1  0.77682267  0.92777368  0.56441416  1
  Te  Te125  1  0.75262918  0.91233177  0.89209656  1
  Te  Te126  1  0.26643977  0.24113517  0.08785519  1
  Te  Te127  1  0.20255412  0.27473874  0.44644869  1
  Te  Te128  1  0.24593199  0.26077220  0.76337340  1
  Te  Te129  1  0.25440372  0.54420933  0.06589540  1
  Te  Te130  1  0.22653480  0.58683288  0.42267313  1
  Te  Te131  1  0.28046989  0.56451306  0.78502187  1
  Te  Te132  1  0.26253797  0.92311529  0.08307949  1
  Te  Te133  1  0.23490740  0.91212690  0.41346819  1
  Te  Te134  1  0.25347633  0.93678938  0.71475510  1
  Te  Te135  1  0.58619833  0.24782889  0.00814619  1
  Te  Te136  1  0.56496856  0.23913281  0.42064913  1
  Te  Te137  1  0.58635636  0.27170186  0.75371204  1
  Te  Te138  1  0.57298224  0.58873074  0.07752190  1
  Te  Te139  1  0.52429723  0.58569480  0.42956490  1
  Te  Te140  1  0.56660346  0.59463446  0.72861983  1
  Te  Te141  1  0.58030909  0.91221398  0.07578815  1
  Te  Te142  1  0.58334424  0.92553682  0.42679512  1
  Te  Te143  1  0.60372542  0.89381363  0.72217108  1
  Te  Te144  1  0.90292315  0.23797909  0.10566661  1
  Te  Te145  1  0.92945013  0.22314362  0.36854563  1
  Te  Te146  1  0.92338986  0.24871737  0.75093787  1
  Te  Te147  1  0.92508191  0.58587371  0.07422139  1
  Te  Te148  1  0.91835863  0.56504079  0.42723291  1
  Te  Te149  1  0.91883192  0.56429078  0.74772026  1
  Te  Te150  1  0.90484758  0.91699401  0.08886530  1
  Te  Te151  1  0.90447060  0.92174879  0.43403467  1
  Te  Te152  1  0.93304886  0.90854405  0.75725665  1
  Te  Te153  1  0.23986508  0.11114885  0.26411038  1
  Te  Te154  1  0.27188576  0.08464255  0.55073319  1
  Te  Te155  1  0.24339265  0.08792885  0.90855703  1
  Te  Te156  1  0.27397562  0.40587012  0.25409615  1
  Te  Te157  1  0.23348054  0.43137658  0.57774496  1
  Te  Te158  1  0.31074485  0.42074471  0.98296994  1
  Te  Te159  1  0.24123313  0.73237334  0.21446331  1
  Te  Te160  1  0.25805076  0.73238401  0.61186625  1
  Te  Te161  1  0.26834792  0.75920189  0.90601109  1
  Te  Te162  1  0.61271474  0.09439531  0.24940535  1
  Te  Te163  1  0.55616586  0.06023849  0.57259775  1
  Te  Te164  1  0.57765762  0.06155731  0.90716509  1
  Te  Te165  1  0.55420227  0.42633299  0.27025191  1
  Te  Te166  1  0.56945846  0.41963507  0.59477585  1
  Te  Te167  1  0.57760384  0.42883900  0.91812706  1
  Te  Te168  1  0.56931892  0.72948438  0.27400183  1
  Te  Te169  1  0.55513924  0.70817260  0.52419597  1
  Te  Te170  1  0.61663372  0.75645464  0.90549594  1
  Te  Te171  1  0.88168167  0.10188616  0.28309735  1
  Te  Te172  1  0.91910728  0.10206632  0.55549291  1
  Te  Te173  1  0.88731741  0.08966810  0.92470502  1
  Te  Te174  1  0.90957330  0.43924916  0.26600405  1
  Te  Te175  1  0.91583707  0.37403385  0.57509399  1
  Te  Te176  1  0.92787723  0.41568167  0.90950765  1
  Te  Te177  1  0.92573959  0.73223528  0.24313310  1
  Te  Te178  1  0.92216774  0.75387268  0.58146416  1
  Te  Te179  1  0.91800389  0.74031773  0.91974539  1
