# generated using pymatgen
data_In2Te3
_symmetry_space_group_name_H-M   'P 1'
_cell_length_a   18.78157043
_cell_length_b   18.78358622
_cell_length_c   18.79138965
_cell_angle_alpha   89.99079787
_cell_angle_beta   90.01453866
_cell_angle_gamma   90.01831130
_symmetry_Int_Tables_number   1
_chemical_formula_structural   In2Te3
_chemical_formula_sum   'In72 Te108'
_cell_volume   6629.32441465
_cell_formula_units_Z   36
loop_
 _symmetry_equiv_pos_site_id
 _symmetry_equiv_pos_as_xyz
  1  'x, y, z'
loop_
 _atom_site_type_symbol
 _atom_site_label
 _atom_site_symmetry_multiplicity
 _atom_site_fract_x
 _atom_site_fract_y
 _atom_site_fract_z
 _atom_site_occupancy
  In  In0  1  0.14653653  0.49575648  0.02221483  1
  In  In1  1  0.65783950  0.33248137  0.66682689  1
  In  In2  1  0.32195158  0.70323915  0.30544912  1
  In  In3  1  0.34779047  0.32869548  0.33753174  1
  In  In4  1  0.69770579  0.13660016  0.46571413  1
  In  In5  1  0.00039989  0.50615199  0.49068842  1
  In  In6  1  0.18176291  0.16118577  0.02191636  1
  In  In7  1  0.67198135  0.34952030  0.32119681  1
  In  In8  1  0.51201348  0.35274543  0.51035623  1
  In  In9  1  0.51771579  0.66479744  0.17618910  1
  In  In10  1  0.84720162  -0.01051360  0.17519949  1
  In  In11  1  0.50151004  0.17608408  0.66021434  1
  In  In12  1  0.01715804  0.83002125  0.17490298  1
  In  In13  1  0.00123803  0.34672469  0.01972871  1
  In  In14  1  -0.00951409  0.66734075  0.65613873  1
  In  In15  1  0.66577038  -0.00494055  -0.00389497  1
  In  In16  1  0.80673055  0.64050717  0.84246204  1
  In  In17  1  -0.03488765  0.17072227  0.49646055  1
  In  In18  1  0.00181395  0.01099988  0.63995024  1
  In  In19  1  0.68532209  0.81484481  0.17843199  1
  In  In20  1  0.68761855  0.14817088  0.81223994  1
  In  In21  1  0.84138360  0.83994726  0.64132668  1
  In  In22  1  0.32364818  0.48932121  0.50995746  1
  In  In23  1  0.00934980  0.02418390  -0.01179449  1
  In  In24  1  0.33210352  0.16078924  0.51348471  1
  In  In25  1  0.50894483  0.00281001  0.82819707  1
  In  In26  1  0.65362161  0.18185486  0.17846085  1
  In  In27  1  0.17013311  0.33271643  0.83063465  1
  In  In28  1  0.65929926  0.65336554  0.66597380  1
  In  In29  1  0.34292263  0.49454554  0.16527842  1
  In  In30  1  -0.00890316  0.17122684  0.82610801  1
  In  In31  1  0.51091660  -0.00390448  0.49295531  1
  In  In32  1  0.82915334  0.32925026  0.83721807  1
  In  In33  1  0.46644948  0.00007855  0.17535386  1
  In  In34  1  0.82318402  0.51007003  0.64968505  1
  In  In35  1  0.00925445  0.32133702  0.68328140  1
  In  In36  1  0.49712935  0.33743480  0.16262216  1
  In  In37  1  0.50573952  0.82006603  0.00244367  1
  In  In38  1  0.81828362  0.33489395  0.48043945  1
  In  In39  1  0.15662106  0.84691612  0.66630487  1
  In  In40  1  0.00456885  0.83452765  0.83910774  1
  In  In41  1  0.80619194  0.83149848  0.00797187  1
  In  In42  1  0.18446395  0.13698991  0.30497277  1
  In  In43  1  -0.01132991  -0.01347146  0.33506869  1
  In  In44  1  0.15462298  -0.00587908  0.83350347  1
  In  In45  1  0.17569627  -0.00461353  0.48991167  1
  In  In46  1  0.16437532  0.51522257  0.33802623  1
  In  In47  1  0.00118347  0.16712081  0.15550851  1
  In  In48  1  0.35467750  0.50473366  0.84128247  1
  In  In49  1  0.34833308  0.67757734  0.68172503  1
  In  In50  1  0.84341737  0.49102940  0.29697805  1
  In  In51  1  -0.00512234  0.67118576  0.32030047  1
  In  In52  1  0.32607946  -0.01320810  0.04199065  1
  In  In53  1  0.67137971  0.85091329  0.48727118  1
  In  In54  1  0.33880248  0.83562746  0.48794879  1
  In  In55  1  0.83820776  0.82353443  0.34859699  1
  In  In56  1  0.83302822  0.48378928  0.01518699  1
  In  In57  1  0.18883074  0.65407271  0.86371992  1
  In  In58  1  0.64726344  0.82643725  0.83666333  1
  In  In59  1  0.33568814  0.31376963  0.01267807  1
  In  In60  1  0.67304242  0.50514256  0.16126410  1
  In  In61  1  0.49087901  0.84171133  0.67432803  1
  In  In62  1  0.33385228  0.82175561  0.82425176  1
  In  In63  1  0.13509380  0.67709540  0.48799219  1
  In  In64  1  0.49542257  0.48472262  0.68485128  1
  In  In65  1  0.15721673  0.35133095  0.50084259  1
  In  In66  1  0.83798817  0.17632149  -0.01108736  1
  In  In67  1  0.34449534  0.66819137  0.01546693  1
  In  In68  1  0.52843674  0.64595183  0.46935104  1
  In  In69  1  0.33863573  0.18568145  0.83659796  1
  In  In70  1  -0.01162018  0.65990097  0.02327455  1
  In  In71  1  0.49560443  0.17117966  0.33339958  1
  Te  Te72  1  0.10087415  0.06044059  0.10383700  1
  Te  Te73  1  0.07879222  0.09308296  0.41599932  1
  Te  Te74  1  0.08766559  0.09230977  0.73791633  1
  Te  Te75  1  0.06371177  0.42892963  0.12794732  1
  Te  Te76  1  0.05890960  0.40339591  0.39141701  1
  Te  Te77  1  0.07632677  0.42467756  0.76289068  1
  Te  Te78  1  0.09767990  0.73910071  0.08754310  1
  Te  Te79  1  0.08238345  0.77069894  0.38929904  1
  Te  Te80  1  0.09712859  0.73938621  0.75909749  1
  Te  Te81  1  0.42168771  0.09456532  0.07072539  1
  Te  Te82  1  0.40640319  0.07571471  0.41224127  1
  Te  Te83  1  0.41293632  0.08441144  0.74363645  1
  Te  Te84  1  0.42906116  0.42854137  0.05899165  1
  Te  Te85  1  0.42816318  0.43466518  0.41233474  1
  Te  Te86  1  0.40881454  0.39265183  0.76109418  1
  Te  Te87  1  0.41676085  0.76366038  0.11074854  1
  Te  Te88  1  0.43165392  0.74790836  0.40529609  1
  Te  Te89  1  0.45147217  0.73600448  0.77875548  1
  Te  Te90  1  0.75782810  0.08057006  0.08595636  1
  Te  Te91  1  0.77677201  0.04123559  0.38496019  1
  Te  Te92  1  0.77917699  0.09394017  0.71235132  1
  Te  Te93  1  0.74747929  0.39347014  0.09773537  1
  Te  Te94  1  0.73323652  0.44800803  0.42330377  1
  Te  Te95  1  0.74361421  0.42864510  0.75536694  1
  Te  Te96  1  0.73539595  0.71983381  0.07424745  1
  Te  Te97  1  0.73864606  0.73820308  0.41734700  1
  Te  Te98  1  0.75550559  0.75065216  0.74633587  1
  Te  Te99  1  0.09981086  0.23972923  0.24070461  1
  Te  Te100  1  0.07851133  0.24052962  0.57450718  1
  Te  Te101  1  0.07586854  0.23905586  0.93446270  1
  Te  Te102  1  0.08417292  0.58672881  0.23725065  1
  Te  Te103  1  0.09435538  0.57206962  0.59147140  1
  Te  Te104  1  0.06967482  0.57821826  0.91875945  1
  Te  Te105  1  0.09461996  0.93328229  0.24737121  1
  Te  Te106  1  0.06970231  0.90262701  0.55659597  1
  Te  Te107  1  0.09542601  0.90373771  0.94067759  1
  Te  Te108  1  0.40426641  0.23615886  0.23017702  1
  Te  Te109  1  0.40731028  0.27241478  0.58762401  1
  Te  Te110  1  0.43506566  0.26706649  0.91344264  1
  Te  Te111  1  0.41342424  0.58768381  0.26196215  1
  Te  Te112  1  0.42563190  0.59061603  0.58166487  1
  Te  Te113  1  0.43607010  0.59332868  0.92683997  1
  Te  Te114  1  0.36494584  0.92664742  0.25924861  1
  Te  Te115  1  0.40575021  0.93163000  0.58614322  1
  Te  Te116  1  0.41897657  0.91780387  0.91908616  1
  Te  Te117  1  0.75825375  0.24641142  0.26088795  1
  Te  Te118  1  0.73919867  0.24456519  0.57339934  1
  Te  Te119  1  0.72725834  0.25534432  0.92103038  1
  Te  Te120  1  0.73853347  0.59141461  0.26491092  1
  Te  Te121  1  0.76520907  0.61861173  0.56813937  1
  Te  Te122  1  0.72421432  0.54912988  0.92968213  1
  Te  Te123  1  0.74382590  0.93038709  0.27039766  1
  Te  Te124  1  0.74271240  0.93564839  0.58643922  1
  Te  Te125  1  0.75396357  0.92151015  0.89560624  1
  Te  Te126  1  0.23497357  0.26635922  0.11084949  1
  Te  Te127  1  0.24411955  0.24792957  0.41640651  1
  Te  Te128  1  0.23637989  0.23577988  0.74257965  1
  Te  Te129  1  0.24321980  0.58791671  0.09745460  1
  Te  Te130  1  0.25983354  0.60150225  0.42386782  1
  Te  Te131  1  0.25423156  0.57764174  0.74893003  1
  Te  Te132  1  0.25740533  0.89580181  0.13947956  1
  Te  Te133  1  0.24873594  0.90702023  0.39331882  1
  Te  Te134  1  0.26056850  0.92767362  0.74327538  1
  Te  Te135  1  0.59223308  0.26571769  0.07413430  1
  Te  Te136  1  0.58934055  0.25185220  0.42424131  1
  Te  Te137  1  0.57893995  0.25119188  0.76730087  1
  Te  Te138  1  0.56951327  0.56951495  0.07533059  1
  Te  Te139  1  0.62249058  0.55978493  0.39429771  1
  Te  Te140  1  0.57981675  0.57805300  0.77333560  1
  Te  Te141  1  0.58700854  0.91323820  0.09784898  1
  Te  Te142  1  0.57217647  0.90876196  0.39174324  1
  Te  Te143  1  0.60198658  0.93055014  0.73175369  1
  Te  Te144  1  0.89699367  0.26518330  0.09731139  1
  Te  Te145  1  0.90498831  0.25574316  0.38990688  1
  Te  Te146  1  0.88889891  0.23643696  0.73119848  1
  Te  Te147  1  0.91095194  0.56870832  0.10871333  1
  Te  Te148  1  0.90392477  0.58554656  0.40847656  1
  Te  Te149  1  0.91486933  0.57672967  0.75337041  1
  Te  Te150  1  0.92343668  0.91317357  0.06606957  1
  Te  Te151  1  0.89201290  0.93446022  0.43617867  1
  Te  Te152  1  0.92763165  0.92138617  0.74292234  1
  Te  Te153  1  0.29327745  0.06330964  0.23431316  1
  Te  Te154  1  0.24393683  0.07480635  0.59412058  1
  Te  Te155  1  0.25498577  0.07379076  0.92012229  1
  Te  Te156  1  0.25025051  0.41503665  0.25740272  1
  Te  Te157  1  0.24347773  0.41063092  0.60440438  1
  Te  Te158  1  0.24712543  0.42179769  0.93134891  1
  Te  Te159  1  0.22177437  0.76115007  0.21320043  1
  Te  Te160  1  0.24876010  0.74967096  0.58799889  1
  Te  Te161  1  0.25225021  0.76871610  0.94068964  1
  Te  Te162  1  0.58061672  0.07230257  0.25541734  1
  Te  Te163  1  0.59551538  0.09139333  0.57615603  1
  Te  Te164  1  0.58422715  0.09748335  0.91991983  1
  Te  Te165  1  0.56446641  0.43376189  0.25703959  1
  Te  Te166  1  0.60450399  0.44918434  0.58302962  1
  Te  Te167  1  0.61620587  0.45584899  0.85996867  1
  Te  Te168  1  0.58482096  0.75892561  0.27115094  1
  Te  Te169  1  0.57309280  0.75286083  0.58040199  1
  Te  Te170  1  0.61526966  0.73386279  0.94874239  1
  Te  Te171  1  0.91305549  0.09786715  0.26022936  1
  Te  Te172  1  0.88081959  0.08794455  0.59101792  1
  Te  Te173  1  0.89830633  0.07088965  0.89537837  1
  Te  Te174  1  0.95369813  0.39918349  0.27038771  1
  Te  Te175  1  0.91800150  0.40487754  0.58105241  1
  Te  Te176  1  0.92648956  0.42061104  0.90893676  1
  Te  Te177  1  0.89875220  0.75109848  0.22844755  1
  Te  Te178  1  0.92264066  0.75009072  0.55617314  1
  Te  Te179  1  0.90453250  0.74431095  0.91333474  1
