# generated using pymatgen
data_In2Te3
_symmetry_space_group_name_H-M   'P 1'
_cell_length_a   18.80727186
_cell_length_b   18.80988152
_cell_length_c   18.81099219
_cell_angle_alpha   90.03800548
_cell_angle_beta   90.03168346
_cell_angle_gamma   89.88807814
_symmetry_Int_Tables_number   1
_chemical_formula_structural   In2Te3
_chemical_formula_sum   'In72 Te108'
_cell_volume   6654.60949302
_cell_formula_units_Z   36
loop_
 _symmetry_equiv_pos_site_id
 _symmetry_equiv_pos_as_xyz
  1  'x, y, z'
loop_
 _atom_site_type_symbol
 _atom_site_label
 _atom_site_symmetry_multiplicity
 _atom_site_fract_x
 _atom_site_fract_y
 _atom_site_fract_z
 _atom_site_occupancy
  In  In0  1  0.17043169  0.86358106  0.32657147  1
  In  In1  1  0.15397581  0.50633276  -0.00246678  1
  In  In2  1  0.33784788  0.84930274  0.49236545  1
  In  In3  1  0.33318385  0.66254270  0.68312554  1
  In  In4  1  0.33710067  0.48171417  0.49852343  1
  In  In5  1  0.31286411  0.68948418  0.30289618  1
  In  In6  1  0.36111699  0.02506785  0.35512796  1
  In  In7  1  0.00384955  0.52012904  0.50365034  1
  In  In8  1  0.67139192  0.19300408  0.52223620  1
  In  In9  1  0.66530238  -0.00501841  0.33383276  1
  In  In10  1  0.34630575  -0.00039366  -0.02473940  1
  In  In11  1  0.83536705  0.65829202  0.16288248  1
  In  In12  1  -0.00252425  0.15787560  0.17246597  1
  In  In13  1  0.69862183  0.67896182  0.32818146  1
  In  In14  1  -0.01394543  0.32435840  0.69802551  1
  In  In15  1  0.66196587  0.31596035  0.33067568  1
  In  In16  1  0.33909418  0.51150647  0.12018579  1
  In  In17  1  0.84870481  0.00045000  0.53390900  1
  In  In18  1  -0.01706042  0.50025366  0.12145776  1
  In  In19  1  0.15030091  0.37436516  0.16055619  1
  In  In20  1  0.50798097  0.81963634  0.00539165  1
  In  In21  1  0.12473878  0.12880156  0.36026491  1
  In  In22  1  0.83959546  0.16528788  0.33567193  1
  In  In23  1  0.15122995  0.68275641  0.81713986  1
  In  In24  1  -0.00964970  0.32381101  0.32583776  1
  In  In25  1  0.68056344  0.50177240  0.49919004  1
  In  In26  1  0.51555844  0.69093314  0.52181569  1
  In  In27  1  0.33634147  0.34280113  -0.00688877  1
  In  In28  1  0.49181131  0.31599620  0.14856240  1
  In  In29  1  0.13563920  0.52184296  0.33185301  1
  In  In30  1  0.70246798  0.34807327  0.66728084  1
  In  In31  1  0.66686309  0.14724212  0.84360408  1
  In  In32  1  0.66447477  0.35018649  -0.00366395  1
  In  In33  1  0.14025817  0.13131722  0.69265885  1
  In  In34  1  -0.02422967  0.50048644  0.85052296  1
  In  In35  1  0.80383745  0.15122284  0.01056268  1
  In  In36  1  0.67716261  0.83227332  0.84073956  1
  In  In37  1  0.82791327  0.34420754  0.15965316  1
  In  In38  1  0.16312121  0.66013500  0.51501338  1
  In  In39  1  -0.00086413  0.84056137  0.50673509  1
  In  In40  1  0.50974084  0.85667478  0.33825091  1
  In  In41  1  -0.00432247  -0.01035016  0.00002993  1
  In  In42  1  0.35495721  0.35265388  0.66940021  1
  In  In43  1  0.33555451  0.17265089  0.83281702  1
  In  In44  1  0.50531049  0.49473670  0.32067184  1
  In  In45  1  0.15618998  0.19124665  -0.02818860  1
  In  In46  1  0.49404968  0.83201544  0.68579873  1
  In  In47  1  0.83165152  0.67948810  0.50358559  1
  In  In48  1  0.32697620  0.14642125  0.15907280  1
  In  In49  1  0.14579082  -0.02754802  0.17576210  1
  In  In50  1  0.67175999  0.64311059  -0.01884908  1
  In  In51  1  0.34134040  0.81185175  0.13625356  1
  In  In52  1  0.31050315  0.31043064  0.32060456  1
  In  In53  1  0.15515381  0.86168019  0.67582190  1
  In  In54  1  0.83804446  0.69007039  0.83830177  1
  In  In55  1  0.66415933  0.83663755  0.18177949  1
  In  In56  1  0.52998614  0.53417579  0.70081227  1
  In  In57  1  0.81596985  0.32141941  0.49144596  1
  In  In58  1  -0.01357544  0.67735621  0.32032836  1
  In  In59  1  0.49255428  0.16074560  0.66894605  1
  In  In60  1  0.67166851  -0.02075121  0.66739733  1
  In  In61  1  0.86824567  -0.01068265  0.81216495  1
  In  In62  1  0.15506817  0.33697394  0.84485026  1
  In  In63  1  0.17565479  0.31551770  0.51912520  1
  In  In64  1  0.50793872  0.66140173  0.11864586  1
  In  In65  1  0.82873868  0.49841025  0.66900725  1
  In  In66  1  0.13712077  0.82353013  -0.00679080  1
  In  In67  1  0.50729742  0.34589398  0.82303975  1
  In  In68  1  0.84316499  0.83954307  -0.00007888  1
  In  In69  1  0.32230115  -0.00958514  0.67572448  1
  In  In70  1  0.50909182  0.30540513  0.51702858  1
  In  In71  1  0.50008638  -0.02050264  0.16235103  1
  Te  Te72  1  0.10040839  0.09082222  0.07803113  1
  Te  Te73  1  0.03934332  0.05930048  0.46103689  1
  Te  Te74  1  0.05670722  0.03083298  0.76721767  1
  Te  Te75  1  0.05481256  0.38411839  0.03751642  1
  Te  Te76  1  0.09023694  0.40503784  0.42138961  1
  Te  Te77  1  0.07636795  0.43120947  0.75353989  1
  Te  Te78  1  0.08398118  0.76994446  0.11727092  1
  Te  Te79  1  0.09933904  0.74617375  0.40627850  1
  Te  Te80  1  0.05395781  0.77122524  0.73993527  1
  Te  Te81  1  0.43134716  0.08650928  0.06741353  1
  Te  Te82  1  0.44973820  0.11166313  0.42938094  1
  Te  Te83  1  0.42525876  0.06889978  0.76821454  1
  Te  Te84  1  0.45434661  0.43355361  0.05057117  1
  Te  Te85  1  0.42319121  0.39119235  0.40973173  1
  Te  Te86  1  0.41514590  0.45528879  0.76568568  1
  Te  Te87  1  0.38944703  0.71419884  0.02564479  1
  Te  Te88  1  0.41416624  0.74256665  0.41417002  1
  Te  Te89  1  0.42091455  0.73691817  0.77397496  1
  Te  Te90  1  0.69384288  0.07498818  0.07306936  1
  Te  Te91  1  0.75322872  0.09141538  0.43822200  1
  Te  Te92  1  0.76005406  0.07674640  0.74465058  1
  Te  Te93  1  0.76917043  0.43525804  0.06024833  1
  Te  Te94  1  0.75488289  0.42007328  0.39269257  1
  Te  Te95  1  0.75948516  0.42518110  0.77944591  1
  Te  Te96  1  0.73442474  0.75324164  0.06943656  1
  Te  Te97  1  0.73972149  0.77283684  0.43153396  1
  Te  Te98  1  0.77648954  0.78409992  0.73783633  1
  Te  Te99  1  0.09828921  0.25139120  0.24595675  1
  Te  Te100  1  0.07480041  0.23947438  0.60443778  1
  Te  Te101  1  0.05064334  0.23411072  0.87561562  1
  Te  Te102  1  0.06503588  0.59105789  0.21907337  1
  Te  Te103  1  0.08463094  0.58121185  0.61048989  1
  Te  Te104  1  0.06683245  0.60279212  0.92032681  1
  Te  Te105  1  0.04609458  0.92698773  0.27499371  1
  Te  Te106  1  0.09862493  0.94208717  0.56044626  1
  Te  Te107  1  0.08748443  0.92964921  0.89860542  1
  Te  Te108  1  0.41872538  0.22900180  0.24994952  1
  Te  Te109  1  0.39050589  0.23263304  0.58057907  1
  Te  Te110  1  0.43350050  0.25075657  0.91885153  1
  Te  Te111  1  0.41538788  0.58822713  0.23767481  1
  Te  Te112  1  0.42488689  0.57695514  0.57973242  1
  Te  Te113  1  0.42952095  0.57150974  0.98263698  1
  Te  Te114  1  0.38710301  0.90694754  0.24970699  1
  Te  Te115  1  0.42869813  0.92853488  0.58164083  1
  Te  Te116  1  0.43141991  0.90004266  0.90722490  1
  Te  Te117  1  0.74846051  0.23529125  0.23483047  1
  Te  Te118  1  0.79525051  0.22703374  0.61502517  1
  Te  Te119  1  0.75281830  0.25369245  0.90936873  1
  Te  Te120  1  0.73793093  0.57153596  0.23653950  1
  Te  Te121  1  0.73654862  0.59945429  0.59948092  1
  Te  Te122  1  0.75902331  0.56833403  0.88320089  1
  Te  Te123  1  0.76319525  0.91943748  0.25167722  1
  Te  Te124  1  0.78285239  0.89193675  0.61633947  1
  Te  Te125  1  0.76418340  0.93552873  0.91088045  1
  Te  Te126  1  0.24926841  0.25988768  0.08751543  1
  Te  Te127  1  0.23862589  0.21978574  0.41891858  1
  Te  Te128  1  0.25080001  0.26383839  0.74647238  1
  Te  Te129  1  0.22674513  0.59947901  0.08631948  1
  Te  Te130  1  0.25904772  0.58186196  0.41230574  1
  Te  Te131  1  0.23989019  0.57853080  0.75847622  1
  Te  Te132  1  0.25695378  0.92437844  0.07351776  1
  Te  Te133  1  0.24676323  0.95134455  0.42716237  1
  Te  Te134  1  0.26340161  0.89362462  0.77156287  1
  Te  Te135  1  0.59255185  0.24068235  0.06934902  1
  Te  Te136  1  0.56992790  0.21742423  0.40258573  1
  Te  Te137  1  0.59735747  0.25012505  0.73867296  1
  Te  Te138  1  0.62273059  0.56922947  0.10207605  1
  Te  Te139  1  0.58313396  0.58714960  0.41647325  1
  Te  Te140  1  0.61924141  0.60706436  0.79257457  1
  Te  Te141  1  0.60746971  0.91653757  0.06470492  1
  Te  Te142  1  0.59764182  0.91458458  0.43947525  1
  Te  Te143  1  0.57769672  0.92925417  0.77547913  1
  Te  Te144  1  0.90908690  0.24033527  0.08090053  1
  Te  Te145  1  0.93207266  0.23636996  0.43460651  1
  Te  Te146  1  0.87236126  0.24751860  0.74643859  1
  Te  Te147  1  0.90438516  0.59934390  0.04602301  1
  Te  Te148  1  0.90435851  0.58142250  0.40760673  1
  Te  Te149  1  0.91904236  0.59465248  0.74389430  1
  Te  Te150  1  0.90515281  0.93085931  0.09938405  1
  Te  Te151  1  0.89757780  0.91078508  0.42525639  1
  Te  Te152  1  0.96578202  0.90788452  0.73149527  1
  Te  Te153  1  0.23653882  0.07556591  0.25767758  1
  Te  Te154  1  0.24190937  0.08583233  0.59658053  1
  Te  Te155  1  0.23655438  0.08094544  0.90170994  1
  Te  Te156  1  0.25564967  0.43524828  0.25188278  1
  Te  Te157  1  0.23826616  0.42865719  0.60039823  1
  Te  Te158  1  0.25576291  0.43726916  0.90667995  1
  Te  Te159  1  0.20816001  0.75862756  0.20789974  1
  Te  Te160  1  0.25405011  0.76246208  0.58644563  1
  Te  Te161  1  0.24046526  0.76679794  0.90265416  1
  Te  Te162  1  0.58028825  0.07385397  0.24121640  1
  Te  Te163  1  0.58913929  0.07913821  0.58423509  1
  Te  Te164  1  0.59518064  0.08184507  0.95473237  1
  Te  Te165  1  0.58870259  0.40468148  0.23040258  1
  Te  Te166  1  0.58117772  0.41932462  0.59012860  1
  Te  Te167  1  0.58990142  0.43911600  0.90062484  1
  Te  Te168  1  0.56275643  0.74392116  0.24926845  1
  Te  Te169  1  0.60332384  0.75853943  0.61626240  1
  Te  Te170  1  0.57648913  0.72554741  0.89282279  1
  Te  Te171  1  0.91512131  0.06661204  0.25339769  1
  Te  Te172  1  0.96597001  0.06642017  0.59828831  1
  Te  Te173  1  0.91220657  0.09009658  0.92093249  1
  Te  Te174  1  0.92148637  0.43105698  0.24687377  1
  Te  Te175  1  0.91656807  0.41311901  0.57184541  1
  Te  Te176  1  0.94494682  0.38043700  0.92963865  1
  Te  Te177  1  0.89307217  0.76470498  0.24699619  1
  Te  Te178  1  0.94522806  0.72781321  0.58611023  1
  Te  Te179  1  0.93934551  0.75843115  0.92243819  1
