# generated using pymatgen
data_In2Te3
_symmetry_space_group_name_H-M   'P 1'
_cell_length_a   18.81016285
_cell_length_b   18.81385616
_cell_length_c   18.81473584
_cell_angle_alpha   90.01815651
_cell_angle_beta   90.01517438
_cell_angle_gamma   89.94509589
_symmetry_Int_Tables_number   1
_chemical_formula_structural   In2Te3
_chemical_formula_sum   'In72 Te108'
_cell_volume   6658.37519065
_cell_formula_units_Z   36
loop_
 _symmetry_equiv_pos_site_id
 _symmetry_equiv_pos_as_xyz
  1  'x, y, z'
loop_
 _atom_site_type_symbol
 _atom_site_label
 _atom_site_symmetry_multiplicity
 _atom_site_fract_x
 _atom_site_fract_y
 _atom_site_fract_z
 _atom_site_occupancy
  In  In0  1  0.35740482  0.66619794  -0.01391544  1
  In  In1  1  0.66524309  0.17050860  0.50233834  1
  In  In2  1  0.33756242  0.83283323  0.80840968  1
  In  In3  1  0.82024655  0.32243394  0.15862739  1
  In  In4  1  0.80232128  0.36007366  0.47447308  1
  In  In5  1  0.68458196  0.66693630  -0.00537155  1
  In  In6  1  0.82610313  0.51916240  0.33930120  1
  In  In7  1  0.31778215  0.50104435  0.84356885  1
  In  In8  1  0.67125687  0.83141087  0.50861452  1
  In  In9  1  0.33699438  0.34144649  0.00534900  1
  In  In10  1  0.14180348  0.34339821  0.51162639  1
  In  In11  1  -0.01029703  0.34257149  0.32965140  1
  In  In12  1  0.01743130  0.82666197  0.47041879  1
  In  In13  1  0.20137130  -0.00551695  0.50584219  1
  In  In14  1  0.18355785  0.33602485  0.15291880  1
  In  In15  1  0.17408901  0.85229638  0.01882069  1
  In  In16  1  0.79761980  0.15703760  0.30122690  1
  In  In17  1  0.64801214  0.01153785  0.01342318  1
  In  In18  1  0.50756192  0.00409428  0.84934253  1
  In  In19  1  0.34108746  0.67171271  0.33231423  1
  In  In20  1  0.48328456  0.48808417  -0.01898642  1
  In  In21  1  0.80488237  0.80170620  0.66631170  1
  In  In22  1  0.81588739  -0.00298621  0.16421495  1
  In  In23  1  0.81115397  -0.00623684  0.82301602  1
  In  In24  1  -0.01134131  0.82881141  0.86862493  1
  In  In25  1  0.36291533  0.17225034  0.16553862  1
  In  In26  1  0.49717838  0.17415646  0.67882055  1
  In  In27  1  0.84517471  0.79843087  0.02464200  1
  In  In28  1  -0.00578404  0.66769897  0.66333203  1
  In  In29  1  0.16661580  0.64704644  0.83264562  1
  In  In30  1  0.33883497  0.31481530  0.66431448  1
  In  In31  1  0.15253447  0.49715510  -0.00334876  1
  In  In32  1  0.33767413  0.34048193  0.32822546  1
  In  In33  1  0.52111834  0.35357970  0.50085397  1
  In  In34  1  0.51610178  0.52854947  0.67056980  1
  In  In35  1  0.67559626  0.82801416  0.83854116  1
  In  In36  1  -0.01201843  0.00532213  0.32453775  1
  In  In37  1  0.65395030  0.00093417  0.32016824  1
  In  In38  1  0.34723515  0.82263074  0.49067734  1
  In  In39  1  0.65718167  0.48629255  0.17300477  1
  In  In40  1  0.15718313  0.01815409  0.16096037  1
  In  In41  1  0.47975083  0.00898106  0.50204640  1
  In  In42  1  0.16121652  0.66975226  0.49708849  1
  In  In43  1  0.50328176  0.81944254  0.65600432  1
  In  In44  1  0.52111606  0.83164437  0.02734485  1
  In  In45  1  0.83218570  0.17980797  -0.00424828  1
  In  In46  1  -0.01213916  0.48175001  0.83443669  1
  In  In47  1  0.50914252  0.33147724  0.83400818  1
  In  In48  1  0.34458567  0.50600925  0.51147191  1
  In  In49  1  0.84810675  -0.03624376  0.50226644  1
  In  In50  1  0.81804506  0.34282187  0.84360877  1
  In  In51  1  0.64751946  0.66313092  0.33953065  1
  In  In52  1  -0.01273917  0.51124961  0.49076178  1
  In  In53  1  0.81486852  0.15561495  0.67181497  1
  In  In54  1  0.33312297  0.17194664  0.84590635  1
  In  In55  1  0.32982891  0.12433597  0.48673817  1
  In  In56  1  0.15629200  0.66661531  0.17971807  1
  In  In57  1  0.50862947  0.67976533  0.17092709  1
  In  In58  1  0.35058220  0.49944043  0.17133422  1
  In  In59  1  0.17227247  0.84167950  0.65418961  1
  In  In60  1  0.01710888  0.00671302  -0.00694484  1
  In  In61  1  0.36928503  -0.02697068  0.32022652  1
  In  In62  1  -0.00037976  0.19421882  0.49583995  1
  In  In63  1  0.01086688  0.33463086  0.68546550  1
  In  In64  1  0.84369835  0.51588443  0.02688658  1
  In  In65  1  0.17155537  0.17594208  0.33700135  1
  In  In66  1  -0.00016020  0.01303581  0.69521356  1
  In  In67  1  0.33511626  0.01546298  -0.00185394  1
  In  In68  1  0.02383615  0.19742166  0.86671392  1
  In  In69  1  0.81159906  0.49786372  0.65040385  1
  In  In70  1  -0.00052216  0.81118102  0.18106604  1
  In  In71  1  0.81841257  0.63728434  0.48792892  1
  Te  Te72  1  0.07949183  0.11024979  0.07726022  1
  Te  Te73  1  0.08402590  0.08087687  0.42070648  1
  Te  Te74  1  0.08772630  0.09730523  0.77735284  1
  Te  Te75  1  0.07128133  0.40505104  0.08145333  1
  Te  Te76  1  0.08693702  0.43483507  0.40177658  1
  Te  Te77  1  0.09683888  0.43733506  0.74522776  1
  Te  Te78  1  0.07936107  0.74612038  0.06750246  1
  Te  Te79  1  0.10085806  0.74282733  0.38349520  1
  Te  Te80  1  0.08085710  0.75824278  0.75056564  1
  Te  Te81  1  0.44478258  0.07188453  0.08738935  1
  Te  Te82  1  0.43802955  0.09383499  0.38181818  1
  Te  Te83  1  0.41091838  0.07497204  0.75456463  1
  Te  Te84  1  0.44172891  0.40070511  0.10017189  1
  Te  Te85  1  0.42988710  0.43344373  0.40668531  1
  Te  Te86  1  0.41424511  0.41852651  0.74887654  1
  Te  Te87  1  0.40197954  0.76047593  0.09602293  1
  Te  Te88  1  0.44376500  0.74004459  0.41567013  1
  Te  Te89  1  0.42007073  0.73158612  0.74313863  1
  Te  Te90  1  0.73668477  0.10874001  0.09630367  1
  Te  Te91  1  0.76362882  0.06868006  0.42372473  1
  Te  Te92  1  0.71750510  0.08917136  0.76043853  1
  Te  Te93  1  0.73583497  0.41050537  0.06715234  1
  Te  Te94  1  0.70343338  0.44734987  0.40134002  1
  Te  Te95  1  0.73298544  0.41752901  0.74647487  1
  Te  Te96  1  0.72617436  0.76087805  0.10125766  1
  Te  Te97  1  0.75335320  0.75108006  0.40877625  1
  Te  Te98  1  0.71979966  0.71050323  0.74976967  1
  Te  Te99  1  0.08301838  0.25549045  0.24557615  1
  Te  Te100  1  0.09583606  0.23237363  0.60641692  1
  Te  Te101  1  0.09972839  0.30064505  0.93775138  1
  Te  Te102  1  0.04884814  0.57028227  0.20049492  1
  Te  Te103  1  0.08678329  0.57276076  0.58931759  1
  Te  Te104  1  0.05712413  0.58956139  0.92080693  1
  Te  Te105  1  0.08813829  0.91661441  0.25097569  1
  Te  Te106  1  0.06645678  0.92501371  0.57772977  1
  Te  Te107  1  0.10457938  0.92142983  0.90114981  1
  Te  Te108  1  0.44192900  0.26594674  0.25186330  1
  Te  Te109  1  0.42280543  0.24024302  0.55934532  1
  Te  Te110  1  0.43260466  0.24493546  0.93490106  1
  Te  Te111  1  0.44480313  0.57520833  0.26198480  1
  Te  Te112  1  0.44035055  0.60427538  0.56712615  1
  Te  Te113  1  0.43646208  0.59255469  0.87969270  1
  Te  Te114  1  0.47027359  0.90079096  0.24048381  1
  Te  Te115  1  0.40126317  0.91945414  0.59548861  1
  Te  Te116  1  0.41987037  0.90254832  0.92711822  1
  Te  Te117  1  0.71972436  0.28196036  0.26589235  1
  Te  Te118  1  0.75276983  0.26530550  0.58435026  1
  Te  Te119  1  0.72858271  0.24672251  0.91386758  1
  Te  Te120  1  0.73979734  0.59625168  0.23615003  1
  Te  Te121  1  0.70783835  0.57387888  0.56788367  1
  Te  Te122  1  0.76167195  0.56843689  0.91657214  1
  Te  Te123  1  0.74987669  0.90606140  0.25844080  1
  Te  Te124  1  0.74274293  0.92777616  0.60555436  1
  Te  Te125  1  0.75081209  0.91567929  0.94090063  1
  Te  Te126  1  0.25567512  0.22889828  0.07316991  1
  Te  Te127  1  0.25279900  0.26233267  0.43272839  1
  Te  Te128  1  0.24469302  0.25302043  0.75822967  1
  Te  Te129  1  0.26402626  0.57598282  0.06945636  1
  Te  Te130  1  0.25050982  0.57811880  0.41309477  1
  Te  Te131  1  0.25665073  0.58297672  0.73658734  1
  Te  Te132  1  0.26971785  0.92863137  0.10767613  1
  Te  Te133  1  0.25603628  0.90367229  0.39752021  1
  Te  Te134  1  0.24891125  0.93022399  0.74362774  1
  Te  Te135  1  0.53549932  0.19381074  0.12211779  1
  Te  Te136  1  0.58667220  0.25349521  0.41047333  1
  Te  Te137  1  0.59911224  0.26061341  0.73878836  1
  Te  Te138  1  0.57180350  0.58117184  0.07297187  1
  Te  Te139  1  0.60673369  0.56263064  0.44206142  1
  Te  Te140  1  0.61138233  0.59834625  0.75776836  1
  Te  Te141  1  0.57840738  0.93192694  0.12351397  1
  Te  Te142  1  0.57799748  0.92030295  0.42621386  1
  Te  Te143  1  0.58263303  0.91242793  0.75272250  1
  Te  Te144  1  0.92640066  0.24939635  0.08534565  1
  Te  Te145  1  0.89132377  0.24590386  0.40064852  1
  Te  Te146  1  0.91223793  0.24147854  0.75780310  1
  Te  Te147  1  0.92923604  0.60983011  0.10881642  1
  Te  Te148  1  0.93786893  0.61476020  0.39140623  1
  Te  Te149  1  0.90339363  0.57726172  0.74344468  1
  Te  Te150  1  0.92956916  0.92054959  0.08457616  1
  Te  Te151  1  0.90753745  0.88921961  0.38302665  1
  Te  Te152  1  0.90805268  0.89491052  0.74660048  1
  Te  Te153  1  0.26431942  0.08410224  0.25992775  1
  Te  Te154  1  0.24685910  0.09301605  0.60456072  1
  Te  Te155  1  0.23503314  0.08591734  0.91843653  1
  Te  Te156  1  0.24127271  0.43389841  0.25536095  1
  Te  Te157  1  0.24885732  0.41671236  0.59130065  1
  Te  Te158  1  0.22754103  0.38903673  0.90486481  1
  Te  Te159  1  0.26135591  0.75252718  0.23580976  1
  Te  Te160  1  0.26200168  0.73890450  0.58760080  1
  Te  Te161  1  0.24604777  0.74859633  0.91853377  1
  Te  Te162  1  0.60825337  0.10701366  0.22366195  1
  Te  Te163  1  0.58193536  0.07908610  0.59100050  1
  Te  Te164  1  0.59476148  0.10636379  0.91196058  1
  Te  Te165  1  0.59924330  0.38223153  0.26004829  1
  Te  Te166  1  0.59698905  0.41660777  0.61064127  1
  Te  Te167  1  0.59605657  0.41717325  0.91890933  1
  Te  Te168  1  0.56658462  0.77346222  0.27355684  1
  Te  Te169  1  0.59184175  0.72871952  0.57827057  1
  Te  Te170  1  0.57524465  0.74379615  0.91601194  1
  Te  Te171  1  0.91884745  0.09891083  0.22867613  1
  Te  Te172  1  0.91789931  0.08509334  0.57845142  1
  Te  Te173  1  0.91130956  0.07703164  0.90374674  1
  Te  Te174  1  0.89919050  0.42709857  0.24065924  1
  Te  Te175  1  0.92134260  0.40054826  0.57306344  1
  Te  Te176  1  0.91463041  0.40560891  0.94288409  1
  Te  Te177  1  0.90359013  0.70919429  0.22621268  1
  Te  Te178  1  0.91110055  0.75070237  0.56581572  1
  Te  Te179  1  0.88962423  0.72648399  0.90368539  1
