# generated using pymatgen
data_In2Te3
_symmetry_space_group_name_H-M   'P 1'
_cell_length_a   18.97749466
_cell_length_b   18.95968388
_cell_length_c   18.96466348
_cell_angle_alpha   90.03909923
_cell_angle_beta   90.23459582
_cell_angle_gamma   90.05641920
_symmetry_Int_Tables_number   1
_chemical_formula_structural   In2Te3
_chemical_formula_sum   'In72 Te108'
_cell_volume   6823.56224077
_cell_formula_units_Z   36
loop_
 _symmetry_equiv_pos_site_id
 _symmetry_equiv_pos_as_xyz
  1  'x, y, z'
loop_
 _atom_site_type_symbol
 _atom_site_label
 _atom_site_symmetry_multiplicity
 _atom_site_fract_x
 _atom_site_fract_y
 _atom_site_fract_z
 _atom_site_occupancy
  In  In0  1  0.85382437  0.01274819  0.52190581  1
  In  In1  1  -0.01504436  0.50055951  0.18849146  1
  In  In2  1  0.66711317  0.85272765  0.15583411  1
  In  In3  1  0.72219126  0.31849659  0.65122126  1
  In  In4  1  0.33531295  0.18886783  0.16224095  1
  In  In5  1  0.64298289  0.02129456  -0.06046134  1
  In  In6  1  -0.00544946  0.16215911  0.17067360  1
  In  In7  1  0.50491384  0.03890229  0.54340726  1
  In  In8  1  0.16512255  0.81483177  0.66874517  1
  In  In9  1  0.66172222  0.86487716  0.79726500  1
  In  In10  1  0.35176986  0.51330575  0.47043682  1
  In  In11  1  0.36033936  0.80730924  0.18593881  1
  In  In12  1  0.68801479  0.47164189  0.80862196  1
  In  In13  1  0.00863966  0.50140783  0.82041457  1
  In  In14  1  0.54027691  0.31178359  0.50705517  1
  In  In15  1  0.15324399  0.18402416  0.33025677  1
  In  In16  1  0.50085258  0.49495504  0.64943394  1
  In  In17  1  0.31272839  0.64796073  -0.01569077  1
  In  In18  1  0.49943068  0.01926272  0.16379136  1
  In  In19  1  0.01713613  0.30779713  -0.01224263  1
  In  In20  1  0.10546280  0.82085150  0.35688197  1
  In  In21  1  -0.02060167  0.81425815  0.17334060  1
  In  In22  1  0.13578445  0.87798952  -0.00547100  1
  In  In23  1  0.53429711  0.65994064  0.17136829  1
  In  In24  1  0.50952224  0.48367351  0.31544218  1
  In  In25  1  0.15817329  0.37247492  0.50049262  1
  In  In26  1  0.31309962  0.65917836  0.33555117  1
  In  In27  1  0.34399022  0.31849019  0.30498795  1
  In  In28  1  0.85404567  0.81840752  -0.00487252  1
  In  In29  1  0.84221019  0.49164767  0.00113911  1
  In  In30  1  0.30979492  0.45841025  0.85886121  1
  In  In31  1  0.15412914  0.02574170  0.52040554  1
  In  In32  1  0.16651889  0.33291057  0.16933149  1
  In  In33  1  0.67118858  0.17476990  0.16659598  1
  In  In34  1  0.67350866  0.30716013  -0.01681028  1
  In  In35  1  0.33059401  0.01751589  0.38413532  1
  In  In36  1  0.66412800  0.16227514  0.81979451  1
  In  In37  1  0.51272206  0.85919440  0.34885658  1
  In  In38  1  0.18228396  0.64766416  0.16471349  1
  In  In39  1  0.47225065  0.83258079  -0.03313714  1
  In  In40  1  0.71575604  -0.00421147  0.34704127  1
  In  In41  1  0.81309708  0.14731298  -0.03456742  1
  In  In42  1  0.68813536  0.33885276  0.35878795  1
  In  In43  1  0.16338652  -0.00333110  0.17205891  1
  In  In44  1  0.36067522  0.46623831  0.15132354  1
  In  In45  1  0.84055426  0.66369165  0.53421391  1
  In  In46  1  0.52689702  0.68028439  0.48462341  1
  In  In47  1  0.82206715  0.66552320  0.18816625  1
  In  In48  1  0.85087559  0.33745007  0.17364749  1
  In  In49  1  -0.01847560  0.18965128  0.50968763  1
  In  In50  1  0.31261115  0.33344019  0.68202322  1
  In  In51  1  0.14483481  0.52319271  0.66144498  1
  In  In52  1  0.30185106  0.83647701  0.50720960  1
  In  In53  1  0.65598631  0.67925641  0.65520876  1
  In  In54  1  0.15862159  0.65786923  0.82578520  1
  In  In55  1  0.32507764  -0.02289626  -0.01172614  1
  In  In56  1  0.50133165  0.30439430  0.84414711  1
  In  In57  1  0.17709119  0.16836859  0.67808661  1
  In  In58  1  0.00587599  0.02682503  -0.03331552  1
  In  In59  1  0.69252552  0.85483367  0.52904415  1
  In  In60  1  0.65111721  0.63880698  -0.01033622  1
  In  In61  1  0.14936651  0.01377772  0.83165657  1
  In  In62  1  0.70167658  0.63123177  0.36994039  1
  In  In63  1  -0.03110345  0.82294869  0.52889959  1
  In  In64  1  -0.06652464  0.35345492  0.67171917  1
  In  In65  1  0.32749691  0.83133737  0.83717554  1
  In  In66  1  0.01063131  0.67678830  -0.02300816  1
  In  In67  1  0.47570310  0.65657649  0.83708217  1
  In  In68  1  0.82789173  0.01249804  0.83118012  1
  In  In69  1  0.33935414  0.17632626  0.51438019  1
  In  In70  1  0.13264284  0.49239758  0.35205147  1
  In  In71  1  0.83804495  0.00975295  0.16401107  1
  Te  Te72  1  0.09167889  0.09233605  0.07805682  1
  Te  Te73  1  0.06777378  0.09659074  0.41813079  1
  Te  Te74  1  0.06783816  0.07953005  0.72599574  1
  Te  Te75  1  0.06183020  0.41350854  0.09297675  1
  Te  Te76  1  0.04055728  0.39325171  0.41164634  1
  Te  Te77  1  0.07428784  0.40571316  0.72310467  1
  Te  Te78  1  0.08945143  0.75138381  0.09011887  1
  Te  Te79  1  0.07008191  0.73345401  0.46702891  1
  Te  Te80  1  0.06191464  0.72398592  0.73350237  1
  Te  Te81  1  0.40015391  0.08417253  0.07239212  1
  Te  Te82  1  0.43945223  0.11238007  0.42033661  1
  Te  Te83  1  0.49571920  0.09260591  0.68734567  1
  Te  Te84  1  0.42566247  0.36155392  0.07528813  1
  Te  Te85  1  0.42878341  0.39368950  0.41671226  1
  Te  Te86  1  0.42284290  0.41978629  0.75477121  1
  Te  Te87  1  0.41859220  0.72662770  0.06956192  1
  Te  Te88  1  0.41590236  0.75217649  0.40365539  1
  Te  Te89  1  0.41072018  0.75207513  0.74828727  1
  Te  Te90  1  0.73002057  0.06316888  0.06705932  1
  Te  Te91  1  0.76532144  0.10037193  0.43825107  1
  Te  Te92  1  0.74873040  0.08231478  0.72174812  1
  Te  Te93  1  0.75040465  0.40047291  0.07791061  1
  Te  Te94  1  0.79380834  0.37771381  0.46200239  1
  Te  Te95  1  0.80315594  0.42766143  0.72152006  1
  Te  Te96  1  0.73948714  0.74367713  0.07648948  1
  Te  Te97  1  0.75574195  0.75332549  0.43077915  1
  Te  Te98  1  0.74314525  0.75251190  0.75080145  1
  Te  Te99  1  0.05599014  0.27309502  0.25504739  1
  Te  Te100  1  0.10096843  0.25586468  0.57937295  1
  Te  Te101  1  0.10538244  0.26284633  0.88094867  1
  Te  Te102  1  0.07494139  0.59972271  0.26077263  1
  Te  Te103  1  0.03432513  0.56632056  0.56602730  1
  Te  Te104  1  0.09946517  0.56566285  0.92997791  1
  Te  Te105  1  0.05797165  0.92139014  0.25004420  1
  Te  Te106  1  0.08172557  0.91435226  0.58812837  1
  Te  Te107  1  0.03946500  0.89986638  0.87470591  1
  Te  Te108  1  0.44703527  0.23540624  0.24572729  1
  Te  Te109  1  0.42388964  0.26947085  0.59699645  1
  Te  Te110  1  0.38343953  0.31607919  0.93411771  1
  Te  Te111  1  0.41208398  0.58680156  0.24550065  1
  Te  Te112  1  0.42683620  0.60122814  0.57078521  1
  Te  Te113  1  0.41434625  0.55326431  0.92800585  1
  Te  Te114  1  0.41082315  0.93516842  0.26454799  1
  Te  Te115  1  0.40075505  0.92678394  0.56309634  1
  Te  Te116  1  0.42438655  0.94571265  0.87884364  1
  Te  Te117  1  0.76926215  0.24174785  0.25664712  1
  Te  Te118  1  0.80009791  0.24512628  0.54537213  1
  Te  Te119  1  0.77361139  0.26474579  0.87371559  1
  Te  Te120  1  0.73098795  0.56448159  0.24320650  1
  Te  Te121  1  0.73372993  0.57735241  0.58556991  1
  Te  Te122  1  0.75625684  0.57107224  0.90402882  1
  Te  Te123  1  0.77854681  0.89717723  0.24855803  1
  Te  Te124  1  0.76988044  0.93830818  0.62211398  1
  Te  Te125  1  0.74568333  0.90972892  0.92465864  1
  Te  Te126  1  0.24900711  0.26502051  0.07030735  1
  Te  Te127  1  0.24871284  0.26130875  0.42082327  1
  Te  Te128  1  0.27085390  0.22885587  0.77520315  1
  Te  Te129  1  0.25119720  0.54395021  0.07799282  1
  Te  Te130  1  0.22359727  0.58702831  0.43196338  1
  Te  Te131  1  0.25597787  0.56740522  0.75807604  1
  Te  Te132  1  0.25764712  0.89906834  0.10077584  1
  Te  Te133  1  0.21315787  0.92334981  0.41054363  1
  Te  Te134  1  0.23873753  0.91950787  0.75208220  1
  Te  Te135  1  0.57815555  0.23166808  0.06745098  1
  Te  Te136  1  0.61686409  0.22529035  0.41954263  1
  Te  Te137  1  0.60171321  0.27183726  0.73477920  1
  Te  Te138  1  0.57949237  0.55380712  0.08396567  1
  Te  Te139  1  0.58768487  0.55317867  0.42809412  1
  Te  Te140  1  0.58224067  0.57722870  0.75676932  1
  Te  Te141  1  0.55492486  0.91134124  0.07220908  1
  Te  Te142  1  0.60020862  0.94312385  0.43746474  1
  Te  Te143  1  0.58584637  0.97384769  0.73594068  1
  Te  Te144  1  0.89919668  0.22756283  0.06715287  1
  Te  Te145  1  0.88601482  0.25580140  0.41466062  1
  Te  Te146  1  0.89258416  0.24450752  0.76337842  1
  Te  Te147  1  0.91896391  0.59773127  0.08123022  1
  Te  Te148  1  0.92764689  0.57771921  0.45195340  1
  Te  Te149  1  0.95650151  0.61097588  0.73858666  1
  Te  Te150  1  0.92913411  0.93172515  0.06570184  1
  Te  Te151  1  0.91676299  0.91703541  0.42934923  1
  Te  Te152  1  0.91818342  0.91001323  0.78252197  1
  Te  Te153  1  0.24935397  0.08839091  0.26096109  1
  Te  Te154  1  0.27245902  0.07425850  0.60267202  1
  Te  Te155  1  0.23234605  0.07767410  0.93410984  1
  Te  Te156  1  0.24770113  0.43008526  0.26329939  1
  Te  Te157  1  0.26745817  0.44170493  0.58272827  1
  Te  Te158  1  0.18508290  0.38759933  0.89765769  1
  Te  Te159  1  0.22539081  0.76120363  0.26532234  1
  Te  Te160  1  0.25158706  0.72697149  0.58861090  1
  Te  Te161  1  0.22813810  0.76247137  0.92732191  1
  Te  Te162  1  0.61088310  0.06473679  0.25356932  1
  Te  Te163  1  0.63069403  0.09134334  0.61173445  1
  Te  Te164  1  0.55056968  0.13335379  0.91319960  1
  Te  Te165  1  0.59962532  0.38962889  0.25177843  1
  Te  Te166  1  0.61390626  0.41416882  0.59090139  1
  Te  Te167  1  0.59149310  0.41088547  0.90829196  1
  Te  Te168  1  0.59612554  0.76514589  0.26089208  1
  Te  Te169  1  0.57010445  0.78415322  0.58651354  1
  Te  Te170  1  0.58360349  0.75003097  0.90591674  1
  Te  Te171  1  0.92032457  0.07789154  0.26343721  1
  Te  Te172  1  0.94706811  0.08854311  0.61286039  1
  Te  Te173  1  0.93416249  0.12433177  0.87257641  1
  Te  Te174  1  0.87469644  0.44822075  0.26860660  1
  Te  Te175  1  0.94616535  0.44341670  0.54947357  1
  Te  Te176  1  0.92929011  0.40743415  0.91190734  1
  Te  Te177  1  0.91868645  0.73129498  0.27640236  1
  Te  Te178  1  0.87604136  0.77028998  0.63301163  1
  Te  Te179  1  0.90112524  0.72422974  0.89247777  1
