# generated using pymatgen
data_In2Te3
_symmetry_space_group_name_H-M   'P 1'
_cell_length_a   19.00075680
_cell_length_b   19.02102591
_cell_length_c   19.01251204
_cell_angle_alpha   89.73119996
_cell_angle_beta   90.12207548
_cell_angle_gamma   89.81783955
_symmetry_Int_Tables_number   1
_chemical_formula_structural   In2Te3
_chemical_formula_sum   'In72 Te108'
_cell_volume   6871.25972815
_cell_formula_units_Z   36
loop_
 _symmetry_equiv_pos_site_id
 _symmetry_equiv_pos_as_xyz
  1  'x, y, z'
loop_
 _atom_site_type_symbol
 _atom_site_label
 _atom_site_symmetry_multiplicity
 _atom_site_fract_x
 _atom_site_fract_y
 _atom_site_fract_z
 _atom_site_occupancy
  In  In0  1  0.35573457  0.03380308  0.35840435  1
  In  In1  1  0.85283842  0.50273656  0.66310124  1
  In  In2  1  0.17784924  0.83700886  0.66361933  1
  In  In3  1  0.49077215  0.26920154  0.53089054  1
  In  In4  1  0.87659728  0.46946809  0.29371381  1
  In  In5  1  0.51848579  -0.00663406  0.14616424  1
  In  In6  1  0.33293293  0.51681443  0.82378968  1
  In  In7  1  0.03241265  -0.00033935  0.28892425  1
  In  In8  1  0.19077833  0.52905265  -0.00332384  1
  In  In9  1  0.67036342  0.20016482  0.16069467  1
  In  In10  1  0.81961686  0.16413195  0.32045263  1
  In  In11  1  0.00890331  0.17184066  0.50430903  1
  In  In12  1  0.65600740  0.02369310  0.32798239  1
  In  In13  1  0.65538888  0.69072291  -0.00364485  1
  In  In14  1  0.19125158  0.12341410  0.00610662  1
  In  In15  1  0.34354497  0.32054343  0.33231577  1
  In  In16  1  0.67058908  0.33554960  0.66662637  1
  In  In17  1  0.53633167  0.82730865  0.30505238  1
  In  In18  1  0.82189591  0.32529785  0.50594082  1
  In  In19  1  0.46343613  0.15404696  0.02170909  1
  In  In20  1  0.51212246  0.66993077  0.83214275  1
  In  In21  1  0.49514115  0.51797825  0.32052271  1
  In  In22  1  0.62295823  0.15243706  0.49359349  1
  In  In23  1  0.48053901  0.47219912  0.63553152  1
  In  In24  1  0.34546607  0.00505450  0.65931590  1
  In  In25  1  0.49171033  0.30248936  0.84214623  1
  In  In26  1  0.49394844  0.65849814  0.47712067  1
  In  In27  1  0.27512077  0.72049323  0.07354844  1
  In  In28  1  0.83569535  -0.00495514  0.14852448  1
  In  In29  1  0.85681736  0.16915700  0.01551261  1
  In  In30  1  0.48668408  0.33219940  0.17417401  1
  In  In31  1  0.49083848  0.68270951  0.14996088  1
  In  In32  1  0.15149770  0.66620293  0.47391076  1
  In  In33  1  0.81914059  0.66987510  0.51397958  1
  In  In34  1  0.49213206  0.47558767  -0.02443953  1
  In  In35  1  0.48199224  0.85206212  0.68012152  1
  In  In36  1  0.82228287  0.83957870  0.69132146  1
  In  In37  1  0.17361260  0.32448756  0.51027249  1
  In  In38  1  0.00922663  0.82040495  0.48910534  1
  In  In39  1  0.17053701  0.68185659  0.82034562  1
  In  In40  1  0.15182539  0.32894790  0.16328268  1
  In  In41  1  0.01087919  0.67689547  0.30238946  1
  In  In42  1  0.17848522  0.17562214  0.32909915  1
  In  In43  1  0.47506292  0.00469300  0.84788007  1
  In  In44  1  0.66907095  0.16367604  0.86325659  1
  In  In45  1  0.33341624  0.80985800  0.46243287  1
  In  In46  1  0.31549250  0.32452257  -0.00152565  1
  In  In47  1  0.69293336  0.51689076  0.82187489  1
  In  In48  1  0.05556370  -0.02990618  0.02465697  1
  In  In49  1  0.84646408  -0.02031248  0.52292279  1
  In  In50  1  0.00945430  0.15281764  0.84899076  1
  In  In51  1  -0.02195861  -0.01844513  0.71000849  1
  In  In52  1  0.18014172  -0.02402933  0.49396296  1
  In  In53  1  0.14880575  0.49453294  0.33416462  1
  In  In54  1  0.18811849  0.15576046  0.69168841  1
  In  In55  1  0.15799590  0.47001558  0.66966281  1
  In  In56  1  0.66620728  0.84276009  0.85177334  1
  In  In57  1  0.66496339  0.53172344  0.18185099  1
  In  In58  1  0.34932315  0.84095478  0.84762473  1
  In  In59  1  0.69174548  0.34292667  0.00269292  1
  In  In60  1  0.66027212  0.66001063  0.64895858  1
  In  In61  1  0.01169785  0.63721747  0.66525148  1
  In  In62  1  0.80651351  0.84793852  0.33328098  1
  In  In63  1  0.67651944  0.84987381  0.51243410  1
  In  In64  1  0.00649201  0.49441104  0.84109412  1
  In  In65  1  -0.00089087  0.77400895  0.02693947  1
  In  In66  1  0.82822234  0.68252730  0.14494298  1
  In  In67  1  0.01284062  0.31270084  -0.00167577  1
  In  In68  1  -0.03851850  0.48227764  0.46908730  1
  In  In69  1  0.82888994  0.16789407  0.70745463  1
  In  In70  1  0.84838863  0.51873547  0.02164385  1
  In  In71  1  0.30797640  0.51675058  0.48455789  1
  Te  Te72  1  0.07975465  0.09648492  0.09611230  1
  Te  Te73  1  0.08069216  0.07052529  0.41708767  1
  Te  Te74  1  0.09352717  0.05691373  0.76543533  1
  Te  Te75  1  0.09580978  0.42378659  0.05935845  1
  Te  Te76  1  0.07449775  0.39324408  0.41820566  1
  Te  Te77  1  0.08288688  0.39467031  0.76789117  1
  Te  Te78  1  0.12327824  0.76117693  0.12141001  1
  Te  Te79  1  0.10174855  0.77402955  0.37963720  1
  Te  Te80  1  0.06939599  0.75842280  0.73471645  1
  Te  Te81  1  0.39000536  0.04822404  0.09314179  1
  Te  Te82  1  0.45336615  0.10668049  0.45293712  1
  Te  Te83  1  0.42555476  0.09860530  0.74196892  1
  Te  Te84  1  0.40105852  0.41716820  0.08077996  1
  Te  Te85  1  0.40926451  0.43180820  0.41152458  1
  Te  Te86  1  0.42020822  0.41025315  0.75960684  1
  Te  Te87  1  0.40639877  0.79773849  0.10278289  1
  Te  Te88  1  0.42663505  0.73912092  0.36877867  1
  Te  Te89  1  0.40615557  0.74061976  0.74775007  1
  Te  Te90  1  0.74185416  0.09591081  0.07966970  1
  Te  Te91  1  0.76344922  0.06850585  0.42754047  1
  Te  Te92  1  0.76033874  0.07235989  0.79254090  1
  Te  Te93  1  0.75555188  0.43210734  0.10376200  1
  Te  Te94  1  0.78872488  0.43169325  0.40724576  1
  Te  Te95  1  0.77203886  0.40840007  0.75149799  1
  Te  Te96  1  0.75515263  0.78109905  0.05918150  1
  Te  Te97  1  0.73050912  0.74600047  0.41682511  1
  Te  Te98  1  0.72950515  0.73903099  0.75635410  1
  Te  Te99  1  0.07056369  0.25244125  0.26254520  1
  Te  Te100  1  0.09039282  0.24367794  0.60702412  1
  Te  Te101  1  0.11513360  0.23239263  0.92186979  1
  Te  Te102  1  0.05341107  0.55345054  0.23778963  1
  Te  Te103  1  0.08528553  0.56003183  0.55948262  1
  Te  Te104  1  0.08433739  0.60137358  0.91443200  1
  Te  Te105  1  0.08795350  0.88788943  0.21318583  1
  Te  Te106  1  0.07013720  0.92318403  0.58790908  1
  Te  Te107  1  0.05335127  0.86338325  0.91292135  1
  Te  Te108  1  0.40869782  0.22846079  0.23958342  1
  Te  Te109  1  0.40009669  0.22900855  0.63950088  1
  Te  Te110  1  0.38377233  0.22219355  0.91009973  1
  Te  Te111  1  0.40964798  0.58127474  0.21733371  1
  Te  Te112  1  0.40493643  0.59021510  0.57769856  1
  Te  Te113  1  0.41489286  0.59573684  0.92300497  1
  Te  Te114  1  0.44561161  0.94347656  0.27165191  1
  Te  Te115  1  0.40235553  0.90301130  0.56012184  1
  Te  Te116  1  0.37086632  0.95400932  0.94819880  1
  Te  Te117  1  0.74127857  0.27310226  0.26387715  1
  Te  Te118  1  0.73956880  0.22316930  0.58470485  1
  Te  Te119  1  0.77781634  0.25456508  0.91679563  1
  Te  Te120  1  0.78558226  0.58557351  0.25528102  1
  Te  Te121  1  0.74053425  0.55611784  0.57464019  1
  Te  Te122  1  0.75902123  0.60048082  0.92552169  1
  Te  Te123  1  0.72776474  0.92906655  0.23271613  1
  Te  Te124  1  0.73428830  0.94212453  0.61625089  1
  Te  Te125  1  0.72051563  0.91412142  0.96914807  1
  Te  Te126  1  0.25059014  0.23457017  0.09899839  1
  Te  Te127  1  0.26890123  0.23596651  0.43403216  1
  Te  Te128  1  0.27925769  0.26248932  0.72656972  1
  Te  Te129  1  0.26522275  0.57768522  0.11315730  1
  Te  Te130  1  0.24825258  0.60445311  0.37593143  1
  Te  Te131  1  0.23925525  0.58574411  0.72682645  1
  Te  Te132  1  0.18028713  0.90529608  0.08998372  1
  Te  Te133  1  0.25656078  0.91331667  0.38286350  1
  Te  Te134  1  0.25824913  0.92357786  0.75519045  1
  Te  Te135  1  0.57018671  0.26821687  0.05578217  1
  Te  Te136  1  0.56584237  0.25469701  0.40606288  1
  Te  Te137  1  0.59323175  0.23596208  0.75157286  1
  Te  Te138  1  0.58508656  0.56612130  0.05549340  1
  Te  Te139  1  0.59419797  0.57966237  0.40966991  1
  Te  Te140  1  0.57100411  0.56412963  0.73264123  1
  Te  Te141  1  0.58672798  0.90942225  0.04625327  1
  Te  Te142  1  0.58533782  0.92232580  0.41749151  1
  Te  Te143  1  0.57867661  0.93128154  0.76252534  1
  Te  Te144  1  0.91233886  0.27435868  0.10506275  1
  Te  Te145  1  0.91212747  0.24383094  0.41496995  1
  Te  Te146  1  0.93527553  0.24710582  0.76378181  1
  Te  Te147  1  0.94142934  0.62690478  0.06514143  1
  Te  Te148  1  0.92873783  0.62158959  0.42299402  1
  Te  Te149  1  0.91040525  0.59521045  0.76647833  1
  Te  Te150  1  0.92978402  0.89939251  0.08782057  1
  Te  Te151  1  0.92262113  0.91756029  0.40625026  1
  Te  Te152  1  0.87862961  0.92173978  0.80202322  1
  Te  Te153  1  0.24812908  0.06639227  0.26247548  1
  Te  Te154  1  0.25042886  0.08289058  0.56968216  1
  Te  Te155  1  0.24864867  0.03495453  0.90511838  1
  Te  Te156  1  0.24441104  0.40679012  0.25562083  1
  Te  Te157  1  0.27043396  0.41018988  0.58772231  1
  Te  Te158  1  0.24635485  0.42229996  0.90438577  1
  Te  Te159  1  0.28811317  0.80675723  0.19471535  1
  Te  Te160  1  0.24408524  0.74289936  0.56643703  1
  Te  Te161  1  0.25098484  0.75565812  0.92233845  1
  Te  Te162  1  0.57539499  0.10897995  0.23441611  1
  Te  Te163  1  0.53344892  0.07031109  0.57322981  1
  Te  Te164  1  0.56877582  0.08049946  0.93983534  1
  Te  Te165  1  0.58566131  0.41930948  0.24684172  1
  Te  Te166  1  0.58294856  0.39532504  0.55909404  1
  Te  Te167  1  0.60300736  0.41067929  0.88998470  1
  Te  Te168  1  0.60885219  0.73504781  0.21811477  1
  Te  Te169  1  0.56883974  0.76157435  0.58361156  1
  Te  Te170  1  0.54716595  0.77938486  0.93079849  1
  Te  Te171  1  0.92028742  0.08512232  0.23521513  1
  Te  Te172  1  0.92352904  0.08343573  0.60181057  1
  Te  Te173  1  0.94393116  0.06692687  0.95278267  1
  Te  Te174  1  0.95374965  0.36904447  0.22248182  1
  Te  Te175  1  0.92852889  0.39577660  0.58952658  1
  Te  Te176  1  0.91577417  0.41690989  0.93378136  1
  Te  Te177  1  0.90202935  0.76771314  0.24750688  1
  Te  Te178  1  0.90974928  0.76082943  0.59454040  1
  Te  Te179  1  0.92108788  0.78991771  0.89980036  1
