# generated using pymatgen
data_In2Te3
_symmetry_space_group_name_H-M   'P 1'
_cell_length_a   19.00083406
_cell_length_b   18.98212873
_cell_length_c   18.96989989
_cell_angle_alpha   90.05647658
_cell_angle_beta   89.94497403
_cell_angle_gamma   89.96210237
_symmetry_Int_Tables_number   1
_chemical_formula_structural   In2Te3
_chemical_formula_sum   'In72 Te108'
_cell_volume   6841.98490820
_cell_formula_units_Z   36
loop_
 _symmetry_equiv_pos_site_id
 _symmetry_equiv_pos_as_xyz
  1  'x, y, z'
loop_
 _atom_site_type_symbol
 _atom_site_label
 _atom_site_symmetry_multiplicity
 _atom_site_fract_x
 _atom_site_fract_y
 _atom_site_fract_z
 _atom_site_occupancy
  In  In0  1  0.66651263  0.16154885  0.49330843  1
  In  In1  1  0.83845554  0.00301453  0.84182530  1
  In  In2  1  0.17152649  0.34780335  0.80950245  1
  In  In3  1  0.51579147  0.17195947  -0.02858599  1
  In  In4  1  0.15735876  0.01054871  0.82004431  1
  In  In5  1  0.31546103  0.67267340  0.33968349  1
  In  In6  1  0.16820431  0.17205096  0.00432579  1
  In  In7  1  0.67976312  0.84141785  0.83077356  1
  In  In8  1  0.48762357  -0.00341888  0.82818190  1
  In  In9  1  0.32352979  0.19546435  0.52524869  1
  In  In10  1  0.02518022  0.81985735  0.85416763  1
  In  In11  1  0.85196380  0.46446974  0.64728475  1
  In  In12  1  0.15385554  0.32081335  0.17856733  1
  In  In13  1  0.00164604  0.65256497  -0.00603239  1
  In  In14  1  -0.01800236  0.00744712  0.34034503  1
  In  In15  1  0.66759426  0.33598329  0.66562875  1
  In  In16  1  -0.02622015  0.44013422  0.82569225  1
  In  In17  1  -0.01065157  0.32746691  0.00667240  1
  In  In18  1  0.15116710  0.33389839  0.48933552  1
  In  In19  1  0.32316352  0.02115643  0.65622750  1
  In  In20  1  0.32409151  0.82539119  0.51997035  1
  In  In21  1  0.00144536  0.83534364  0.49642345  1
  In  In22  1  0.49961554  0.83052456  0.34988683  1
  In  In23  1  0.48930934  0.65143964  0.81333672  1
  In  In24  1  0.84189217  0.17091512  0.00697623  1
  In  In25  1  0.67916069  0.16876345  0.17368201  1
  In  In26  1  0.85903818  0.20459737  0.69091812  1
  In  In27  1  0.00845326  0.00833404  0.67103579  1
  In  In28  1  0.34560545  0.49021675  0.81979404  1
  In  In29  1  0.16868356  0.50996934  -0.01099595  1
  In  In30  1  0.84665349  0.66492137  0.82140852  1
  In  In31  1  0.83391854  0.67679728  0.17078258  1
  In  In32  1  0.51501354  0.83426961  0.01167660  1
  In  In33  1  0.85364810  0.51413904  0.33511881  1
  In  In34  1  0.68732337  0.16270547  0.84297596  1
  In  In35  1  0.00444920  0.34200534  0.33356809  1
  In  In36  1  0.28623803  0.78628482  0.87876747  1
  In  In37  1  0.84494173  0.00185256  0.17747510  1
  In  In38  1  0.32293120  0.51111564  0.49067443  1
  In  In39  1  0.16267571  0.83683065  0.33250154  1
  In  In40  1  -0.00350451  0.17401874  0.47387007  1
  In  In41  1  0.02171134  0.53009494  0.18909017  1
  In  In42  1  0.51120783  0.00358643  0.17282789  1
  In  In43  1  0.33173219  0.83732471  0.13329174  1
  In  In44  1  0.33842529  -0.01517229  0.00666315  1
  In  In45  1  0.68419573  -0.00053184  0.31908890  1
  In  In46  1  0.69494705  0.47579325  0.13240326  1
  In  In47  1  0.32200083  0.34158506  0.32354056  1
  In  In48  1  0.67024171  0.51958970  0.49763356  1
  In  In49  1  0.48863166  0.33364823  0.14868330  1
  In  In50  1  0.49985235  0.47459657  0.33840535  1
  In  In51  1  0.67768567  0.67611105  0.34769647  1
  In  In52  1  -0.00399725  0.01408439  0.00197703  1
  In  In53  1  0.82772830  0.00253883  0.49600163  1
  In  In54  1  0.66858605  0.50800222  0.83842075  1
  In  In55  1  0.67315881  0.67128870  0.01431400  1
  In  In56  1  0.68292962  0.31658265  0.33585399  1
  In  In57  1  0.50140633  0.01897593  0.50057854  1
  In  In58  1  0.31946975  0.64932514  0.66459001  1
  In  In59  1  0.33642307  0.01835043  0.34024560  1
  In  In60  1  0.31271970  0.48447254  0.15189052  1
  In  In61  1  0.52883942  0.80434148  0.64818230  1
  In  In62  1  0.49874652  0.48416334  0.66879561  1
  In  In63  1  0.51037658  0.65304341  0.18583807  1
  In  In64  1  -0.01132502  0.80923852  0.18121689  1
  In  In65  1  0.32696857  0.19026945  0.81679499  1
  In  In66  1  0.50789339  0.34304354  0.82379035  1
  In  In67  1  0.82753331  0.84882965  0.65262878  1
  In  In68  1  0.16486488  0.82531285  0.67448608  1
  In  In69  1  0.13859017  0.51291850  0.63956072  1
  In  In70  1  0.32854786  0.16624067  0.17913644  1
  In  In71  1  0.85837415  0.66211371  0.50048167  1
  Te  Te72  1  0.06876341  0.10724744  0.09191490  1
  Te  Te73  1  0.08269189  0.06354305  0.43100464  1
  Te  Te74  1  0.08502766  0.11191832  0.74374163  1
  Te  Te75  1  0.08377544  0.42626522  0.08679786  1
  Te  Te76  1  0.07573920  0.44072891  0.41829510  1
  Te  Te77  1  0.06749503  0.39768500  0.71033496  1
  Te  Te78  1  0.08230447  0.74414148  0.08183807  1
  Te  Te79  1  0.08245812  0.74131019  0.41385744  1
  Te  Te80  1  0.10012001  0.73166259  0.76578903  1
  Te  Te81  1  0.42746841  0.08989519  0.07506781  1
  Te  Te82  1  0.41421219  0.11418388  0.42405429  1
  Te  Te83  1  0.42271397  0.09993221  0.73913628  1
  Te  Te84  1  0.41832136  0.43148006  0.06703370  1
  Te  Te85  1  0.40939175  0.39972206  0.43293166  1
  Te  Te86  1  0.39573080  0.38091091  0.71498368  1
  Te  Te87  1  0.42861618  0.73212206  0.08245186  1
  Te  Te88  1  0.41431500  0.73871567  0.43405380  1
  Te  Te89  1  0.40813004  0.75111914  0.73350840  1
  Te  Te90  1  0.75126470  0.07411158  0.07999492  1
  Te  Te91  1  0.76655780  0.09965849  0.39743879  1
  Te  Te92  1  0.76727218  0.08726693  0.73950265  1
  Te  Te93  1  0.77210042  0.38456123  0.04668590  1
  Te  Te94  1  0.75544572  0.42876552  0.41240297  1
  Te  Te95  1  0.75564175  0.41349539  0.75900299  1
  Te  Te96  1  0.74669739  0.76654380  0.09582109  1
  Te  Te97  1  0.74313870  0.75356988  0.45802671  1
  Te  Te98  1  0.75062245  0.74665908  0.73692729  1
  Te  Te99  1  0.08627434  0.23455174  0.27436335  1
  Te  Te100  1  0.06229721  0.25504187  0.57674534  1
  Te  Te101  1  0.09196478  0.26496125  0.91428881  1
  Te  Te102  1  0.05383185  0.64227674  0.27822906  1
  Te  Te103  1  0.03850761  0.59264552  0.56846292  1
  Te  Te104  1  0.05888339  0.55226227  0.89718078  1
  Te  Te105  1  0.06848826  0.91907397  0.24819153  1
  Te  Te106  1  0.09381948  0.92096475  0.58170200  1
  Te  Te107  1  0.09958421  0.92618453  0.93134402  1
  Te  Te108  1  0.42550924  0.25086084  0.25811783  1
  Te  Te109  1  0.41407628  0.26356297  0.61443545  1
  Te  Te110  1  0.41258243  0.26630665  0.91589887  1
  Te  Te111  1  0.40682743  0.56739495  0.25853771  1
  Te  Te112  1  0.42497976  0.58261472  0.58015602  1
  Te  Te113  1  0.40074184  0.59016418  0.91089548  1
  Te  Te114  1  0.41519675  0.91062134  0.24899052  1
  Te  Te115  1  0.42359457  0.91553963  0.58992819  1
  Te  Te116  1  0.41144166  0.89142147  0.90950311  1
  Te  Te117  1  0.76773919  0.27234143  0.22604323  1
  Te  Te118  1  0.76375644  0.25459159  0.58202274  1
  Te  Te119  1  0.75075388  0.26253853  0.93176527  1
  Te  Te120  1  0.73727825  0.57638317  0.24701508  1
  Te  Te121  1  0.76930812  0.57994397  0.59348143  1
  Te  Te122  1  0.76345782  0.58904086  0.92432305  1
  Te  Te123  1  0.77062007  0.90099580  0.25553556  1
  Te  Te124  1  0.73176887  0.93053347  0.58021835  1
  Te  Te125  1  0.75995504  0.91529240  0.92699179  1
  Te  Te126  1  0.25947446  0.26268272  0.08539101  1
  Te  Te127  1  0.23838519  0.24515039  0.40182842  1
  Te  Te128  1  0.21826254  0.23280876  0.72844551  1
  Te  Te129  1  0.23895472  0.59639290  0.08768126  1
  Te  Te130  1  0.22473819  0.58240482  0.40895722  1
  Te  Te131  1  0.23285635  0.56621657  0.75341291  1
  Te  Te132  1  0.23301110  0.93921775  0.09682765  1
  Te  Te133  1  0.25611582  0.91732571  0.42205056  1
  Te  Te134  1  0.25768215  0.91986700  0.75101294  1
  Te  Te135  1  0.59131470  0.24983190  0.07513290  1
  Te  Te136  1  0.58265622  0.26045782  0.42405790  1
  Te  Te137  1  0.59077470  0.23843530  0.75239673  1
  Te  Te138  1  0.58352939  0.57015931  0.08173115  1
  Te  Te139  1  0.56863243  0.58926980  0.41031522  1
  Te  Te140  1  0.59500748  0.58495811  0.72908203  1
  Te  Te141  1  0.59982342  0.91784719  0.09478937  1
  Te  Te142  1  0.59116609  0.92771224  0.41856526  1
  Te  Te143  1  0.58245571  0.91520475  0.74172857  1
  Te  Te144  1  0.94374156  0.22379956  0.10243335  1
  Te  Te145  1  0.89986115  0.27738036  0.42132711  1
  Te  Te146  1  0.92830825  0.29922270  0.77722018  1
  Te  Te147  1  0.91424793  0.57678003  0.09168192  1
  Te  Te148  1  0.94733163  0.54708526  0.45084889  1
  Te  Te149  1  0.92244880  0.56279810  0.74272300  1
  Te  Te150  1  0.92408082  0.91042646  0.08353566  1
  Te  Te151  1  0.89768466  0.90055966  0.40896034  1
  Te  Te152  1  0.93341317  0.90759975  0.75819695  1
  Te  Te153  1  0.24118473  0.06771123  0.24037182  1
  Te  Te154  1  0.23404773  0.08408840  0.56079384  1
  Te  Te155  1  0.26500061  0.08308945  0.91436709  1
  Te  Te156  1  0.22022954  0.43248660  0.25930206  1
  Te  Te157  1  0.24091103  0.42018724  0.57905566  1
  Te  Te158  1  0.25767371  0.41092813  0.91662921  1
  Te  Te159  1  0.24815214  0.75682101  0.23529018  1
  Te  Te160  1  0.22490207  0.72576439  0.57466486  1
  Te  Te161  1  0.20707918  0.72833307  0.98490386  1
  Te  Te162  1  0.58068449  0.09849220  0.26643656  1
  Te  Te163  1  0.58545859  0.09293132  0.59395613  1
  Te  Te164  1  0.59629492  0.05873965  0.91295796  1
  Te  Te165  1  0.59335417  0.41423163  0.23603819  1
  Te  Te166  1  0.58436625  0.41288752  0.56572675  1
  Te  Te167  1  0.57785782  0.42720847  0.91913387  1
  Te  Te168  1  0.59277511  0.76058557  0.25282227  1
  Te  Te169  1  0.61470941  0.75103922  0.54664845  1
  Te  Te170  1  0.58270924  0.74035108  0.90381434  1
  Te  Te171  1  0.91571136  0.10546466  0.25330657  1
  Te  Te172  1  0.91128561  0.09092796  0.58826142  1
  Te  Te173  1  0.93181088  0.10521174  0.90011735  1
  Te  Te174  1  0.92110870  0.42514877  0.23369354  1
  Te  Te175  1  0.89799799  0.36075107  0.55292864  1
  Te  Te176  1  0.88923374  0.42421143  0.95191894  1
  Te  Te177  1  0.92100712  0.71996692  0.28565468  1
  Te  Te178  1  0.93207821  0.75063611  0.60136172  1
  Te  Te179  1  0.90985651  0.75449924  0.92639235  1
