# generated using pymatgen
data_In2Te3
_symmetry_space_group_name_H-M   'P 1'
_cell_length_a   18.98902706
_cell_length_b   18.96888049
_cell_length_c   18.97042691
_cell_angle_alpha   90.03242379
_cell_angle_beta   90.12385566
_cell_angle_gamma   89.69104099
_symmetry_Int_Tables_number   1
_chemical_formula_structural   In2Te3
_chemical_formula_sum   'In72 Te108'
_cell_volume   6833.04250990
_cell_formula_units_Z   36
loop_
 _symmetry_equiv_pos_site_id
 _symmetry_equiv_pos_as_xyz
  1  'x, y, z'
loop_
 _atom_site_type_symbol
 _atom_site_label
 _atom_site_symmetry_multiplicity
 _atom_site_fract_x
 _atom_site_fract_y
 _atom_site_fract_z
 _atom_site_occupancy
  In  In0  1  0.50012933  -0.03671738  0.50518635  1
  In  In1  1  0.02282387  0.68786239  0.68464547  1
  In  In2  1  0.64455510  0.19303626  0.51956607  1
  In  In3  1  0.67236300  0.14479806  0.84628529  1
  In  In4  1  0.87098407  0.50181295  0.32922003  1
  In  In5  1  0.20394065  0.52064220  0.68242727  1
  In  In6  1  0.65130670  0.51271383  0.53761670  1
  In  In7  1  0.68131180  0.65185353  0.65572797  1
  In  In8  1  0.17828375  0.35082662  0.84822492  1
  In  In9  1  0.00829563  0.50226795  0.85523460  1
  In  In10  1  0.82226699  0.14350060  0.33432884  1
  In  In11  1  0.84752402  0.00024864  0.14596288  1
  In  In12  1  0.68568758  0.31274918  0.34543059  1
  In  In13  1  0.84758167  0.34842602  0.49603249  1
  In  In14  1  0.65323258  0.33529293  -0.01801549  1
  In  In15  1  0.03002128  0.50600744  0.17962398  1
  In  In16  1  0.64987109  0.50289009  0.13081248  1
  In  In17  1  -0.01651694  -0.01408411  0.68479167  1
  In  In18  1  0.84726657  0.67079287  0.15938933  1
  In  In19  1  0.15742195  0.34517791  0.17412196  1
  In  In20  1  0.47795282  0.17492590  0.65058912  1
  In  In21  1  0.82038032  0.65236073  0.84364919  1
  In  In22  1  0.66395719  -0.01308708  0.69467224  1
  In  In23  1  0.66992441  0.14370843  0.16440011  1
  In  In24  1  0.14252285  0.18030270  0.69289779  1
  In  In25  1  0.33205305  -0.02170036  -0.00377074  1
  In  In26  1  0.18411889  0.52235217  0.00026457  1
  In  In27  1  0.47872587  0.32713273  0.49277350  1
  In  In28  1  0.15576120  -0.01199632  0.10650996  1
  In  In29  1  0.42901440  0.16640532  0.33016124  1
  In  In30  1  0.49698113  0.50395059  0.30984144  1
  In  In31  1  0.01630481  0.34297056  0.33647983  1
  In  In32  1  0.49149853  0.58078303  -0.04811867  1
  In  In33  1  0.31318321  0.81960681  0.82893954  1
  In  In34  1  0.14697260  -0.00117870  0.87649022  1
  In  In35  1  0.50965718  -0.00406453  0.80627298  1
  In  In36  1  -0.02879557  0.32488018  0.00129724  1
  In  In37  1  0.31874319  0.50961504  0.50671657  1
  In  In38  1  0.48483899  0.68522306  0.48457924  1
  In  In39  1  0.01977051  -0.00473160  0.34609102  1
  In  In40  1  0.84864172  -0.00036648  0.50093437  1
  In  In41  1  0.16120617  0.67805396  0.48239589  1
  In  In42  1  0.01269020  0.16167122  0.51700915  1
  In  In43  1  0.31455361  0.50819681  0.17146882  1
  In  In44  1  0.46912970  0.52403082  0.71707736  1
  In  In45  1  0.49437164  -0.03635973  0.15716274  1
  In  In46  1  0.16681086  0.83530565  0.66021075  1
  In  In47  1  0.13780661  0.18178602  -0.02003730  1
  In  In48  1  0.45425785  0.71021787  0.16293346  1
  In  In49  1  -0.00805606  0.82919660  0.16056902  1
  In  In50  1  0.32997262  0.00859223  0.31427674  1
  In  In51  1  0.32404033  0.85321937  0.50484760  1
  In  In52  1  0.03743399  0.67969459  0.00933250  1
  In  In53  1  0.65778215  -0.03246030  0.00215492  1
  In  In54  1  0.68202534  0.66247871  0.32144330  1
  In  In55  1  0.50019522  0.33777883  0.83682454  1
  In  In56  1  0.68737366  -0.02119362  0.31885145  1
  In  In57  1  0.81977226  0.50527086  0.00178111  1
  In  In58  1  0.85814799  0.18721836  0.79626019  1
  In  In59  1  0.65390188  0.82829207  0.16261821  1
  In  In60  1  0.67718904  0.33613741  0.68466179  1
  In  In61  1  0.85585706  0.85242735  0.68915797  1
  In  In62  1  0.83258966  0.48528625  0.66434443  1
  In  In63  1  0.32442479  0.16285802  0.14675066  1
  In  In64  1  0.33652013  0.00526539  0.66265876  1
  In  In65  1  0.00900317  0.82920890  0.49120801  1
  In  In66  1  0.35178279  0.34825585  -0.00473282  1
  In  In67  1  0.82661136  0.82265873  0.00673867  1
  In  In68  1  0.49949006  0.31512227  0.16233965  1
  In  In69  1  0.02049499  0.49710631  0.47876778  1
  In  In70  1  0.67396136  0.81126222  0.49112605  1
  In  In71  1  0.18452979  0.01872466  0.48630843  1
  Te  Te72  1  0.06267091  0.10387112  0.07901510  1
  Te  Te73  1  0.09967658  0.11165635  0.40254203  1
  Te  Te74  1  0.06453633  0.07748096  0.77494657  1
  Te  Te75  1  0.08541796  0.42045460  0.05432760  1
  Te  Te76  1  0.11610445  0.39774042  0.42819848  1
  Te  Te77  1  0.09660693  0.43616123  0.75188318  1
  Te  Te78  1  0.10704689  0.73181495  0.13050136  1
  Te  Te79  1  0.09725588  0.77247296  0.38584588  1
  Te  Te80  1  0.08715460  0.78585407  0.77344824  1
  Te  Te81  1  0.42326262  0.07286807  0.07759394  1
  Te  Te82  1  0.40595367  0.06027504  0.44019556  1
  Te  Te83  1  0.40634234  0.09833517  0.75934835  1
  Te  Te84  1  0.42581862  0.43146191  0.09715850  1
  Te  Te85  1  0.40875597  0.42848798  0.40578949  1
  Te  Te86  1  0.40095822  0.40039638  0.74814650  1
  Te  Te87  1  0.36627917  0.76738169  0.05633330  1
  Te  Te88  1  0.39958873  0.77358092  0.40584371  1
  Te  Te89  1  0.40283515  0.72260016  0.75702132  1
  Te  Te90  1  0.75111219  0.07516856  0.05684414  1
  Te  Te91  1  0.72736708  0.07909445  0.43207994  1
  Te  Te92  1  0.77166399  0.05728290  0.77359283  1
  Te  Te93  1  0.74960092  0.39765676  0.08236646  1
  Te  Te94  1  0.75233241  0.43060734  0.41154952  1
  Te  Te95  1  0.73625031  0.44221861  0.76450590  1
  Te  Te96  1  0.73307579  0.72845590  0.08007808  1
  Te  Te97  1  0.76945220  0.74429843  0.40375791  1
  Te  Te98  1  0.75836893  0.74866436  0.74432598  1
  Te  Te99  1  0.07772659  0.24633423  0.24481594  1
  Te  Te100  1  0.09400737  0.26369292  0.58105218  1
  Te  Te101  1  0.04773547  0.26524536  0.87926843  1
  Te  Te102  1  0.11864866  0.56248392  0.28441777  1
  Te  Te103  1  0.09156500  0.59109550  0.58918809  1
  Te  Te104  1  0.10940730  0.60697204  0.89690151  1
  Te  Te105  1  0.08525703  0.92442310  0.23190548  1
  Te  Te106  1  0.08080601  0.93820107  0.57113947  1
  Te  Te107  1  0.12184177  0.90538690  0.98491762  1
  Te  Te108  1  0.37136570  0.28305356  0.24156865  1
  Te  Te109  1  0.38232644  0.25283599  0.57247957  1
  Te  Te110  1  0.43291191  0.24687027  0.92861566  1
  Te  Te111  1  0.39795553  0.60594479  0.25802843  1
  Te  Te112  1  0.42875339  0.58206494  0.58348543  1
  Te  Te113  1  0.36705143  0.62730416  0.87747525  1
  Te  Te114  1  0.40845304  0.89719823  0.25518217  1
  Te  Te115  1  0.42478251  0.89224770  0.61516778  1
  Te  Te116  1  0.41750992  0.90804051  0.89332573  1
  Te  Te117  1  0.76188594  0.24181128  0.23504941  1
  Te  Te118  1  0.76351057  0.25857127  0.58714395  1
  Te  Te119  1  0.75423756  0.25907135  0.89730211  1
  Te  Te120  1  0.75463702  0.56247713  0.23063482  1
  Te  Te121  1  0.78137418  0.58525896  0.56103985  1
  Te  Te122  1  0.72058099  0.59534682  0.93713357  1
  Te  Te123  1  0.77327693  0.89526098  0.22791596  1
  Te  Te124  1  0.75239549  0.91468009  0.58191750  1
  Te  Te125  1  0.73628665  0.88556409  0.90969239  1
  Te  Te126  1  0.24044691  0.26769040  0.06345083  1
  Te  Te127  1  0.30180497  0.22542750  0.36694146  1
  Te  Te128  1  0.24575012  0.24410000  0.77534706  1
  Te  Te129  1  0.26871806  0.61590335  0.07828549  1
  Te  Te130  1  0.26224939  0.60166521  0.40508871  1
  Te  Te131  1  0.27520267  0.63181191  0.74777890  1
  Te  Te132  1  0.27852314  0.89312371  0.10673254  1
  Te  Te133  1  0.23707602  0.91306744  0.39476056  1
  Te  Te134  1  0.23549456  0.93876660  0.75522901  1
  Te  Te135  1  0.58528203  0.23095350  0.07136849  1
  Te  Te136  1  0.56343788  0.23650965  0.39181428  1
  Te  Te137  1  0.59045312  0.22755858  0.74460991  1
  Te  Te138  1  0.54810322  0.60605310  0.09501493  1
  Te  Te139  1  0.58506572  0.57901117  0.41652650  1
  Te  Te140  1  0.58982644  0.59824619  0.76428414  1
  Te  Te141  1  0.55510842  0.86878625  0.05448383  1
  Te  Te142  1  0.58750349  0.89753229  0.40059134  1
  Te  Te143  1  0.59554046  0.88183265  0.76909630  1
  Te  Te144  1  0.92588846  0.20341465  0.07206782  1
  Te  Te145  1  0.91222609  0.23808437  0.41430204  1
  Te  Te146  1  0.96122914  0.28112279  0.75524441  1
  Te  Te147  1  0.93653901  0.57437631  0.07254778  1
  Te  Te148  1  0.94381237  0.60016895  0.40679693  1
  Te  Te149  1  0.92454671  0.58438412  0.74836822  1
  Te  Te150  1  0.93334960  0.92073227  0.05027915  1
  Te  Te151  1  0.90906393  0.90636183  0.40100442  1
  Te  Te152  1  0.94328804  0.90022039  0.79768579  1
  Te  Te153  1  0.23236826  0.07520078  0.22076022  1
  Te  Te154  1  0.24035630  0.10159883  0.59661412  1
  Te  Te155  1  0.25123616  0.09381182  0.92898905  1
  Te  Te156  1  0.22721974  0.43709256  0.26892279  1
  Te  Te157  1  0.25183346  0.41374748  0.59436128  1
  Te  Te158  1  0.27913505  0.44821211  0.90714731  1
  Te  Te159  1  0.18494908  0.69291218  0.26274486  1
  Te  Te160  1  0.25649847  0.74296002  0.58373930  1
  Te  Te161  1  0.26159951  0.74176186  0.94474565  1
  Te  Te162  1  0.57869241  0.05880242  0.24808349  1
  Te  Te163  1  0.57643866  0.06533804  0.59111135  1
  Te  Te164  1  0.57179941  0.06750623  0.92506560  1
  Te  Te165  1  0.59639498  0.40393020  0.24810118  1
  Te  Te166  1  0.57178008  0.39910812  0.59319962  1
  Te  Te167  1  0.56267289  0.44219976  0.92534784  1
  Te  Te168  1  0.57310023  0.74566792  0.25825630  1
  Te  Te169  1  0.57969738  0.74453677  0.58747236  1
  Te  Te170  1  0.58107466  0.68354235  0.89491655  1
  Te  Te171  1  0.92625436  0.07435178  0.25121372  1
  Te  Te172  1  0.90831271  0.09318855  0.60219868  1
  Te  Te173  1  0.90113532  0.14878043  0.93291006  1
  Te  Te174  1  0.92567829  0.40587327  0.22761744  1
  Te  Te175  1  0.94360779  0.41727770  0.58713391  1
  Te  Te176  1  0.89526917  0.41599754  0.90504312  1
  Te  Te177  1  0.93942779  0.72887683  0.25486359  1
  Te  Te178  1  0.92346011  0.75611515  0.59122194  1
  Te  Te179  1  0.91960365  0.73176515  0.92638592  1
