# generated using pymatgen
data_In2Te3
_symmetry_space_group_name_H-M   'P 1'
_cell_length_a   18.91713317
_cell_length_b   18.89671203
_cell_length_c   18.89969330
_cell_angle_alpha   89.95974132
_cell_angle_beta   89.94974256
_cell_angle_gamma   89.91753389
_symmetry_Int_Tables_number   1
_chemical_formula_structural   In2Te3
_chemical_formula_sum   'In72 Te108'
_cell_volume   6756.09268304
_cell_formula_units_Z   36
loop_
 _symmetry_equiv_pos_site_id
 _symmetry_equiv_pos_as_xyz
  1  'x, y, z'
loop_
 _atom_site_type_symbol
 _atom_site_label
 _atom_site_symmetry_multiplicity
 _atom_site_fract_x
 _atom_site_fract_y
 _atom_site_fract_z
 _atom_site_occupancy
  In  In0  1  0.66288670  0.49702572  0.84044855  1
  In  In1  1  -0.01193939  0.49781917  0.82614466  1
  In  In2  1  0.03998045  -0.01172282  0.65642386  1
  In  In3  1  -0.00347814  0.02022826  0.00394043  1
  In  In4  1  0.48994451  0.86423164  0.00652934  1
  In  In5  1  0.49935553  0.17908608  0.34056908  1
  In  In6  1  -0.00606447  0.34447105  0.32366212  1
  In  In7  1  0.47814344  0.30046878  0.83078043  1
  In  In8  1  0.33489097  0.83378883  0.83161216  1
  In  In9  1  0.67081513  0.17850401  0.84559812  1
  In  In10  1  0.66662866  0.49273321  0.48947907  1
  In  In11  1  0.67513082  0.35466474  0.64697888  1
  In  In12  1  0.33881280  0.00039775  0.31675315  1
  In  In13  1  0.69619899  0.33738120  0.31694137  1
  In  In14  1  0.82570176  0.19809305  0.67448239  1
  In  In15  1  0.31049881  0.17328031  0.14598762  1
  In  In16  1  0.65363652  -0.00710335  0.32623269  1
  In  In17  1  0.00724560  0.83337507  0.84591720  1
  In  In18  1  0.16090289  0.46005612  0.00519353  1
  In  In19  1  0.49615004  0.34253154  0.16346433  1
  In  In20  1  0.13869096  0.32730635  0.17618158  1
  In  In21  1  0.50221172  0.49662282  0.35674967  1
  In  In22  1  -0.00681878  0.32817275  0.64999569  1
  In  In23  1  0.36112228  0.66781894  0.33987926  1
  In  In24  1  0.00815077  0.83412665  0.50645749  1
  In  In25  1  0.16918172  0.65782153  0.49663890  1
  In  In26  1  0.17156718  0.51850750  0.64743052  1
  In  In27  1  0.33523999  0.49407424  0.49311716  1
  In  In28  1  0.29924711  0.18960813  0.47080575  1
  In  In29  1  0.15328209  0.32111476  0.84577263  1
  In  In30  1  0.83581700  0.00398381  0.15626383  1
  In  In31  1  0.16289596  0.01036547  0.15043882  1
  In  In32  1  0.82542865  0.02471236  0.50359597  1
  In  In33  1  0.63873582  0.00571742  0.67855545  1
  In  In34  1  0.49416334  0.32463394  0.51450501  1
  In  In35  1  0.32636744  0.01811424  0.67644114  1
  In  In36  1  0.81986319  0.82623569  0.68504460  1
  In  In37  1  0.48477554  0.51108292  0.01050764  1
  In  In38  1  0.49383447  0.14209368  0.67603505  1
  In  In39  1  0.17218214  0.66618027  0.82756181  1
  In  In40  1  0.01061286  0.67797249  0.01416585  1
  In  In41  1  0.84120789  0.83467101  0.00261793  1
  In  In42  1  0.68098516  0.15989899  0.17711773  1
  In  In43  1  0.68942635  0.82083652  0.47162478  1
  In  In44  1  0.85368090  0.50109728  0.03473194  1
  In  In45  1  0.49262388  0.68938317  0.83270466  1
  In  In46  1  0.48987876  0.14607066  0.00761548  1
  In  In47  1  0.30767490  0.47905283  0.18044295  1
  In  In48  1  0.00420585  0.65750762  0.67665919  1
  In  In49  1  0.83712990  -0.00189624  0.85843493  1
  In  In50  1  0.32254439  0.66372312  -0.00688411  1
  In  In51  1  0.48723916  0.85750862  0.67945927  1
  In  In52  1  0.65521659  0.84486886  0.16040193  1
  In  In53  1  0.30850368  0.85311198  0.16912512  1
  In  In54  1  0.85715490  0.14339781  0.32511492  1
  In  In55  1  0.51580827  0.67580205  0.16218861  1
  In  In56  1  0.50599261  0.65435389  0.50458664  1
  In  In57  1  0.48650440  0.81013024  0.34945781  1
  In  In58  1  0.18303324  0.02942070  0.84924709  1
  In  In59  1  0.83464319  0.48523014  0.67057862  1
  In  In60  1  -0.01144884  0.32031293  0.03474381  1
  In  In61  1  0.00065047  0.00253349  0.32566810  1
  In  In62  1  0.14848737  0.17304719  0.66619712  1
  In  In63  1  0.32062578  0.34573038  0.68092971  1
  In  In64  1  0.67416022  0.68446946  0.68157547  1
  In  In65  1  0.11421502  0.65939973  0.19639626  1
  In  In66  1  0.68388058  0.66545893  0.01566692  1
  In  In67  1  0.16404441  0.82781275  0.34301137  1
  In  In68  1  0.68487885  0.33499173  -0.00909457  1
  In  In69  1  0.87677001  0.80499272  0.30595291  1
  In  In70  1  0.86404023  0.62825033  0.48040362  1
  In  In71  1  0.01796874  0.15659535  0.47689074  1
  Te  Te72  1  0.10719841  0.10936635  0.05237704  1
  Te  Te73  1  0.10319776  0.05351840  0.41694371  1
  Te  Te74  1  0.06973434  0.08995667  0.76665039  1
  Te  Te75  1  0.05470368  0.43994445  0.10992491  1
  Te  Te76  1  0.06135475  0.45869524  0.39014052  1
  Te  Te77  1  0.08875503  0.42250221  0.74127587  1
  Te  Te78  1  0.11430033  0.75437721  0.08339000  1
  Te  Te79  1  0.06562853  0.73128525  0.41017257  1
  Te  Te80  1  0.09256613  0.76486182  0.73744203  1
  Te  Te81  1  0.39599791  0.06396159  0.09022560  1
  Te  Te82  1  0.40667346  0.09182224  0.42187343  1
  Te  Te83  1  0.41939503  0.07002511  0.78372341  1
  Te  Te84  1  0.39250135  0.40843410  0.07356034  1
  Te  Te85  1  0.40739580  0.39070232  0.40765395  1
  Te  Te86  1  0.43028769  0.41327619  0.75001820  1
  Te  Te87  1  0.40601062  0.75076321  0.08755987  1
  Te  Te88  1  0.39528808  0.75467715  0.45820074  1
  Te  Te89  1  0.39791371  0.74378401  0.72632773  1
  Te  Te90  1  0.73811931  0.07416818  0.07222414  1
  Te  Te91  1  0.73476649  0.09591206  0.40422403  1
  Te  Te92  1  0.75768937  0.08040176  0.74524725  1
  Te  Te93  1  0.74499399  0.41924609  0.09800644  1
  Te  Te94  1  0.77085059  0.43016965  0.40547477  1
  Te  Te95  1  0.75611393  0.40021606  0.76877662  1
  Te  Te96  1  0.76490750  0.75365590  0.10882821  1
  Te  Te97  1  0.78204521  0.72600966  0.39420906  1
  Te  Te98  1  0.73422263  0.76635592  0.78821197  1
  Te  Te99  1  0.08561122  0.23245091  0.28141443  1
  Te  Te100  1  0.09318970  0.26314769  0.55608248  1
  Te  Te101  1  0.08279235  0.23805448  0.94779413  1
  Te  Te102  1  0.11497049  0.52508140  0.26053483  1
  Te  Te103  1  0.05535759  0.57069897  0.56551505  1
  Te  Te104  1  0.08283594  0.57692684  0.91763386  1
  Te  Te105  1  0.08784821  0.91088723  0.24095038  1
  Te  Te106  1  0.12644605  0.90442751  0.56599682  1
  Te  Te107  1  0.09051750  0.92870081  0.92472417  1
  Te  Te108  1  0.40787473  0.24791253  0.24216670  1
  Te  Te109  1  0.39711584  0.23658320  0.59172722  1
  Te  Te110  1  0.39252592  0.23822895  0.93603120  1
  Te  Te111  1  0.42569975  0.56930811  0.23674265  1
  Te  Te112  1  0.40189622  0.58767206  0.58363474  1
  Te  Te113  1  0.40751979  0.58020155  0.90023469  1
  Te  Te114  1  0.43188134  0.90353132  0.24251033  1
  Te  Te115  1  0.41324381  0.94058281  0.58571575  1
  Te  Te116  1  0.41397485  0.93603860  0.90286593  1
  Te  Te117  1  0.79246524  0.25270127  0.22766466  1
  Te  Te118  1  0.75300167  0.26113022  0.56529187  1
  Te  Te119  1  0.77775926  0.24070973  0.92638718  1
  Te  Te120  1  0.79900747  0.54442297  0.19812507  1
  Te  Te121  1  0.74808887  0.58882869  0.58427998  1
  Te  Te122  1  0.76190876  0.57090780  0.92777437  1
  Te  Te123  1  0.76762444  0.91417940  0.26215650  1
  Te  Te124  1  0.74762596  0.91598919  0.57879039  1
  Te  Te125  1  0.74147442  0.91393850  0.92936236  1
  Te  Te126  1  0.22485260  0.26801311  0.07087716  1
  Te  Te127  1  0.20980535  0.26292817  0.37790208  1
  Te  Te128  1  0.25377499  0.23274228  0.76015767  1
  Te  Te129  1  0.23927942  0.57276269  0.08047596  1
  Te  Te130  1  0.25224747  0.57703547  0.39726678  1
  Te  Te131  1  0.25949693  0.58355517  0.74394296  1
  Te  Te132  1  0.27098951  0.95155483  0.06468217  1
  Te  Te133  1  0.27021547  0.90547141  0.40740855  1
  Te  Te134  1  0.23761351  0.92320449  0.75488435  1
  Te  Te135  1  0.58686195  0.24967302  0.08348599  1
  Te  Te136  1  0.59497991  0.26947929  0.41502987  1
  Te  Te137  1  0.59085952  0.25479224  0.73325425  1
  Te  Te138  1  0.59773258  0.56699253  0.09442457  1
  Te  Te139  1  0.60390973  0.60038367  0.40093518  1
  Te  Te140  1  0.57936526  0.58968052  0.75336588  1
  Te  Te141  1  0.58951938  0.94610859  0.07875729  1
  Te  Te142  1  0.57436167  0.91167260  0.42602220  1
  Te  Te143  1  0.59304593  0.90101678  0.77012174  1
  Te  Te144  1  0.90675360  0.23424578  0.12047751  1
  Te  Te145  1  0.91221002  0.24803218  0.41808409  1
  Te  Te146  1  0.93061866  0.25329339  0.75868984  1
  Te  Te147  1  0.91265625  0.61738701  0.11446061  1
  Te  Te148  1  0.91098722  0.54850913  0.36456542  1
  Te  Te149  1  0.89228742  0.59517012  0.75860509  1
  Te  Te150  1  0.93726497  0.90907908  0.09179311  1
  Te  Te151  1  0.90860281  0.91853549  0.42244061  1
  Te  Te152  1  0.92698564  0.91864231  0.74485217  1
  Te  Te153  1  0.23653589  0.09287563  0.25400493  1
  Te  Te154  1  0.23864459  0.09376626  0.57330426  1
  Te  Te155  1  0.28857709  0.12531501  0.88800759  1
  Te  Te156  1  0.24778451  0.37666664  0.27193027  1
  Te  Te157  1  0.23733153  0.40503582  0.56796128  1
  Te  Te158  1  0.24826463  0.42139061  0.89495934  1
  Te  Te159  1  0.25521269  0.73366084  0.25013139  1
  Te  Te160  1  0.19471605  0.76339330  0.59374733  1
  Te  Te161  1  0.23465941  0.76643437  0.92488089  1
  Te  Te162  1  0.56560570  0.08383916  0.24224273  1
  Te  Te163  1  0.58866502  0.09529496  0.57472115  1
  Te  Te164  1  0.57263833  0.08510876  0.90109371  1
  Te  Te165  1  0.58829560  0.42417192  0.25247266  1
  Te  Te166  1  0.56243109  0.43918531  0.58676173  1
  Te  Te167  1  0.56592138  0.40969256  0.92259934  1
  Te  Te168  1  0.59983231  0.74767018  0.26414773  1
  Te  Te169  1  0.59215271  0.75955636  0.57737940  1
  Te  Te170  1  0.57214392  0.74664131  0.94806033  1
  Te  Te171  1  0.94755125  0.09579229  0.21011134  1
  Te  Te172  1  0.93596406  0.08294254  0.58882713  1
  Te  Te173  1  0.90099964  0.10777290  0.93218838  1
  Te  Te174  1  0.89446628  0.44041272  0.25123453  1
  Te  Te175  1  0.91350070  0.41945019  0.56724118  1
  Te  Te176  1  0.92010655  0.41023887  0.92710288  1
  Te  Te177  1  0.97648564  0.72000464  0.23983260  1
  Te  Te178  1  0.90770835  0.74710940  0.58497965  1
  Te  Te179  1  0.91327163  0.73527727  0.91149290  1
