# generated using pymatgen
data_In2Te3
_symmetry_space_group_name_H-M   'P 1'
_cell_length_a   18.94620183
_cell_length_b   18.92708259
_cell_length_c   18.93999982
_cell_angle_alpha   90.27520029
_cell_angle_beta   89.83694992
_cell_angle_gamma   89.97856875
_symmetry_Int_Tables_number   1
_chemical_formula_structural   In2Te3
_chemical_formula_sum   'In72 Te108'
_cell_volume   6791.70801177
_cell_formula_units_Z   36
loop_
 _symmetry_equiv_pos_site_id
 _symmetry_equiv_pos_as_xyz
  1  'x, y, z'
loop_
 _atom_site_type_symbol
 _atom_site_label
 _atom_site_symmetry_multiplicity
 _atom_site_fract_x
 _atom_site_fract_y
 _atom_site_fract_z
 _atom_site_occupancy
  In  In0  1  0.16078792  -0.00602516  0.20274584  1
  In  In1  1  -0.00820354  0.65828873  0.33758418  1
  In  In2  1  0.49296667  0.15437701  0.65381137  1
  In  In3  1  0.33818887  0.83570294  0.19564861  1
  In  In4  1  0.82581461  0.80779504  -0.00627425  1
  In  In5  1  0.81165464  0.69765804  0.49357200  1
  In  In6  1  0.15621756  0.02107614  0.50464686  1
  In  In7  1  0.84592049  0.34472198  0.82428388  1
  In  In8  1  0.81927916  0.16310218  0.66865442  1
  In  In9  1  0.15667245  0.35376810  0.51681286  1
  In  In10  1  0.66085628  0.68513294  0.64188739  1
  In  In11  1  0.49636052  0.15995489  -0.02230557  1
  In  In12  1  0.32660479  0.65900838  -0.00717350  1
  In  In13  1  0.15634629  0.18351956  -0.01808420  1
  In  In14  1  0.50395669  0.16755201  0.30826238  1
  In  In15  1  0.37685895  -0.03255705  0.34387142  1
  In  In16  1  0.68853968  0.35120925  0.31934128  1
  In  In17  1  -0.00658397  0.18185077  0.16530968  1
  In  In18  1  0.50040387  0.32670246  0.15728089  1
  In  In19  1  0.17578456  -0.00800004  0.84453477  1
  In  In20  1  0.14549291  0.36976400  0.16675964  1
  In  In21  1  0.13232911  0.80014891  0.69197264  1
  In  In22  1  0.35415444  -0.01717079  0.00567478  1
  In  In23  1  0.67467167  0.17618180  0.18032299  1
  In  In24  1  0.80994184  -0.00288591  0.49160887  1
  In  In25  1  0.81907599  -0.02354638  0.19235084  1
  In  In26  1  -0.00525370  0.01542453  0.67784387  1
  In  In27  1  0.86473492  0.83855651  0.68302459  1
  In  In28  1  0.48781190  0.33026554  0.83933825  1
  In  In29  1  0.84917277  0.39345838  0.15001794  1
  In  In30  1  0.00480980  0.20291814  0.51587450  1
  In  In31  1  0.51640658  0.83100501  0.00709647  1
  In  In32  1  0.49526234  0.69365053  0.82473416  1
  In  In33  1  0.15011990  0.51056242  -0.02446227  1
  In  In34  1  0.64527872  -0.09229073  0.35696735  1
  In  In35  1  0.66702356  0.31551357  0.66012979  1
  In  In36  1  0.32307276  0.52223633  0.48098923  1
  In  In37  1  0.68292690  0.50077938  0.85060025  1
  In  In38  1  0.51496569  0.51357403  0.02674432  1
  In  In39  1  0.50823917  0.48586939  0.68560070  1
  In  In40  1  0.34455940  0.85172681  0.82918692  1
  In  In41  1  0.49248290  0.52706860  0.34436902  1
  In  In42  1  0.82285094  0.19572723  -0.01085620  1
  In  In43  1  0.66172101  0.52005856  0.46170496  1
  In  In44  1  0.65933829  -0.00484589  0.66178989  1
  In  In45  1  0.34077462  0.49634775  0.19264802  1
  In  In46  1  -0.00491502  0.81751240  0.49924870  1
  In  In47  1  0.00368158  0.49073329  0.82812864  1
  In  In48  1  0.16923460  0.19025700  0.30567914  1
  In  In49  1  0.33029002  0.15802401  0.14646460  1
  In  In50  1  0.02040521  -0.02359204  0.33606115  1
  In  In51  1  0.67737948  0.51676831  0.16669636  1
  In  In52  1  0.31579628  0.19732142  0.80985489  1
  In  In53  1  0.51377130  -0.05528891  0.18369901  1
  In  In54  1  0.32681297  0.65712593  0.64923040  1
  In  In55  1  0.49766539  0.32160934  0.48830055  1
  In  In56  1  0.84514492  0.63666929  0.83493283  1
  In  In57  1  0.66865514  0.84241847  0.82602141  1
  In  In58  1  0.15554988  0.81093788  0.01599507  1
  In  In59  1  0.33151719  0.16340926  0.48525315  1
  In  In60  1  0.11866607  0.63920420  0.16152963  1
  In  In61  1  0.35725157  -0.00533433  0.64882989  1
  In  In62  1  0.18098218  0.82918737  0.33004926  1
  In  In63  1  0.31567834  0.48382226  0.84136623  1
  In  In64  1  0.01508511  0.51990112  0.51391109  1
  In  In65  1  0.67023676  0.01384270  -0.00322214  1
  In  In66  1  0.14863356  0.50592325  0.67741748  1
  In  In67  1  -0.01658713  0.00396710  0.01821809  1
  In  In68  1  -0.00071828  0.18234547  0.82954235  1
  In  In69  1  0.50467123  0.67576993  0.47358089  1
  In  In70  1  0.84824661  0.16512013  0.36122642  1
  In  In71  1  0.87503966  0.63028998  0.15245901  1
  Te  Te72  1  0.09528648  0.08377679  0.09525646  1
  Te  Te73  1  0.08269198  0.10474257  0.40119479  1
  Te  Te74  1  0.09989098  0.09043420  0.75852884  1
  Te  Te75  1  0.05508091  0.44586362  0.07378581  1
  Te  Te76  1  0.09616639  0.44225704  0.41700951  1
  Te  Te77  1  0.10883551  0.39554016  0.77240059  1
  Te  Te78  1  0.05297609  0.71430649  0.05418579  1
  Te  Te79  1  0.09544847  0.73882009  0.41662399  1
  Te  Te80  1  0.04919388  0.72829779  0.78816871  1
  Te  Te81  1  0.44475614  0.06384875  0.09812648  1
  Te  Te82  1  0.44246739  0.08351123  0.41930250  1
  Te  Te83  1  0.40686891  0.08648056  0.76115884  1
  Te  Te84  1  0.40921665  0.41799190  0.07860412  1
  Te  Te85  1  0.41011830  0.41663899  0.40943478  1
  Te  Te86  1  0.39668386  0.40065342  0.74100915  1
  Te  Te87  1  0.40524806  0.75833164  0.07846671  1
  Te  Te88  1  0.36078578  0.71147726  0.43703558  1
  Te  Te89  1  0.41085674  0.76441658  0.72252732  1
  Te  Te90  1  0.77246797  0.08656788  0.09556349  1
  Te  Te91  1  0.73711779  0.07096654  0.38751004  1
  Te  Te92  1  0.76263120  0.05636506  0.74788514  1
  Te  Te93  1  0.72403911  0.40942141  0.07867131  1
  Te  Te94  1  0.75957366  0.41552199  0.43040922  1
  Te  Te95  1  0.74490930  0.42145559  0.73630291  1
  Te  Te96  1  0.76547770  0.70264296  0.07857074  1
  Te  Te97  1  0.73184375  0.78942294  0.40945898  1
  Te  Te98  1  0.75750136  0.73757558  0.74873458  1
  Te  Te99  1  0.05665636  0.28049179  0.26091147  1
  Te  Te100  1  0.10990037  0.24652404  0.60899899  1
  Te  Te101  1  0.05237251  0.27241683  0.93332807  1
  Te  Te102  1  0.06065971  0.54538370  0.26296560  1
  Te  Te103  1  0.11180524  0.61241939  0.58172727  1
  Te  Te104  1  0.08557307  0.60745025  0.88141024  1
  Te  Te105  1  0.06921183  0.87816944  0.23179979  1
  Te  Te106  1  0.07827286  0.91596810  0.58386076  1
  Te  Te107  1  0.08086655  0.91764363  0.93544577  1
  Te  Te108  1  0.39838198  0.25482783  0.24452248  1
  Te  Te109  1  0.40207421  0.25547086  0.58553748  1
  Te  Te110  1  0.39014821  0.25629792  0.92963920  1
  Te  Te111  1  0.42348089  0.60801455  0.24199057  1
  Te  Te112  1  0.44499253  0.57789500  0.58239989  1
  Te  Te113  1  0.42753101  0.58201481  0.90586939  1
  Te  Te114  1  0.40996923  0.81834756  0.32952245  1
  Te  Te115  1  0.41572163  0.91854271  0.54009466  1
  Te  Te116  1  0.45276732  0.92530651  0.90648021  1
  Te  Te117  1  0.78472544  0.25458940  0.24834883  1
  Te  Te118  1  0.74048350  0.23044346  0.56572954  1
  Te  Te119  1  0.74357238  0.25838365  0.88520265  1
  Te  Te120  1  0.79663349  0.54593415  0.25459068  1
  Te  Te121  1  0.74516948  0.58103708  0.57410204  1
  Te  Te122  1  0.74931271  0.59612655  0.94267541  1
  Te  Te123  1  0.76006278  0.86212668  0.26611353  1
  Te  Te124  1  0.75978561  0.89698675  0.59141348  1
  Te  Te125  1  0.76197236  0.92291765  0.91458157  1
  Te  Te126  1  0.22758915  0.25605921  0.09601780  1
  Te  Te127  1  0.24049935  0.26232032  0.41709649  1
  Te  Te128  1  0.20683937  0.27436949  0.75272032  1
  Te  Te129  1  0.24451019  0.57335944  0.08621360  1
  Te  Te130  1  0.28038123  0.60462224  0.36736577  1
  Te  Te131  1  0.24946247  0.59332267  0.76195134  1
  Te  Te132  1  0.24939865  0.91880384  0.09451136  1
  Te  Te133  1  0.24714741  0.93135571  0.42209474  1
  Te  Te134  1  0.24135185  0.91190392  0.73218581  1
  Te  Te135  1  0.59051594  0.23921344  0.07179282  1
  Te  Te136  1  0.59477001  0.25218620  0.39489340  1
  Te  Te137  1  0.57414982  0.24010911  0.75246764  1
  Te  Te138  1  0.57307144  0.61026380  0.11987696  1
  Te  Te139  1  0.60855001  0.62719515  0.37123173  1
  Te  Te140  1  0.59343234  0.59202057  0.75331739  1
  Te  Te141  1  0.62559336  0.89985026  0.08586484  1
  Te  Te142  1  0.55821168  0.90736488  0.47734497  1
  Te  Te143  1  0.57063267  0.90448445  0.73757335  1
  Te  Te144  1  0.91941844  0.27575539  0.07430857  1
  Te  Te145  1  0.91477316  0.27746365  0.42969496  1
  Te  Te146  1  0.92302185  0.25876380  0.72318991  1
  Te  Te147  1  0.93278903  0.53961425  0.04616684  1
  Te  Te148  1  0.90054444  0.58952579  0.43628316  1
  Te  Te149  1  0.91504561  0.55281171  0.72309445  1
  Te  Te150  1  0.90509062  0.89907514  0.09227267  1
  Te  Te151  1  0.91118504  0.90777871  0.41275916  1
  Te  Te152  1  0.93679789  0.92505870  0.77650189  1
  Te  Te153  1  0.27538499  0.07487528  0.26400295  1
  Te  Te154  1  0.25352876  0.09309407  0.59533721  1
  Te  Te155  1  0.26456804  0.08028527  0.93219232  1
  Te  Te156  1  0.23937709  0.42153191  0.26686001  1
  Te  Te157  1  0.25926219  0.43985396  0.58880291  1
  Te  Te158  1  0.24130353  0.40212103  0.93569340  1
  Te  Te159  1  0.22806584  0.73423230  0.22094632  1
  Te  Te160  1  0.22161823  0.74277703  0.58627972  1
  Te  Te161  1  0.25196834  0.76017455  0.90748902  1
  Te  Te162  1  0.59375715  0.06358491  0.24256151  1
  Te  Te163  1  0.59653779  0.09285324  0.57069650  1
  Te  Te164  1  0.59189763  0.08500234  0.89672089  1
  Te  Te165  1  0.56981857  0.42227061  0.25303347  1
  Te  Te166  1  0.58420340  0.41807008  0.57043857  1
  Te  Te167  1  0.57870640  0.41738256  0.92415175  1
  Te  Te168  1  0.55820014  0.82534431  0.26121369  1
  Te  Te169  1  0.56974296  0.77513462  0.56748267  1
  Te  Te170  1  0.60140453  0.73949706  0.92150176  1
  Te  Te171  1  0.92969054  0.07224107  0.25051879  1
  Te  Te172  1  0.92440382  0.07933728  0.55990942  1
  Te  Te173  1  0.91278814  0.09289347  0.91918709  1
  Te  Te174  1  0.92422134  0.45692287  0.25874100  1
  Te  Te175  1  0.96604244  0.44362789  0.63030472  1
  Te  Te176  1  0.89978580  0.44211662  0.92630579  1
  Te  Te177  1  0.91602881  0.74001658  0.24372229  1
  Te  Te178  1  0.92392658  0.72837009  0.59726809  1
  Te  Te179  1  0.92352410  0.74979716  0.89440857  1
