# generated using pymatgen
data_In2Te3
_symmetry_space_group_name_H-M   'P 1'
_cell_length_a   18.91833017
_cell_length_b   18.93961090
_cell_length_c   18.92503004
_cell_angle_alpha   90.03467833
_cell_angle_beta   90.03278441
_cell_angle_gamma   89.99793114
_symmetry_Int_Tables_number   1
_chemical_formula_structural   In2Te3
_chemical_formula_sum   'In72 Te108'
_cell_volume   6780.94590430
_cell_formula_units_Z   36
loop_
 _symmetry_equiv_pos_site_id
 _symmetry_equiv_pos_as_xyz
  1  'x, y, z'
loop_
 _atom_site_type_symbol
 _atom_site_label
 _atom_site_symmetry_multiplicity
 _atom_site_fract_x
 _atom_site_fract_y
 _atom_site_fract_z
 _atom_site_occupancy
  In  In0  1  0.49187944  0.17617702  0.01374939  1
  In  In1  1  0.80879808  0.35711205  0.81113270  1
  In  In2  1  0.17282512  0.00163763  0.50227157  1
  In  In3  1  -0.01844982  0.52417128  0.50557093  1
  In  In4  1  0.33885218  -0.03310358  -0.03572963  1
  In  In5  1  -0.01337742  0.67773009  0.33033030  1
  In  In6  1  0.68386187  0.81609023  0.14658297  1
  In  In7  1  0.51194821  0.15912351  0.68011880  1
  In  In8  1  0.34725991  0.84485164  0.48921956  1
  In  In9  1  -0.00140662  0.35538017  0.68410618  1
  In  In10  1  0.16223514  0.82174659  -0.00307182  1
  In  In11  1  0.82960315  0.34100614  0.14325994  1
  In  In12  1  0.68292685  0.66601839  0.33611677  1
  In  In13  1  0.33865148  0.32775887  0.34288963  1
  In  In14  1  0.49943072  0.00413207  0.50016168  1
  In  In15  1  0.67255797  0.33866369  0.00086585  1
  In  In16  1  0.12999700  0.68069718  0.51226524  1
  In  In17  1  0.85163866  -0.03884514  0.14100742  1
  In  In18  1  0.34349994  0.53118376  0.81922245  1
  In  In19  1  0.19005404  0.67773386  0.15006193  1
  In  In20  1  0.83963160  0.13908990  0.35410347  1
  In  In21  1  0.49644424  0.82356418  0.32149974  1
  In  In22  1  0.51716103  0.49654716  0.68226631  1
  In  In23  1  -0.02692948  -0.00638049  0.67090289  1
  In  In24  1  0.33631183  0.67864362  0.66122210  1
  In  In25  1  -0.03738073  0.68272918  -0.01601731  1
  In  In26  1  0.64609014  -0.00290160  0.00688447  1
  In  In27  1  0.67866347  0.16322561  0.51896931  1
  In  In28  1  0.00161468  0.48183404  0.18371805  1
  In  In29  1  0.53937814  0.83686066  0.69631377  1
  In  In30  1  0.31950252  0.50191636  0.14294962  1
  In  In31  1  0.80826862  0.34183826  0.52892739  1
  In  In32  1  0.83802262  0.85200875  0.33257935  1
  In  In33  1  0.66324588  0.82604750  0.51776845  1
  In  In34  1  0.82513047  -0.03254195  0.83360035  1
  In  In35  1  0.14174445  0.11815997  0.03881240  1
  In  In36  1  0.33512807  0.33444528  -0.01204420  1
  In  In37  1  0.50970386  0.50164865  0.32309650  1
  In  In38  1  0.32902707  0.48824803  0.51439067  1
  In  In39  1  0.69895368  0.68050876  0.67967162  1
  In  In40  1  0.51180939  0.16265204  0.33285060  1
  In  In41  1  0.66251734  0.51011438  0.52733043  1
  In  In42  1  0.17854782  0.15736119  0.64575173  1
  In  In43  1  0.00743596  0.18629764  0.83411850  1
  In  In44  1  0.48511599  0.68239782  0.11397348  1
  In  In45  1  0.16609391  0.16472181  0.29715203  1
  In  In46  1  0.35145555  -0.01256219  0.32076349  1
  In  In47  1  0.32546200  0.68224092  0.31880705  1
  In  In48  1  0.18332955  0.37328925  0.49288192  1
  In  In49  1  -0.00529518  0.80004978  0.51654842  1
  In  In50  1  0.00451666  0.16817283  0.51156093  1
  In  In51  1  0.66924811  0.33517871  0.33011430  1
  In  In52  1  0.00977811  -0.02716774  0.30874522  1
  In  In53  1  0.14438842  0.82086278  0.70447232  1
  In  In54  1  0.15008013  0.50878764  0.36199446  1
  In  In55  1  0.13466309  0.53872778  -0.01962815  1
  In  In56  1  0.54176989  0.69735374  0.85011614  1
  In  In57  1  -0.00422971  0.35227460  -0.00924347  1
  In  In58  1  0.16325918  0.34687394  0.81879134  1
  In  In59  1  0.80957039  -0.01504818  0.51986599  1
  In  In60  1  0.66051004  0.14511935  0.18461059  1
  In  In61  1  0.16374536  0.31777037  0.18473807  1
  In  In62  1  0.34408117  0.33960470  0.65675290  1
  In  In63  1  0.69101895  0.15714495  0.82366077  1
  In  In64  1  -0.05882496  0.55204966  0.84392604  1
  In  In65  1  0.35892007  0.15458118  0.84274298  1
  In  In66  1  0.30882071  0.16351287  0.53448090  1
  In  In67  1  0.52233554  0.49068713  -0.01606527  1
  In  In68  1  0.34910324  0.14870833  0.17121773  1
  In  In69  1  0.14607291  -0.02176755  0.85085273  1
  In  In70  1  0.86873433  0.15396061  0.00227720  1
  In  In71  1  0.84088676  0.66194342  0.15842293  1
  Te  Te72  1  0.03622450  0.02091916  0.08333484  1
  Te  Te73  1  0.07950214  0.08145836  0.41128789  1
  Te  Te74  1  0.08314663  0.08509571  0.74088639  1
  Te  Te75  1  0.10923906  0.42233796  0.08017332  1
  Te  Te76  1  0.05592467  0.40887697  0.42054733  1
  Te  Te77  1  0.05450465  0.44656799  0.78869070  1
  Te  Te78  1  0.06848572  0.73819050  0.08519573  1
  Te  Te79  1  0.08786054  0.76896046  0.39545525  1
  Te  Te80  1  0.03620359  0.72625391  0.72296915  1
  Te  Te81  1  0.41274358  0.05984014  0.06727907  1
  Te  Te82  1  0.39569341  0.09350600  0.42222120  1
  Te  Te83  1  0.42477060  0.06345649  0.75040496  1
  Te  Te84  1  0.42534714  0.41441310  0.08022884  1
  Te  Te85  1  0.42918934  0.41595984  0.42479538  1
  Te  Te86  1  0.42165120  0.41129615  0.76491855  1
  Te  Te87  1  0.38019400  0.75688684  0.04194679  1
  Te  Te88  1  0.42553442  0.73425130  0.42211707  1
  Te  Te89  1  0.42802876  0.75079404  0.75801142  1
  Te  Te90  1  0.76090092  0.07817125  0.07951701  1
  Te  Te91  1  0.72687740  0.06065659  0.41534356  1
  Te  Te92  1  0.76578046  0.06417238  0.73922877  1
  Te  Te93  1  0.74787292  0.44100663  0.07523148  1
  Te  Te94  1  0.74377826  0.42799992  0.42318030  1
  Te  Te95  1  0.72187543  0.46688379  0.76740873  1
  Te  Te96  1  0.75237803  0.72205806  0.05432900  1
  Te  Te97  1  0.76430234  0.75819609  0.42464250  1
  Te  Te98  1  0.74183368  0.74732864  0.80615211  1
  Te  Te99  1  0.05677383  0.25514570  0.26349405  1
  Te  Te100  1  0.08670514  0.27016732  0.59059941  1
  Te  Te101  1  0.10331949  0.25729907  0.92758017  1
  Te  Te102  1  0.09896967  0.59178394  0.24578895  1
  Te  Te103  1  0.09546950  0.56231513  0.59048903  1
  Te  Te104  1  0.07192814  0.63800976  0.88728211  1
  Te  Te105  1  0.08846673  0.92988707  0.19452225  1
  Te  Te106  1  0.07912604  0.91647383  0.58752466  1
  Te  Te107  1  0.05136691  0.88329047  0.91439856  1
  Te  Te108  1  0.42848179  0.25626696  0.24481882  1
  Te  Te109  1  0.42911141  0.24520591  0.57710307  1
  Te  Te110  1  0.44176593  0.26733733  0.90287899  1
  Te  Te111  1  0.41014347  0.58950537  0.23026278  1
  Te  Te112  1  0.42518027  0.57762014  0.58984243  1
  Te  Te113  1  0.44092813  0.59859587  0.91274051  1
  Te  Te114  1  0.40140165  0.88550376  0.22610629  1
  Te  Te115  1  0.43804992  0.90256567  0.59449206  1
  Te  Te116  1  0.46184986  0.91442237  0.89344607  1
  Te  Te117  1  0.76340638  0.23476103  0.25330494  1
  Te  Te118  1  0.72173896  0.26394853  0.62088137  1
  Te  Te119  1  0.77562830  0.24723126  0.92539751  1
  Te  Te120  1  0.76864977  0.57791221  0.25622595  1
  Te  Te121  1  0.77093761  0.60216157  0.57409500  1
  Te  Te122  1  0.79506844  0.63675692  0.90635284  1
  Te  Te123  1  0.74051374  0.92202277  0.24046091  1
  Te  Te124  1  0.75405968  0.88875611  0.61530310  1
  Te  Te125  1  0.72945896  0.90135858  0.92787124  1
  Te  Te126  1  0.26180144  0.24625964  0.09027022  1
  Te  Te127  1  0.23416342  0.24482616  0.42075507  1
  Te  Te128  1  0.25818973  0.24524833  0.74985886  1
  Te  Te129  1  0.26194058  0.59957824  0.04157142  1
  Te  Te130  1  0.25642647  0.59467476  0.42902122  1
  Te  Te131  1  0.24149671  0.60730045  0.74835128  1
  Te  Te132  1  0.23160396  0.93650589  0.06274796  1
  Te  Te133  1  0.24398807  0.91332503  0.40174895  1
  Te  Te134  1  0.24508708  0.89309874  0.78214360  1
  Te  Te135  1  0.59262165  0.25033628  0.09845185  1
  Te  Te136  1  0.59030189  0.24894727  0.42782428  1
  Te  Te137  1  0.60690372  0.25310980  0.74600825  1
  Te  Te138  1  0.59100742  0.59416884  0.06469308  1
  Te  Te139  1  0.58252537  0.59015033  0.42118565  1
  Te  Te140  1  0.61240591  0.58314515  0.76644648  1
  Te  Te141  1  0.56957730  0.89419706  0.08632469  1
  Te  Te142  1  0.58154370  0.90702363  0.41641236  1
  Te  Te143  1  0.59214821  0.91964900  0.80657180  1
  Te  Te144  1  0.94719028  0.24950408  0.08912472  1
  Te  Te145  1  0.89652662  0.24930040  0.44128390  1
  Te  Te146  1  0.90502116  0.25393984  0.74620823  1
  Te  Te147  1  0.93046847  0.56546615  0.08131409  1
  Te  Te148  1  0.90306529  0.57579653  0.39209417  1
  Te  Te149  1  0.91600865  0.62606057  0.71644474  1
  Te  Te150  1  0.93941627  0.90831287  0.03503336  1
  Te  Te151  1  0.92428138  0.92381749  0.43531166  1
  Te  Te152  1  0.91453905  0.88360910  0.74690980  1
  Te  Te153  1  0.24327607  0.05650163  0.23052764  1
  Te  Te154  1  0.27049689  0.03807420  0.61287963  1
  Te  Te155  1  0.24168395  0.08782780  0.91286434  1
  Te  Te156  1  0.25211877  0.42603897  0.26441347  1
  Te  Te157  1  0.23190814  0.43617530  0.62255964  1
  Te  Te158  1  0.25166626  0.43356494  0.90846444  1
  Te  Te159  1  0.26313090  0.78067975  0.22818362  1
  Te  Te160  1  0.24134154  0.77212788  0.57855359  1
  Te  Te161  1  0.27825000  0.75848714  0.93008803  1
  Te  Te162  1  0.55822518  0.05793776  0.24267781  1
  Te  Te163  1  0.59869099  0.06117728  0.59920844  1
  Te  Te164  1  0.58301583  0.10145692  0.91744478  1
  Te  Te165  1  0.59120617  0.41757221  0.23720161  1
  Te  Te166  1  0.58654931  0.40313576  0.59282983  1
  Te  Te167  1  0.61609543  0.42141934  0.88932472  1
  Te  Te168  1  0.58407767  0.72966177  0.23635703  1
  Te  Te169  1  0.57971901  0.72740971  0.59685710  1
  Te  Te170  1  0.56520921  0.81133044  0.94640338  1
  Te  Te171  1  0.91069666  0.06669293  0.24248436  1
  Te  Te172  1  0.89627290  0.09511124  0.58840708  1
  Te  Te173  1  0.92815014  0.07156804  0.89218046  1
  Te  Te174  1  0.90175097  0.40377817  0.25568367  1
  Te  Te175  1  0.89974196  0.43673066  0.60408421  1
  Te  Te176  1  0.88794690  0.42996629  0.92031647  1
  Te  Te177  1  0.91936401  0.77240967  0.23301632  1
  Te  Te178  1  0.90187963  0.70722853  0.58374513  1
  Te  Te179  1  0.87819057  0.75942336  0.88604001  1
