# generated using pymatgen
data_In2Te3
_symmetry_space_group_name_H-M   'P 1'
_cell_length_a   18.82329942
_cell_length_b   18.82581660
_cell_length_c   18.82551489
_cell_angle_alpha   89.82782026
_cell_angle_beta   89.96115919
_cell_angle_gamma   89.97998497
_symmetry_Int_Tables_number   1
_chemical_formula_structural   In2Te3
_chemical_formula_sum   'In72 Te108'
_cell_volume   6671.05237715
_cell_formula_units_Z   36
loop_
 _symmetry_equiv_pos_site_id
 _symmetry_equiv_pos_as_xyz
  1  'x, y, z'
loop_
 _atom_site_type_symbol
 _atom_site_label
 _atom_site_symmetry_multiplicity
 _atom_site_fract_x
 _atom_site_fract_y
 _atom_site_fract_z
 _atom_site_occupancy
  In  In0  1  0.47756703  0.67634664  0.47210682  1
  In  In1  1  0.00352300  0.82017708  0.81466796  1
  In  In2  1  0.80830358  -0.02341073  0.85892207  1
  In  In3  1  0.65972188  0.65665923  0.34159626  1
  In  In4  1  0.84839104  0.65874730  0.51097583  1
  In  In5  1  0.48102272  -0.02545991  0.15518798  1
  In  In6  1  0.17109596  0.32194562  0.16173810  1
  In  In7  1  0.17720433  0.68241124  0.47466325  1
  In  In8  1  0.32461840  0.67683899  0.00075549  1
  In  In9  1  0.34192366  0.35893358  0.67558078  1
  In  In10  1  0.49797391  0.67870014  0.15432657  1
  In  In11  1  0.18554189  -0.01950252  0.83796435  1
  In  In12  1  0.67189237  0.19090080  0.48559054  1
  In  In13  1  0.35276208  0.52303093  0.15682599  1
  In  In14  1  0.80332084  0.51298733  0.00200158  1
  In  In15  1  0.32519242  0.66623946  0.66691387  1
  In  In16  1  0.81204525  0.15583205  0.00060468  1
  In  In17  1  0.33734540  -0.01880888  0.32002565  1
  In  In18  1  0.17768463  0.83443800  -0.00231322  1
  In  In19  1  0.14297104  0.15975057  0.02168261  1
  In  In20  1  0.15557782  0.51676635  0.33032467  1
  In  In21  1  0.80666583  0.48147934  0.68028310  1
  In  In22  1  0.01919412  0.51424179  0.19803853  1
  In  In23  1  0.82221782  -0.01379500  0.14282830  1
  In  In24  1  0.65887380  0.37979814  0.33420910  1
  In  In25  1  0.32346202  0.16636173  0.14902312  1
  In  In26  1  0.68080504  0.66477702  0.66859012  1
  In  In27  1  0.14545665  0.17248567  0.65836455  1
  In  In28  1  -0.03459104  0.14786174  0.81577305  1
  In  In29  1  0.81933286  0.32845193  0.14620784  1
  In  In30  1  0.18707763  0.13779794  0.34690133  1
  In  In31  1  0.52602750  0.20565192  0.69367095  1
  In  In32  1  -0.00959814  -0.03774420  0.35509295  1
  In  In33  1  0.67437500  0.84346111  0.50070902  1
  In  In34  1  0.35132155  0.16625454  0.84137332  1
  In  In35  1  0.53214266  0.16688576  0.33611996  1
  In  In36  1  0.02605115  0.13570750  0.16620473  1
  In  In37  1  0.66840243  0.83610066  0.14547597  1
  In  In38  1  0.52099961  0.69537001  0.85955775  1
  In  In39  1  -0.00443935  0.33697400  0.35527283  1
  In  In40  1  0.84922430  0.17129794  0.34262709  1
  In  In41  1  0.50206001  -0.00493220  0.51406648  1
  In  In42  1  0.18308210  0.51572419  0.00118935  1
  In  In43  1  0.66646746  0.33396469  -0.00932996  1
  In  In44  1  0.51260598  0.50880086  0.02034727  1
  In  In45  1  0.33359664  -0.02024925  0.68205194  1
  In  In46  1  -0.00755045  0.33506042  0.64595969  1
  In  In47  1  -0.01188410  0.33929350  -0.01686056  1
  In  In48  1  0.17163385  0.52130376  0.66026327  1
  In  In49  1  -0.00399329  -0.00951555  0.63269140  1
  In  In50  1  0.52931264  0.15404998  -0.04258077  1
  In  In51  1  0.83393484  0.51450740  0.34325787  1
  In  In52  1  0.33551462  0.49199718  0.52343073  1
  In  In53  1  0.14539719  -0.00884763  0.49069802  1
  In  In54  1  0.00198606  0.67820605  0.65577803  1
  In  In55  1  -0.01362775  0.83682637  0.18696850  1
  In  In56  1  0.35068235  -0.03263187  -0.01531780  1
  In  In57  1  -0.01874645  0.50676907  0.85026973  1
  In  In58  1  0.53564363  0.47270436  0.67106843  1
  In  In59  1  0.17216047  0.34719084  0.83997900  1
  In  In60  1  0.84638996  0.67856179  0.17179015  1
  In  In61  1  0.50060739  0.84633660  0.67329644  1
  In  In62  1  0.00669214  0.67308938  0.00347082  1
  In  In63  1  0.80265223  0.67562647  0.83777523  1
  In  In64  1  0.69756421  0.16252963  0.15332025  1
  In  In65  1  0.83899928  0.81117697  0.65422840  1
  In  In66  1  0.82703692  0.16236044  0.66192713  1
  In  In67  1  0.65366146  -0.01496778  0.67885777  1
  In  In68  1  0.50859516  0.34272382  0.18855933  1
  In  In69  1  0.34691460  0.35305238  0.34445589  1
  In  In70  1  0.33198704  0.17541995  0.50421588  1
  In  In71  1  0.67275667  -0.01096273  0.33025658  1
  Te  Te72  1  0.08723619  0.03541021  0.07765931  1
  Te  Te73  1  0.05947220  0.09034508  0.41268594  1
  Te  Te74  1  0.08250379  0.06909920  0.75355302  1
  Te  Te75  1  0.08295073  0.41601731  0.07598709  1
  Te  Te76  1  0.08295159  0.43070820  0.42579783  1
  Te  Te77  1  0.07145984  0.42656285  0.75525573  1
  Te  Te78  1  0.08893709  0.75727082  0.09562598  1
  Te  Te79  1  0.10370846  0.76487495  0.37179703  1
  Te  Te80  1  0.10196943  0.73452779  0.74669106  1
  Te  Te81  1  0.42569335  0.09025571  0.06454350  1
  Te  Te82  1  0.41718189  0.08449134  0.41232874  1
  Te  Te83  1  0.42434669  0.09261748  0.73058577  1
  Te  Te84  1  0.41414120  0.40442833  0.08616042  1
  Te  Te85  1  0.43585747  0.42585065  0.43526124  1
  Te  Te86  1  0.43854354  0.41834360  0.76804428  1
  Te  Te87  1  0.39893758  0.77179255  0.08906937  1
  Te  Te88  1  0.39824527  0.75724172  0.37804626  1
  Te  Te89  1  0.41931237  0.75120541  0.75906588  1
  Te  Te90  1  0.71477963  0.05028700  0.05329293  1
  Te  Te91  1  0.75483607  0.07826964  0.42217786  1
  Te  Te92  1  0.74383885  0.07840699  0.76159024  1
  Te  Te93  1  0.71820807  0.42996197  0.09985569  1
  Te  Te94  1  0.77165360  0.40811350  0.42516951  1
  Te  Te95  1  0.68593751  0.41085483  0.74091911  1
  Te  Te96  1  0.75412172  0.73766568  0.07244914  1
  Te  Te97  1  0.75627000  0.74484294  0.42103337  1
  Te  Te98  1  0.72660021  0.78297756  0.75712686  1
  Te  Te99  1  0.08413862  0.24433299  0.25887785  1
  Te  Te100  1  0.07195146  0.24773695  0.55668225  1
  Te  Te101  1  0.07018511  0.23747870  0.90248259  1
  Te  Te102  1  0.08813145  0.63061800  0.25969620  1
  Te  Te103  1  0.07992644  0.58880520  0.56171298  1
  Te  Te104  1  0.09324207  0.59483064  0.90511867  1
  Te  Te105  1  0.09019744  0.91862027  0.25680437  1
  Te  Te106  1  0.10357235  0.89712138  0.59718309  1
  Te  Te107  1  0.07329637  0.91244109  0.91450154  1
  Te  Te108  1  0.40796730  0.23577781  0.25591530  1
  Te  Te109  1  0.42383511  0.26076354  0.58997415  1
  Te  Te110  1  0.44097678  0.26120479  0.90812760  1
  Te  Te111  1  0.42991063  0.59444476  0.25924572  1
  Te  Te112  1  0.43500001  0.58522802  0.59451578  1
  Te  Te113  1  0.42540876  0.59332432  0.92446069  1
  Te  Te114  1  0.42744060  0.87921666  0.25758404  1
  Te  Te115  1  0.40016672  0.89719102  0.56862576  1
  Te  Te116  1  0.42754313  0.90995299  0.87601233  1
  Te  Te117  1  0.73843948  0.25645949  0.26653216  1
  Te  Te118  1  0.73973075  0.26777596  0.59591830  1
  Te  Te119  1  0.74107447  0.24013564  0.90011146  1
  Te  Te120  1  0.74761788  0.58195523  0.23932067  1
  Te  Te121  1  0.74012996  0.56811931  0.56901442  1
  Te  Te122  1  0.71360183  0.57915526  0.90527415  1
  Te  Te123  1  0.76486401  0.89777403  0.25437538  1
  Te  Te124  1  0.76295416  0.93094530  0.58662307  1
  Te  Te125  1  0.73046950  0.86547245  0.91750208  1
  Te  Te126  1  0.25591216  0.26212812  0.05118955  1
  Te  Te127  1  0.24281318  0.26190255  0.41521997  1
  Te  Te128  1  0.24833147  0.24466507  0.74694651  1
  Te  Te129  1  0.23712047  0.60891919  0.10873714  1
  Te  Te130  1  0.27052877  0.57529009  0.41345720  1
  Te  Te131  1  0.26891193  0.56461348  0.76004218  1
  Te  Te132  1  0.27962517  0.89332784  0.09197909  1
  Te  Te133  1  0.24674988  0.90940644  0.41402775  1
  Te  Te134  1  0.25396011  0.87917595  0.75646300  1
  Te  Te135  1  0.58308684  0.24460015  0.09326328  1
  Te  Te136  1  0.56650510  0.28328633  0.42289169  1
  Te  Te137  1  0.62381866  0.27244628  0.78315191  1
  Te  Te138  1  0.60286709  0.61386136  0.07153221  1
  Te  Te139  1  0.58428847  0.57887489  0.44255249  1
  Te  Te140  1  0.57980575  0.59671761  0.75700807  1
  Te  Te141  1  0.56384475  0.90044022  0.05447025  1
  Te  Te142  1  0.56992639  0.90747029  0.40888890  1
  Te  Te143  1  0.55830159  0.93443293  0.79136961  1
  Te  Te144  1  0.92434585  0.23462183  0.08451315  1
  Te  Te145  1  0.89302301  0.27209446  0.44141187  1
  Te  Te146  1  0.90115767  0.26761834  0.75104267  1
  Te  Te147  1  0.92677474  0.56375839  0.07808701  1
  Te  Te148  1  0.93618087  0.59676011  0.40866962  1
  Te  Te149  1  0.90483097  0.59258866  0.74654253  1
  Te  Te150  1  0.91210363  0.89473974  0.07271075  1
  Te  Te151  1  0.90513051  0.90326493  0.45704065  1
  Te  Te152  1  0.90722318  0.92183139  0.74526011  1
  Te  Te153  1  0.24287270  0.06359634  0.22755976  1
  Te  Te154  1  0.24847835  0.07458702  0.58349575  1
  Te  Te155  1  0.25141412  0.08549610  0.92755525  1
  Te  Te156  1  0.25317449  0.42227915  0.24051493  1
  Te  Te157  1  0.22808871  0.40158266  0.58360453  1
  Te  Te158  1  0.26664289  0.42981305  0.91532343  1
  Te  Te159  1  0.24830196  0.76061882  0.32986700  1
  Te  Te160  1  0.25361447  0.75850210  0.57635547  1
  Te  Te161  1  0.24885094  0.75268867  0.89789070  1
  Te  Te162  1  0.58385835  0.06658228  0.23204539  1
  Te  Te163  1  0.58991122  0.09750784  0.58555419  1
  Te  Te164  1  0.60311177  0.06179489  0.87217062  1
  Te  Te165  1  0.55959985  0.46167204  0.25938495  1
  Te  Te166  1  0.62707238  0.38054607  0.59761942  1
  Te  Te167  1  0.57199044  0.41961664  0.91699033  1
  Te  Te168  1  0.59004065  0.75773355  0.25116394  1
  Te  Te169  1  0.58319474  0.75235793  0.58340770  1
  Te  Te170  1  0.60170404  0.78197090  0.95156902  1
  Te  Te171  1  0.90699033  0.07276095  0.24109118  1
  Te  Te172  1  0.92339932  0.10099893  0.56909117  1
  Te  Te173  1  0.91354534  0.06405596  0.93145742  1
  Te  Te174  1  0.91382525  0.40556269  0.23798542  1
  Te  Te175  1  0.90771746  0.43813602  0.58275579  1
  Te  Te176  1  0.87611170  0.41204661  0.90908414  1
  Te  Te177  1  0.91930419  0.74230134  0.28214026  1
  Te  Te178  1  0.94755517  0.78080657  0.54423037  1
  Te  Te179  1  0.91018066  0.75146452  0.91510703  1
