# generated using pymatgen
data_In2Te3
_symmetry_space_group_name_H-M   'P 1'
_cell_length_a   18.76995148
_cell_length_b   18.77498248
_cell_length_c   18.77243141
_cell_angle_alpha   89.98750188
_cell_angle_beta   89.92167276
_cell_angle_gamma   89.97471585
_symmetry_Int_Tables_number   1
_chemical_formula_structural   In2Te3
_chemical_formula_sum   'In72 Te108'
_cell_volume   6615.50128567
_cell_formula_units_Z   36
loop_
 _symmetry_equiv_pos_site_id
 _symmetry_equiv_pos_as_xyz
  1  'x, y, z'
loop_
 _atom_site_type_symbol
 _atom_site_label
 _atom_site_symmetry_multiplicity
 _atom_site_fract_x
 _atom_site_fract_y
 _atom_site_fract_z
 _atom_site_occupancy
  In  In0  1  0.66195770  0.64976160  0.34092860  1
  In  In1  1  0.51225379  0.16093392  0.30757313  1
  In  In2  1  0.35485927  0.33071825  0.33207756  1
  In  In3  1  0.83656888  0.17932054  0.69168311  1
  In  In4  1  0.66140092  0.33472603  0.02199220  1
  In  In5  1  0.16342908  0.67114248  0.14720036  1
  In  In6  1  0.83020215  -0.00981625  0.50170956  1
  In  In7  1  -0.01886033  0.83950683  0.83441498  1
  In  In8  1  0.31833123  0.02755263  0.31603530  1
  In  In9  1  0.82683491  0.83033105  0.01276220  1
  In  In10  1  0.67485517  0.66901639  0.67257265  1
  In  In11  1  -0.01083050  0.33016323  -0.00631862  1
  In  In12  1  0.65411427  0.50647039  0.49842323  1
  In  In13  1  0.51165484  0.64372357  0.16399999  1
  In  In14  1  0.51183620  0.84697013  0.00529460  1
  In  In15  1  0.83123602  0.32797606  0.15886370  1
  In  In16  1  0.83869803  0.17219497  0.34247270  1
  In  In17  1  0.51966189  0.15819526  0.03450056  1
  In  In18  1  0.33948204  0.65972325  -0.00873494  1
  In  In19  1  0.84005021  0.67446013  0.49351194  1
  In  In20  1  0.83063505  0.51061276  0.33484018  1
  In  In21  1  0.34036081  -0.00001885  0.01021998  1
  In  In22  1  0.51813214  0.68324411  0.83456259  1
  In  In23  1  0.17780030  0.50408282  -0.00120244  1
  In  In24  1  -0.00904226  0.49518913  0.83694116  1
  In  In25  1  0.01797015  0.02295363  0.02959436  1
  In  In26  1  0.32016831  0.85272140  0.17069945  1
  In  In27  1  0.32887749  0.17563047  0.48978583  1
  In  In28  1  0.80585022  0.33537959  0.84806336  1
  In  In29  1  0.49344292  0.46700825  0.01741148  1
  In  In30  1  0.48687978  0.16163979  0.64265609  1
  In  In31  1  0.62905258  0.35136637  0.30852692  1
  In  In32  1  0.85422813  0.33000272  0.49855471  1
  In  In33  1  0.32544843  0.50214367  0.80397693  1
  In  In34  1  0.16845260  0.31589736  0.83981312  1
  In  In35  1  0.18153687  0.00941340  0.50468604  1
  In  In36  1  0.00587829  0.32721810  0.64882896  1
  In  In37  1  0.16515404  0.84427361  0.66364864  1
  In  In38  1  0.65215984  0.82774881  0.82292577  1
  In  In39  1  0.49109756  0.85118513  0.66081119  1
  In  In40  1  0.31429927  0.83734093  0.83688785  1
  In  In41  1  0.65520569  0.15813749  0.47284706  1
  In  In42  1  0.51331774  0.84365544  0.32872800  1
  In  In43  1  0.01740338  0.00613411  0.67654996  1
  In  In44  1  -0.01766918  0.67292811  0.32490179  1
  In  In45  1  0.34578479  0.83331878  0.50690611  1
  In  In46  1  0.18266365  0.18356002  0.31437527  1
  In  In47  1  0.35482144  0.62163116  0.65759109  1
  In  In48  1  0.18309019  0.30784446  0.15868315  1
  In  In49  1  0.82893573  0.66482397  0.16534149  1
  In  In50  1  0.00592603  0.65523365  0.64977240  1
  In  In51  1  0.34845425  0.62704267  0.32033906  1
  In  In52  1  0.16887966  0.64844523  0.49215435  1
  In  In53  1  0.84155556  0.00801993  0.83205376  1
  In  In54  1  0.01233484  0.14596287  0.85340738  1
  In  In55  1  0.67937624  0.01829406  0.02978212  1
  In  In56  1  0.02985949  0.17563519  0.50973000  1
  In  In57  1  0.14192366  0.83089736  0.32638282  1
  In  In58  1  0.67765736  0.16536817  0.84854913  1
  In  In59  1  0.17258026  0.00770037  0.82845079  1
  In  In60  1  0.48900538  0.33654230  0.84199750  1
  In  In61  1  0.13081683  0.44615594  0.34224773  1
  In  In62  1  0.34040634  0.17182098  0.82796907  1
  In  In63  1  0.19274574  0.66422442  0.84356718  1
  In  In64  1  0.50014793  0.63499087  0.50380368  1
  In  In65  1  0.48895532  0.50946177  0.66588816  1
  In  In66  1  0.79896254  0.63887435  0.85857514  1
  In  In67  1  -0.02752458  0.00424351  0.32146546  1
  In  In68  1  0.00917142  0.83840978  0.16776031  1
  In  In69  1  -0.01413329  0.51228327  0.16467989  1
  In  In70  1  0.66626826  0.84808324  0.48289815  1
  In  In71  1  0.67609467  0.34209483  0.67379120  1
  Te  Te72  1  0.11818572  0.09194347  0.11151359  1
  Te  Te73  1  0.09153172  0.08260290  0.40327942  1
  Te  Te74  1  0.10531006  0.11313276  0.73643097  1
  Te  Te75  1  0.08409192  0.42016466  0.08614581  1
  Te  Te76  1  0.04322448  0.39014421  0.44586261  1
  Te  Te77  1  0.08559434  0.41177890  0.75285923  1
  Te  Te78  1  0.06345357  0.74348449  0.06777731  1
  Te  Te79  1  0.06843246  0.74787676  0.42949133  1
  Te  Te80  1  0.08959319  0.75552399  0.76346472  1
  Te  Te81  1  0.42089862  0.07504396  0.10999097  1
  Te  Te82  1  0.42289846  0.08483056  0.40927772  1
  Te  Te83  1  0.43869238  0.08380762  0.75974647  1
  Te  Te84  1  0.38609897  0.38520544  0.08051006  1
  Te  Te85  1  0.42866621  0.42130668  0.42263735  1
  Te  Te86  1  0.40436961  0.39235734  0.72786010  1
  Te  Te87  1  0.41763920  0.75081359  0.09052653  1
  Te  Te88  1  0.42021646  0.73743151  0.40811143  1
  Te  Te89  1  0.40298521  0.74024240  0.74958220  1
  Te  Te90  1  0.74862880  0.08757581  0.14600718  1
  Te  Te91  1  0.74643211  0.06198747  0.39569592  1
  Te  Te92  1  0.73790532  0.07435926  0.73988064  1
  Te  Te93  1  0.75546961  0.43344274  0.08447441  1
  Te  Te94  1  0.74530242  0.40846555  0.41492085  1
  Te  Te95  1  0.76464922  0.43480347  0.74614661  1
  Te  Te96  1  0.73270090  0.75929303  0.10179375  1
  Te  Te97  1  0.75434964  0.75766312  0.39726611  1
  Te  Te98  1  0.76705576  0.75450907  0.75537939  1
  Te  Te99  1  0.07241846  0.24659925  0.23608967  1
  Te  Te100  1  0.12298755  0.27043751  0.57736718  1
  Te  Te101  1  0.09781594  0.23188521  0.94665408  1
  Te  Te102  1  0.08833152  0.58549930  0.25481993  1
  Te  Te103  1  0.08368262  0.55580861  0.57164275  1
  Te  Te104  1  0.08150974  0.59013063  0.91848072  1
  Te  Te105  1  0.09305854  0.94403133  0.23961334  1
  Te  Te106  1  0.07399661  0.91744222  0.56525047  1
  Te  Te107  1  0.07249070  0.93124976  0.91469207  1
  Te  Te108  1  0.41493771  0.24240482  0.22761747  1
  Te  Te109  1  0.41793905  0.26791571  0.56598359  1
  Te  Te110  1  0.42511973  0.23966844  0.93759712  1
  Te  Te111  1  0.43036932  0.53411975  0.23146519  1
  Te  Te112  1  0.38163633  0.52783870  0.52910049  1
  Te  Te113  1  0.42728307  0.57168187  0.90174982  1
  Te  Te114  1  0.42346153  0.93568791  0.24514155  1
  Te  Te115  1  0.41248559  0.94385666  0.57657034  1
  Te  Te116  1  0.42232097  0.91987677  0.90536888  1
  Te  Te117  1  0.73902812  0.25670624  0.25964673  1
  Te  Te118  1  0.75189990  0.23981600  0.57511691  1
  Te  Te119  1  0.75989449  0.23520329  0.95492749  1
  Te  Te120  1  0.73188692  0.56499788  0.23426562  1
  Te  Te121  1  0.75813454  0.57835372  0.58250042  1
  Te  Te122  1  0.72071075  0.56542970  0.95998834  1
  Te  Te123  1  0.71815947  0.95557589  0.21526030  1
  Te  Te124  1  0.74012712  0.91409633  0.59138023  1
  Te  Te125  1  0.74395507  0.92274774  0.91590710  1
  Te  Te126  1  0.29673704  0.26584949  0.07396623  1
  Te  Te127  1  0.23772163  0.27803523  0.42095260  1
  Te  Te128  1  0.25699549  0.25555864  0.73770483  1
  Te  Te129  1  0.27149779  0.57381195  0.09814345  1
  Te  Te130  1  0.23610759  0.55287588  0.39401606  1
  Te  Te131  1  0.21365478  0.57442081  0.72120247  1
  Te  Te132  1  0.23270917  0.91518679  0.07135726  1
  Te  Te133  1  0.25594869  0.90867903  0.40455023  1
  Te  Te134  1  0.26654379  0.93668528  0.73055973  1
  Te  Te135  1  0.57954455  0.26198488  0.12372227  1
  Te  Te136  1  0.56241748  0.26378023  0.41450371  1
  Te  Te137  1  0.58651704  0.24868065  0.75559134  1
  Te  Te138  1  0.59278792  0.57680508  0.05577721  1
  Te  Te139  1  0.55635702  0.54846486  0.38812499  1
  Te  Te140  1  0.59323938  0.57273401  0.75827280  1
  Te  Te141  1  0.58798113  0.92513567  0.10766041  1
  Te  Te142  1  0.56402751  0.93960633  0.42856342  1
  Te  Te143  1  0.57055987  0.93043077  0.75610481  1
  Te  Te144  1  0.93267134  0.23779168  0.09568601  1
  Te  Te145  1  0.95547410  0.26431189  0.40259517  1
  Te  Te146  1  0.92993229  0.25937244  0.78158304  1
  Te  Te147  1  0.92035622  0.60030175  0.06749236  1
  Te  Te148  1  0.93373335  0.57074411  0.42865011  1
  Te  Te149  1  0.91068558  0.59421260  0.75391514  1
  Te  Te150  1  0.91215435  0.93038905  0.09158951  1
  Te  Te151  1  0.91203949  0.90547820  0.41140485  1
  Te  Te152  1  0.90484892  0.91606128  0.72688316  1
  Te  Te153  1  0.24542596  0.09684272  0.20327428  1
  Te  Te154  1  0.26197171  0.09180892  0.59423035  1
  Te  Te155  1  0.24959851  0.09289858  0.92642316  1
  Te  Te156  1  0.24653933  0.41211385  0.25051115  1
  Te  Te157  1  0.27771101  0.46395429  0.62500498  1
  Te  Te158  1  0.26374427  0.41235724  0.91340308  1
  Te  Te159  1  0.25200211  0.74267059  0.26018380  1
  Te  Te160  1  0.25360329  0.74105966  0.58915272  1
  Te  Te161  1  0.23731960  0.76645961  0.94868803  1
  Te  Te162  1  0.61495777  0.07059029  0.24198858  1
  Te  Te163  1  0.59485241  0.07874687  0.58123353  1
  Te  Te164  1  0.58199264  0.07287501  0.92262610  1
  Te  Te165  1  0.55682050  0.44061719  0.21656873  1
  Te  Te166  1  0.57314260  0.40931664  0.58325377  1
  Te  Te167  1  0.59790825  0.41669491  0.90772761  1
  Te  Te168  1  0.59487085  0.74766273  0.24234338  1
  Te  Te169  1  0.57615117  0.74284766  0.58200258  1
  Te  Te170  1  0.60634421  0.74405974  0.94247094  1
  Te  Te171  1  0.91662816  0.10803471  0.23122758  1
  Te  Te172  1  0.92068571  0.09830897  0.58557677  1
  Te  Te173  1  0.90380312  0.08912178  0.94314417  1
  Te  Te174  1  0.91804820  0.41293621  0.25670787  1
  Te  Te175  1  0.90090109  0.42115942  0.60444463  1
  Te  Te176  1  0.89215506  0.43074381  0.93415520  1
  Te  Te177  1  0.89763210  0.77455630  0.25070456  1
  Te  Te178  1  0.92063783  0.75688843  0.58540986  1
  Te  Te179  1  0.90548906  0.73851133  0.91842147  1
