# generated using pymatgen
data_In2Te3
_symmetry_space_group_name_H-M   'P 1'
_cell_length_a   18.97066532
_cell_length_b   19.00748662
_cell_length_c   18.99238397
_cell_angle_alpha   89.97838781
_cell_angle_beta   89.93605437
_cell_angle_gamma   89.92912439
_symmetry_Int_Tables_number   1
_chemical_formula_structural   In2Te3
_chemical_formula_sum   'In72 Te108'
_cell_volume   6848.35246754
_cell_formula_units_Z   36
loop_
 _symmetry_equiv_pos_site_id
 _symmetry_equiv_pos_as_xyz
  1  'x, y, z'
loop_
 _atom_site_type_symbol
 _atom_site_label
 _atom_site_symmetry_multiplicity
 _atom_site_fract_x
 _atom_site_fract_y
 _atom_site_fract_z
 _atom_site_occupancy
  In  In0  1  0.64840406  0.66327901  0.00534130  1
  In  In1  1  0.34048928  0.01281823  0.67994880  1
  In  In2  1  -0.03033541  0.15944392  0.17407634  1
  In  In3  1  0.01092886  0.16006423  0.82044254  1
  In  In4  1  0.67275914  -0.01292989  -0.00330631  1
  In  In5  1  0.66813316  0.31439668  0.68270883  1
  In  In6  1  0.53536918  0.65099577  0.48918544  1
  In  In7  1  0.81878927  -0.00481986  0.19299731  1
  In  In8  1  0.18160232  0.67048669  0.16672579  1
  In  In9  1  0.67529780  0.00712466  0.36532227  1
  In  In10  1  0.49696241  0.18006874  0.35361353  1
  In  In11  1  0.00845290  0.52077525  0.49678432  1
  In  In12  1  0.49747354  0.34997272  0.50236814  1
  In  In13  1  0.36374705  -0.02373820  0.34131425  1
  In  In14  1  0.67000181  0.15072361  0.19873416  1
  In  In15  1  -0.02354911  0.81503005  0.15480227  1
  In  In16  1  0.18529194  0.83478784  -0.02371152  1
  In  In17  1  0.14955086  0.80533092  0.29093726  1
  In  In18  1  -0.05746427  0.81330249  0.73307496  1
  In  In19  1  0.34651770  0.50205176  0.82331658  1
  In  In20  1  0.17482162  0.17790356  -0.03022038  1
  In  In21  1  0.81643545  0.51384192  0.00565052  1
  In  In22  1  -0.00627489  0.48638461  0.14533157  1
  In  In23  1  0.16301141  -0.01486780  0.83643075  1
  In  In24  1  0.32403591  0.00454437  0.01748101  1
  In  In25  1  -0.02068982  0.67314323  -0.02491161  1
  In  In26  1  -0.02066192  -0.00840747  0.37066225  1
  In  In27  1  0.35753993  0.52226164  0.17689499  1
  In  In28  1  0.81167900  0.65920285  0.50996890  1
  In  In29  1  -0.02407526  0.02011928  0.03127369  1
  In  In30  1  0.66220876  0.35287391  0.33479086  1
  In  In31  1  0.32338591  0.78841362  0.20742314  1
  In  In32  1  0.53709098  0.51163934  0.67691917  1
  In  In33  1  0.34493095  0.52227817  0.44926818  1
  In  In34  1  0.15439212  0.33643695  0.49827762  1
  In  In35  1  0.50083630  0.00943908  0.53105997  1
  In  In36  1  0.49628935  0.17491175  -0.00380456  1
  In  In37  1  0.50532258  0.00302538  0.84295894  1
  In  In38  1  -0.00302766  0.36349118  0.31132987  1
  In  In39  1  0.66041828  0.82201022  0.53061241  1
  In  In40  1  0.17691478  -0.01043612  0.50324114  1
  In  In41  1  0.34202701  0.84677143  0.47799197  1
  In  In42  1  0.17733156  0.19373791  0.32590201  1
  In  In43  1  0.79838783  0.33883105  0.14143409  1
  In  In44  1  0.78812804  0.67712134  0.17719651  1
  In  In45  1  -0.01441132  0.66283890  0.31616892  1
  In  In46  1  0.52632203  0.80213289  0.33039443  1
  In  In47  1  0.51760477  0.83772849  0.02472987  1
  In  In48  1  0.65798460  0.00909719  0.67864147  1
  In  In49  1  -0.02824239  0.83141045  0.51218077  1
  In  In50  1  0.37353295  0.15876257  0.16415833  1
  In  In51  1  0.33578467  0.31666877  0.66177916  1
  In  In52  1  0.35611192  0.80878632  0.81931167  1
  In  In53  1  0.15681121  0.79722895  0.66465516  1
  In  In54  1  0.18131136  0.34126160  0.81268194  1
  In  In55  1  0.36973564  0.64322985  -0.01572959  1
  In  In56  1  0.83593016  0.66375880  0.82805795  1
  In  In57  1  0.53183541  0.34086198  0.85062489  1
  In  In58  1  0.68729590  0.83794058  0.82884017  1
  In  In59  1  0.17702894  0.51952249  0.63178787  1
  In  In60  1  0.81136799  0.48952180  0.67568727  1
  In  In61  1  0.80594130  0.19819183  -0.02040717  1
  In  In62  1  0.83832499  0.13841416  0.68628154  1
  In  In63  1  0.33924311  0.66256091  0.64775018  1
  In  In64  1  0.15970950  0.00650975  0.18555968  1
  In  In65  1  -0.01245670  0.49181223  0.85815994  1
  In  In66  1  -0.01587913  0.15733982  0.50058112  1
  In  In67  1  0.33570192  0.34241545  0.00432740  1
  In  In68  1  0.19205088  0.36679934  0.16161115  1
  In  In69  1  -0.00242452  0.32009789  0.66027622  1
  In  In70  1  0.81723921  0.33382282  0.49074025  1
  In  In71  1  0.50834787  0.33798346  0.16894209  1
  Te  Te72  1  0.09797468  0.09923466  0.08173042  1
  Te  Te73  1  0.09492975  0.09017881  0.40330208  1
  Te  Te74  1  0.08291857  0.06129635  0.74136750  1
  Te  Te75  1  0.09133202  0.41001763  0.06746632  1
  Te  Te76  1  0.09290512  0.43672736  0.40238841  1
  Te  Te77  1  0.09238707  0.42254225  0.71946170  1
  Te  Te78  1  0.08905735  0.75477198  0.07246064  1
  Te  Te79  1  0.05909440  0.76196227  0.40326526  1
  Te  Te80  1  0.07208445  0.75876140  0.77668375  1
  Te  Te81  1  0.44975306  0.05563094  0.08454335  1
  Te  Te82  1  0.40873281  0.08485217  0.43441243  1
  Te  Te83  1  0.44696989  0.09398522  0.74198934  1
  Te  Te84  1  0.43204290  0.43085020  0.07514994  1
  Te  Te85  1  0.44695595  0.43562717  0.39330978  1
  Te  Te86  1  0.43405952  0.40877260  0.74180557  1
  Te  Te87  1  0.39685482  0.76166034  0.07470540  1
  Te  Te88  1  0.42624725  0.73456926  0.42094002  1
  Te  Te89  1  0.44169787  0.72240714  0.73599473  1
  Te  Te90  1  0.75849970  0.09515050  0.08696180  1
  Te  Te91  1  0.79810137  0.06564480  0.41910639  1
  Te  Te92  1  0.73728621  0.08413841  0.77898782  1
  Te  Te93  1  0.71075195  0.44745573  0.08834996  1
  Te  Te94  1  0.74008491  0.44083437  0.42676898  1
  Te  Te95  1  0.75372012  0.39544748  0.77472159  1
  Te  Te96  1  0.75608353  0.74942980  0.05490710  1
  Te  Te97  1  0.72268700  0.74064260  0.42232389  1
  Te  Te98  1  0.73853929  0.73105481  0.73812705  1
  Te  Te99  1  0.07759710  0.25948914  0.23252788  1
  Te  Te100  1  0.08960785  0.22842013  0.58354636  1
  Te  Te101  1  0.07848655  0.26936908  0.90208660  1
  Te  Te102  1  0.07885063  0.57827122  0.23305494  1
  Te  Te103  1  0.08512251  0.61863755  0.57431876  1
  Te  Te104  1  0.08029476  0.58112079  0.92515636  1
  Te  Te105  1  0.04431881  0.92622606  0.24246055  1
  Te  Te106  1  0.08315632  0.90508015  0.58608662  1
  Te  Te107  1  0.07296977  0.93280256  0.94595622  1
  Te  Te108  1  0.41149357  0.26631783  0.26208815  1
  Te  Te109  1  0.43137713  0.24432022  0.57766781  1
  Te  Te110  1  0.40952509  0.25674613  0.90529592  1
  Te  Te111  1  0.45488205  0.62012103  0.23218506  1
  Te  Te112  1  0.43075300  0.56189641  0.57597171  1
  Te  Te113  1  0.46260248  0.57174059  0.89053643  1
  Te  Te114  1  0.43374798  0.88906031  0.24173695  1
  Te  Te115  1  0.41263228  0.90547203  0.59747251  1
  Te  Te116  1  0.40555356  0.91421248  0.92003514  1
  Te  Te117  1  0.75742166  0.25539127  0.26145255  1
  Te  Te118  1  0.76534924  0.23707431  0.59153276  1
  Te  Te119  1  0.71810758  0.29621442  0.90603621  1
  Te  Te120  1  0.69867526  0.59567840  0.26129667  1
  Te  Te121  1  0.73115319  0.60174182  0.62258854  1
  Te  Te122  1  0.73025394  0.57828337  0.89743895  1
  Te  Te123  1  0.71636833  0.91249146  0.25783733  1
  Te  Te124  1  0.75209835  0.91854462  0.60007922  1
  Te  Te125  1  0.76725698  0.94429199  0.89255137  1
  Te  Te126  1  0.26545114  0.23430294  0.08730722  1
  Te  Te127  1  0.25835732  0.26476739  0.42195329  1
  Te  Te128  1  0.24607260  0.23270929  0.74136543  1
  Te  Te129  1  0.26173036  0.58145447  0.07376866  1
  Te  Te130  1  0.22644914  0.60203542  0.43005807  1
  Te  Te131  1  0.24907595  0.58940774  0.74634580  1
  Te  Te132  1  0.24273371  0.90913473  0.10370307  1
  Te  Te133  1  0.22981195  0.90445946  0.38242251  1
  Te  Te134  1  0.25123063  0.89542802  0.74628982  1
  Te  Te135  1  0.59178947  0.23499588  0.09690170  1
  Te  Te136  1  0.60156070  0.25197334  0.43039980  1
  Te  Te137  1  0.56304561  0.23638832  0.75130137  1
  Te  Te138  1  0.54246092  0.62042441  0.10189927  1
  Te  Te139  1  0.64076882  0.58873686  0.40553646  1
  Te  Te140  1  0.59281486  0.54573371  0.80760102  1
  Te  Te141  1  0.62492960  0.89882997  0.10521506  1
  Te  Te142  1  0.56899904  0.90898039  0.43275872  1
  Te  Te143  1  0.57394484  0.90544865  0.75120035  1
  Te  Te144  1  0.91156083  0.25795632  0.07674147  1
  Te  Te145  1  0.93156080  0.27058593  0.41383400  1
  Te  Te146  1  0.90770639  0.25474106  0.75978516  1
  Te  Te147  1  0.90961668  0.60614338  0.09238376  1
  Te  Te148  1  0.90012847  0.58009224  0.40903571  1
  Te  Te149  1  0.92192384  0.56835174  0.74677381  1
  Te  Te150  1  0.88429277  0.91114654  0.08296253  1
  Te  Te151  1  0.87278020  0.91641615  0.43923603  1
  Te  Te152  1  0.87385260  0.93800153  0.69470138  1
  Te  Te153  1  0.27679677  0.07675708  0.25284517  1
  Te  Te154  1  0.25964477  0.08171832  0.57817167  1
  Te  Te155  1  0.26539329  0.08001098  0.89978984  1
  Te  Te156  1  0.26503115  0.44158861  0.25928603  1
  Te  Te157  1  0.26854184  0.41835734  0.56743087  1
  Te  Te158  1  0.24994908  0.42944637  0.91550489  1
  Te  Te159  1  0.25578400  0.68721183  0.30640346  1
  Te  Te160  1  0.25328756  0.74996606  0.55796011  1
  Te  Te161  1  0.26297354  0.72646762  0.90641100  1
  Te  Te162  1  0.56604750  0.07221162  0.27353047  1
  Te  Te163  1  0.62099711  0.08709661  0.55890069  1
  Te  Te164  1  0.59893223  0.09519318  0.91808833  1
  Te  Te165  1  0.58882382  0.43854044  0.23967711  1
  Te  Te166  1  0.60748527  0.41563570  0.58590005  1
  Te  Te167  1  0.61467560  0.39005394  0.96359384  1
  Te  Te168  1  0.58262389  0.71367054  0.22181245  1
  Te  Te169  1  0.56396425  0.73786019  0.60477370  1
  Te  Te170  1  0.57887169  0.76225111  0.91178708  1
  Te  Te171  1  0.89331242  0.09323331  0.28632598  1
  Te  Te172  1  0.93513588  0.06060280  0.60232581  1
  Te  Te173  1  0.91172103  0.10205254  0.92262665  1
  Te  Te174  1  0.88539441  0.42955558  0.23455180  1
  Te  Te175  1  0.91932528  0.42097602  0.57647456  1
  Te  Te176  1  0.89882743  0.41193652  0.94014379  1
  Te  Te177  1  0.88545137  0.76333480  0.26316778  1
  Te  Te178  1  0.90428752  0.73547388  0.60413273  1
  Te  Te179  1  0.91664819  0.77695421  0.88770866  1
