# generated using pymatgen
data_In2Te3
_symmetry_space_group_name_H-M   'P 1'
_cell_length_a   19.05005156
_cell_length_b   19.02117642
_cell_length_c   19.02734477
_cell_angle_alpha   90.04345651
_cell_angle_beta   89.96259604
_cell_angle_gamma   90.08623625
_symmetry_Int_Tables_number   1
_chemical_formula_structural   In2Te3
_chemical_formula_sum   'In72 Te108'
_cell_volume   6894.63067936
_cell_formula_units_Z   36
loop_
 _symmetry_equiv_pos_site_id
 _symmetry_equiv_pos_as_xyz
  1  'x, y, z'
loop_
 _atom_site_type_symbol
 _atom_site_label
 _atom_site_symmetry_multiplicity
 _atom_site_fract_x
 _atom_site_fract_y
 _atom_site_fract_z
 _atom_site_occupancy
  In  In0  1  0.48887281  0.31228482  0.86441238  1
  In  In1  1  0.70309060  0.69652582  0.65187337  1
  In  In2  1  0.50756688  0.34091136  0.49397670  1
  In  In3  1  0.14995965  0.82510386  0.32914502  1
  In  In4  1  0.67519628  -0.00232646  0.30121200  1
  In  In5  1  0.49358507  0.48875661  0.28803790  1
  In  In6  1  0.51004365  0.51832914  0.66075299  1
  In  In7  1  0.82957874  0.49066259  0.66158160  1
  In  In8  1  0.32143531  0.34971399  0.32824039  1
  In  In9  1  0.14732364  0.47698042  0.62525873  1
  In  In10  1  0.35441499  0.18330328  0.48994319  1
  In  In11  1  0.84547263  0.90700096  0.62936559  1
  In  In12  1  0.34390993  0.66622032  0.04154699  1
  In  In13  1  0.86376826  0.66066423  0.49038559  1
  In  In14  1  -0.02664844  0.46656918  0.81695336  1
  In  In15  1  0.34178872  0.82681066  0.85991632  1
  In  In16  1  0.50556016  0.17493553  0.34881607  1
  In  In17  1  -0.00870507  0.00505002  0.34048087  1
  In  In18  1  0.00280059  0.00064993  -0.01719044  1
  In  In19  1  0.00303355  0.88063211  0.50955412  1
  In  In20  1  0.63415955  0.63372104  0.00483794  1
  In  In21  1  0.51260121  0.00182691  0.47829597  1
  In  In22  1  0.62538500  0.67135759  0.29653648  1
  In  In23  1  0.00190204  0.65659733  0.64439325  1
  In  In24  1  0.64360070  0.48439960  0.84443578  1
  In  In25  1  0.81359713  0.33144574  0.15484766  1
  In  In26  1  0.84573476  0.32762606  0.51444334  1
  In  In27  1  0.20060610  -0.00089471  0.48513423  1
  In  In28  1  0.83052938  0.49432798  0.32201621  1
  In  In29  1  0.81069683  0.67073822  0.85198387  1
  In  In30  1  0.83624055  0.66690775  0.16961558  1
  In  In31  1  0.52095064  0.66431132  0.47138832  1
  In  In32  1  0.36600507  0.83266636  0.18847688  1
  In  In33  1  0.32757112  0.49931730  0.83474756  1
  In  In34  1  0.17021174  0.18593032  0.01744602  1
  In  In35  1  -0.01816255  0.82168167  0.82804791  1
  In  In36  1  0.32636575  0.33811620  0.68475924  1
  In  In37  1  0.00654148  0.32964220  0.65681099  1
  In  In38  1  0.67381481  0.82078099  0.48571781  1
  In  In39  1  0.63421792  0.02508424  0.68374061  1
  In  In40  1  0.17561437  0.64915315  0.17094109  1
  In  In41  1  0.14899905  0.02817978  0.81848152  1
  In  In42  1  0.00404326  0.17988938  0.80229870  1
  In  In43  1  0.35116067  -0.00788883  0.66427491  1
  In  In44  1  -0.01499683  0.31523091  0.00161873  1
  In  In45  1  0.20275707  0.84569564  0.00574853  1
  In  In46  1  0.15408553  0.64283590  0.81051809  1
  In  In47  1  0.00778327  0.32901179  0.37858344  1
  In  In48  1  0.83474002  0.81929907  0.33008658  1
  In  In49  1  0.75001909  0.87506165  0.04681777  1
  In  In50  1  0.14809202  0.47677680  -0.03485051  1
  In  In51  1  0.64728880  0.32686482  0.01315101  1
  In  In52  1  0.34387488  0.68951429  0.63438500  1
  In  In53  1  -0.02189067  0.85070949  0.15627039  1
  In  In54  1  0.34562308  0.16398568  0.17806374  1
  In  In55  1  0.66281338  0.17363945  0.85268611  1
  In  In56  1  0.49122239  0.65079753  0.82585509  1
  In  In57  1  0.66551905  0.32336107  0.66217978  1
  In  In58  1  0.35682099  0.02409730  0.02710083  1
  In  In59  1  0.18745712  0.16577424  0.35106051  1
  In  In60  1  0.01766487  0.48658870  0.20185909  1
  In  In61  1  0.65930592  0.85452369  0.85225007  1
  In  In62  1  0.81908630  0.16384691  0.33338871  1
  In  In63  1  0.66546476  0.32068657  0.33210002  1
  In  In64  1  -0.00334168  0.66622791  0.03527876  1
  In  In65  1  0.51133551  0.02963958  0.85535287  1
  In  In66  1  0.84179433  0.00079765  0.81512484  1
  In  In67  1  0.33807880  0.17630929  0.85615303  1
  In  In68  1  -0.01200812  0.15530358  0.16539734  1
  In  In69  1  0.21300496  0.82278735  0.65238591  1
  In  In70  1  0.36275793  0.83258463  0.44937426  1
  In  In71  1  0.15852654  0.35076553  0.21805284  1
  Te  Te72  1  0.08713032  0.07648969  0.08302714  1
  Te  Te73  1  0.08692956  0.08238314  0.42953798  1
  Te  Te74  1  0.09897235  0.11664590  0.70393294  1
  Te  Te75  1  0.08105642  0.40407128  0.08872605  1
  Te  Te76  1  0.11718343  0.41534708  0.41771086  1
  Te  Te77  1  0.09825866  0.41948919  0.75506940  1
  Te  Te78  1  0.09773725  0.76508629  0.09068432  1
  Te  Te79  1  0.05851324  0.77132747  0.42939116  1
  Te  Te80  1  0.09188584  0.75706971  0.73156785  1
  Te  Te81  1  0.44636826  0.05897459  0.13943120  1
  Te  Te82  1  0.40513629  0.07418962  0.39880377  1
  Te  Te83  1  0.41735488  0.09396888  0.75680135  1
  Te  Te84  1  0.44090857  0.47072469  0.14260686  1
  Te  Te85  1  0.42013838  0.42945284  0.41144872  1
  Te  Te86  1  0.44173944  0.42442887  0.75710961  1
  Te  Te87  1  0.43120164  0.77985963  0.06686120  1
  Te  Te88  1  0.41273728  0.71084671  0.38518785  1
  Te  Te89  1  0.41819061  0.75768432  0.74815482  1
  Te  Te90  1  0.68933234  0.02122434  0.14548095  1
  Te  Te91  1  0.73925500  0.07056975  0.41208915  1
  Te  Te92  1  0.74923023  0.09829725  0.74731674  1
  Te  Te93  1  0.71414044  0.42638730  0.10212664  1
  Te  Te94  1  0.75647039  0.40523458  0.41878410  1
  Te  Te95  1  0.74508009  0.41156242  0.75758934  1
  Te  Te96  1  0.73616643  0.72517208  0.07359790  1
  Te  Te97  1  0.74512710  0.71798346  0.40105901  1
  Te  Te98  1  0.76064245  0.78302759  0.76319416  1
  Te  Te99  1  0.07069512  0.23231720  0.26543429  1
  Te  Te100  1  0.09853541  0.23215010  0.60391815  1
  Te  Te101  1  0.08754255  0.25190801  0.91126517  1
  Te  Te102  1  0.09079168  0.59062162  0.27790108  1
  Te  Te103  1  0.10397905  0.59940811  0.55886635  1
  Te  Te104  1  0.05671556  0.59122236  0.91547346  1
  Te  Te105  1  0.07565086  0.92676896  0.24271397  1
  Te  Te106  1  0.12296745  0.92641944  0.59176857  1
  Te  Te107  1  0.09006593  0.89977063  0.91037148  1
  Te  Te108  1  0.42615528  0.26501607  0.25762592  1
  Te  Te109  1  0.42726588  0.26280732  0.59486105  1
  Te  Te110  1  0.41201340  0.23898030  0.97063776  1
  Te  Te111  1  0.42438696  0.60426504  0.21707220  1
  Te  Te112  1  0.42071930  0.58333785  0.56032507  1
  Te  Te113  1  0.41064528  0.58199312  0.93181287  1
  Te  Te114  1  0.47489549  0.89169971  0.27134907  1
  Te  Te115  1  0.42673514  0.90705797  0.56635216  1
  Te  Te116  1  0.42784282  0.92867781  0.93273530  1
  Te  Te117  1  0.73021047  0.22923523  0.22934257  1
  Te  Te118  1  0.76335925  0.23818326  0.59501848  1
  Te  Te119  1  0.74581419  0.27254415  0.91977385  1
  Te  Te120  1  0.73633872  0.57993763  0.24127789  1
  Te  Te121  1  0.75667630  0.58329717  0.56738466  1
  Te  Te122  1  0.74557824  0.55998754  0.92966665  1
  Te  Te123  1  0.73949339  0.87806256  0.23448763  1
  Te  Te124  1  0.70603449  0.93097055  0.58358320  1
  Te  Te125  1  0.73801287  0.96333117  0.91873843  1
  Te  Te126  1  0.24319046  0.26518061  0.12046662  1
  Te  Te127  1  0.24544041  0.27447790  0.43768926  1
  Te  Te128  1  0.24802584  0.24346150  0.76334990  1
  Te  Te129  1  0.23281221  0.56612693  0.06018914  1
  Te  Te130  1  0.22068243  0.51185370  0.35529098  1
  Te  Te131  1  0.26989151  0.59229352  0.73016069  1
  Te  Te132  1  0.26997777  0.92798882  0.10911588  1
  Te  Te133  1  0.26218754  0.91801087  0.37511871  1
  Te  Te134  1  0.26185253  0.92082154  0.76788582  1
  Te  Te135  1  0.54441203  0.23124245  0.05959941  1
  Te  Te136  1  0.60519905  0.23681596  0.44288342  1
  Te  Te137  1  0.57212444  0.24774535  0.75746421  1
  Te  Te138  1  0.54095667  0.58615128  0.11116298  1
  Te  Te139  1  0.59123046  0.55908109  0.39144460  1
  Te  Te140  1  0.61476932  0.60130126  0.74306924  1
  Te  Te141  1  0.61336725  0.91719848  0.07581007  1
  Te  Te142  1  0.57742592  0.89117828  0.39526476  1
  Te  Te143  1  0.55957690  0.91844892  0.75961380  1
  Te  Te144  1  0.88953074  0.22355883  0.07499050  1
  Te  Te145  1  0.92031094  0.22114839  0.43525897  1
  Te  Te146  1  0.90511481  0.26769667  0.74191359  1
  Te  Te147  1  0.91914894  0.55780726  0.10471688  1
  Te  Te148  1  0.93027063  0.56712696  0.40061339  1
  Te  Te149  1  0.90643275  0.59605693  0.75222257  1
  Te  Te150  1  0.89519637  0.93218684  0.06371753  1
  Te  Te151  1  0.88741604  0.92715582  0.41923193  1
  Te  Te152  1  0.95760628  0.94130655  0.73484068  1
  Te  Te153  1  0.24422525  0.08309456  0.24645769  1
  Te  Te154  1  0.27376432  0.09076727  0.58085537  1
  Te  Te155  1  0.24302592  0.07402204  0.93148896  1
  Te  Te156  1  0.27037372  0.45394652  0.22770344  1
  Te  Te157  1  0.27649381  0.42834583  0.58137414  1
  Te  Te158  1  0.26185564  0.39948949  0.91836967  1
  Te  Te159  1  0.25577540  0.74505374  0.25317123  1
  Te  Te160  1  0.25568716  0.75031761  0.52870826  1
  Te  Te161  1  0.23836041  0.72809613  0.91109418  1
  Te  Te162  1  0.57027865  0.09177282  0.24265278  1
  Te  Te163  1  0.55911525  0.09594577  0.58029858  1
  Te  Te164  1  0.57518483  0.11410375  0.96045293  1
  Te  Te165  1  0.60214248  0.40256359  0.22697071  1
  Te  Te166  1  0.59884267  0.42990462  0.57681193  1
  Te  Te167  1  0.54832951  0.42660786  0.94339529  1
  Te  Te168  1  0.53937804  0.76501655  0.21736500  1
  Te  Te169  1  0.58024335  0.74991190  0.58340665  1
  Te  Te170  1  0.57808302  0.74037296  0.91235191  1
  Te  Te171  1  0.89436522  0.06524206  0.24151862  1
  Te  Te172  1  0.92892466  0.01961834  0.59145936  1
  Te  Te173  1  0.92169349  0.09689066  0.90114711  1
  Te  Te174  1  0.91790784  0.37707336  0.25661093  1
  Te  Te175  1  0.93640234  0.43475551  0.57260379  1
  Te  Te176  1  0.90194055  0.41297409  0.93062308  1
  Te  Te177  1  0.93813654  0.74130915  0.25258894  1
  Te  Te178  1  0.90668422  0.76642338  0.59130413  1
  Te  Te179  1  0.90864703  0.74907515  0.93848721  1
