# generated using pymatgen
data_In2Te3
_symmetry_space_group_name_H-M   'P 1'
_cell_length_a   18.76275289
_cell_length_b   18.75860426
_cell_length_c   18.76834575
_cell_angle_alpha   89.98931673
_cell_angle_beta   89.92512869
_cell_angle_gamma   90.03398001
_symmetry_Int_Tables_number   1
_chemical_formula_structural   In2Te3
_chemical_formula_sum   'In72 Te108'
_cell_volume   6605.75741150
_cell_formula_units_Z   36
loop_
 _symmetry_equiv_pos_site_id
 _symmetry_equiv_pos_as_xyz
  1  'x, y, z'
loop_
 _atom_site_type_symbol
 _atom_site_label
 _atom_site_symmetry_multiplicity
 _atom_site_fract_x
 _atom_site_fract_y
 _atom_site_fract_z
 _atom_site_occupancy
  In  In0  1  -0.00497464  0.52890297  0.82673712  1
  In  In1  1  0.79364835  0.02888539  0.13134271  1
  In  In2  1  0.34870232  0.14229504  0.82384013  1
  In  In3  1  0.34567344  0.65834537  0.34112343  1
  In  In4  1  0.50419373  0.80633166  0.34430575  1
  In  In5  1  0.32904802  0.32779349  0.65927730  1
  In  In6  1  0.17178513  0.13869333  0.66606739  1
  In  In7  1  0.01568492  0.83571507  0.16308872  1
  In  In8  1  0.17841682  0.51903531  0.34965896  1
  In  In9  1  0.49963666  0.15405013  -0.01723447  1
  In  In10  1  0.19963016  0.36286909  0.86067700  1
  In  In11  1  0.18276868  0.83200820  0.66103525  1
  In  In12  1  0.31072251  0.66052038  -0.00582351  1
  In  In13  1  0.49042186  0.66357660  0.82603005  1
  In  In14  1  0.02024686  -0.02844287  -0.02648653  1
  In  In15  1  0.81604310  0.17445814  0.34587847  1
  In  In16  1  0.80643747  0.33691298  0.83669261  1
  In  In17  1  0.66236525  0.32084649  0.68236738  1
  In  In18  1  0.33411885  0.81477624  0.80627909  1
  In  In19  1  0.83132558  -0.00477057  0.51227732  1
  In  In20  1  0.50524305  0.33790649  0.82845117  1
  In  In21  1  0.85818354  0.35055017  0.49201627  1
  In  In22  1  0.47242832  0.34388486  0.16107159  1
  In  In23  1  0.48373765  0.33168494  0.49713302  1
  In  In24  1  0.00722587  0.15208581  0.50299849  1
  In  In25  1  0.17477379  0.16329811  -0.00749692  1
  In  In26  1  0.31868419  -0.00042201  -0.00626720  1
  In  In27  1  0.33691415  0.51723331  0.15659849  1
  In  In28  1  0.51512104  0.00894664  0.18536068  1
  In  In29  1  0.84054219  0.67588830  0.18233258  1
  In  In30  1  0.83725643  0.85522087  -0.01305202  1
  In  In31  1  0.84058306  0.29858788  0.17232989  1
  In  In32  1  0.48417117  -0.02122154  0.50904299  1
  In  In33  1  0.16472885  0.33614595  0.14350251  1
  In  In34  1  0.16470134  0.15111342  0.34581213  1
  In  In35  1  0.00202087  0.34235155  0.65191577  1
  In  In36  1  0.17095543  0.66720596  0.81880955  1
  In  In37  1  0.82781359  0.50057961  -0.00430921  1
  In  In38  1  0.49277289  0.51673584  0.65969286  1
  In  In39  1  0.80729210  0.69101357  0.84482634  1
  In  In40  1  0.64717113  0.65939863  -0.00254701  1
  In  In41  1  0.83791052  0.83884063  0.67961760  1
  In  In42  1  0.30451371  0.16999021  0.18026623  1
  In  In43  1  0.66461335  0.54708447  0.53845609  1
  In  In44  1  0.65503638  0.68487843  0.34449073  1
  In  In45  1  0.64269797  0.15597492  0.51834740  1
  In  In46  1  0.01530655  0.52186679  0.51305515  1
  In  In47  1  0.65075390  0.32685404  -0.01688130  1
  In  In48  1  0.02374341  0.67764312  -0.00815424  1
  In  In49  1  0.01015767  0.15667499  0.83535849  1
  In  In50  1  0.81647090  0.00319103  0.82671435  1
  In  In51  1  0.02104736  0.36436175  0.31460517  1
  In  In52  1  0.34297320  0.32995491  0.33512148  1
  In  In53  1  0.18774425  0.50632479  0.66535316  1
  In  In54  1  0.00313032  0.67493823  0.67258482  1
  In  In55  1  0.84046795  0.51359128  0.35792458  1
  In  In56  1  0.65857817  0.83790385  0.16455813  1
  In  In57  1  0.82500844  0.15558919  0.66860933  1
  In  In58  1  0.66576042  0.31933915  0.31344162  1
  In  In59  1  0.02431820  0.00427990  0.32860002  1
  In  In60  1  0.03737918  0.81184119  0.49118745  1
  In  In61  1  0.48048986  0.67644129  0.49737808  1
  In  In62  1  -0.03113406  0.16966641  0.15419492  1
  In  In63  1  0.34425201  0.14919829  0.50618958  1
  In  In64  1  0.52725725  -0.02193603  0.80779129  1
  In  In65  1  0.81714938  0.83762694  0.33588209  1
  In  In66  1  0.64196210  0.49854717  0.15482556  1
  In  In67  1  0.32094168  0.83233050  0.17582450  1
  In  In68  1  0.03841117  0.50601581  0.16586669  1
  In  In69  1  0.14916086  -0.00238076  0.20041386  1
  In  In70  1  0.49326190  0.83369014  0.01114041  1
  In  In71  1  0.65170140  0.82896586  0.51918689  1
  Te  Te72  1  0.08291445  0.08047093  0.08394477  1
  Te  Te73  1  0.11640904  0.04656375  0.45322312  1
  Te  Te74  1  0.07699253  0.05863807  0.74760431  1
  Te  Te75  1  0.06721517  0.40892621  0.06044841  1
  Te  Te76  1  0.09476769  0.41425548  0.43559748  1
  Te  Te77  1  0.08611002  0.42260287  0.75286319  1
  Te  Te78  1  0.10556891  0.73598771  0.10140293  1
  Te  Te79  1  0.13628151  0.75144575  0.39805686  1
  Te  Te80  1  0.07572474  0.77303256  0.76339804  1
  Te  Te81  1  0.40425866  0.08207578  0.08998111  1
  Te  Te82  1  0.42928311  0.07494431  0.41024622  1
  Te  Te83  1  0.42792512  0.05902861  0.72906606  1
  Te  Te84  1  0.40280544  0.42564974  0.05616404  1
  Te  Te85  1  0.40638460  0.43125100  0.42111386  1
  Te  Te86  1  0.40762653  0.42377384  0.74764747  1
  Te  Te87  1  0.40587817  0.73763019  0.08894825  1
  Te  Te88  1  0.38082409  0.79213905  0.43948627  1
  Te  Te89  1  0.44265472  0.75939638  0.71831112  1
  Te  Te90  1  0.72982639  0.10961646  0.02669765  1
  Te  Te91  1  0.73355832  0.07265795  0.42406842  1
  Te  Te92  1  0.72324176  0.10071151  0.75933122  1
  Te  Te93  1  0.74597781  0.40688634  0.08810344  1
  Te  Te94  1  0.74043361  0.41144305  0.41332393  1
  Te  Te95  1  0.74501865  0.42818438  0.73981406  1
  Te  Te96  1  0.75525962  0.74677203  0.07638839  1
  Te  Te97  1  0.75612030  0.74472205  0.44106455  1
  Te  Te98  1  0.72138670  0.77098193  0.74957138  1
  Te  Te99  1  0.08742154  0.23839102  0.24342419  1
  Te  Te100  1  0.09779003  0.24763919  0.58111969  1
  Te  Te101  1  0.09011652  0.26174056  0.91271674  1
  Te  Te102  1  0.06942566  0.59250302  0.27950384  1
  Te  Te103  1  0.11258433  0.61552813  0.58496776  1
  Te  Te104  1  0.10747157  0.57131047  0.92087039  1
  Te  Te105  1  0.12269077  0.87570256  0.30123380  1
  Te  Te106  1  0.08227726  0.91457406  0.58614807  1
  Te  Te107  1  0.10921079  0.87213925  0.91614538  1
  Te  Te108  1  0.42411392  0.22975299  0.25397834  1
  Te  Te109  1  0.43336853  0.23389481  0.60255441  1
  Te  Te110  1  0.40659002  0.25192552  0.91222120  1
  Te  Te111  1  0.43159248  0.57746440  0.25249676  1
  Te  Te112  1  0.39007214  0.58206387  0.57185270  1
  Te  Te113  1  0.39217202  0.57440148  0.90103795  1
  Te  Te114  1  0.42527337  0.90942151  0.25752638  1
  Te  Te115  1  0.39867773  0.87758246  0.58148661  1
  Te  Te116  1  0.41393278  0.91588787  0.90751610  1
  Te  Te117  1  0.72332795  0.20764011  0.22109052  1
  Te  Te118  1  0.76387571  0.25078642  0.56359428  1
  Te  Te119  1  0.74626560  0.22651648  0.92038249  1
  Te  Te120  1  0.73897368  0.58488770  0.25232899  1
  Te  Te121  1  0.78844998  0.58435389  0.60178054  1
  Te  Te122  1  0.72999267  0.57112247  0.90300681  1
  Te  Te123  1  0.74063644  0.93467433  0.24742037  1
  Te  Te124  1  0.72772978  0.93286762  0.60582478  1
  Te  Te125  1  0.72823905  0.91636278  0.91108020  1
  Te  Te126  1  0.27023684  0.26076691  0.06286446  1
  Te  Te127  1  0.25225997  0.24592991  0.42646855  1
  Te  Te128  1  0.24201194  0.25093325  0.76214558  1
  Te  Te129  1  0.22379606  0.59184368  0.09546143  1
  Te  Te130  1  0.26972108  0.58480402  0.44825924  1
  Te  Te131  1  0.27632967  0.59826211  0.74171915  1
  Te  Te132  1  0.23015346  0.92111827  0.09027699  1
  Te  Te133  1  0.22485536  0.94860947  0.39170234  1
  Te  Te134  1  0.26411096  0.92913463  0.74125391  1
  Te  Te135  1  0.56560403  0.24956073  0.08374712  1
  Te  Te136  1  0.57436051  0.24178880  0.41130649  1
  Te  Te137  1  0.58406202  0.22786955  0.76484575  1
  Te  Te138  1  0.54974678  0.57440639  0.06869939  1
  Te  Te139  1  0.57516707  0.57902705  0.42051388  1
  Te  Te140  1  0.58975910  0.58327438  0.74850823  1
  Te  Te141  1  0.58920716  0.93593082  0.07108738  1
  Te  Te142  1  0.59049083  0.91312854  0.40897814  1
  Te  Te143  1  0.61522761  0.89033944  0.72564807  1
  Te  Te144  1  0.91598371  0.26077091  0.05120407  1
  Te  Te145  1  0.94013862  0.24893673  0.40223675  1
  Te  Te146  1  0.91786196  0.25488115  0.74662882  1
  Te  Te147  1  0.92011212  0.59180036  0.08049873  1
  Te  Te148  1  0.93626053  0.60615631  0.41921764  1
  Te  Te149  1  0.88720330  0.60170621  0.74511951  1
  Te  Te150  1  0.91360071  0.92890949  0.09959418  1
  Te  Te151  1  0.92269203  0.91951020  0.41629281  1
  Te  Te152  1  0.92511611  0.92645930  0.76003272  1
  Te  Te153  1  0.27313746  0.05499442  0.28001833  1
  Te  Te154  1  0.27551588  0.05480826  0.60104358  1
  Te  Te155  1  0.23025867  0.06627979  0.88881304  1
  Te  Te156  1  0.24328880  0.41369330  0.24907953  1
  Te  Te157  1  0.25033360  0.41296572  0.56874697  1
  Te  Te158  1  0.28706319  0.45271977  0.93839394  1
  Te  Te159  1  0.24381616  0.73610336  0.26301715  1
  Te  Te160  1  0.28179159  0.77367425  0.56495296  1
  Te  Te161  1  0.23570013  0.77560205  0.92240119  1
  Te  Te162  1  0.61468116  0.09486023  0.24783148  1
  Te  Te163  1  0.56070197  0.06706797  0.60369783  1
  Te  Te164  1  0.59503463  0.06385759  0.91292628  1
  Te  Te165  1  0.56255797  0.41938150  0.25964633  1
  Te  Te166  1  0.58936949  0.41120605  0.57851917  1
  Te  Te167  1  0.57905363  0.43469199  0.91371290  1
  Te  Te168  1  0.57004767  0.73131043  0.22564604  1
  Te  Te169  1  0.56882670  0.73587306  0.60279599  1
  Te  Te170  1  0.57907066  0.76182791  0.90809697  1
  Te  Te171  1  0.90492798  0.07759507  0.25932297  1
  Te  Te172  1  0.93106306  0.06626949  0.60385995  1
  Te  Te173  1  0.92025432  0.07404178  0.92667923  1
  Te  Te174  1  0.90237489  0.42482955  0.24064116  1
  Te  Te175  1  0.90512614  0.44990799  0.59877698  1
  Te  Te176  1  0.91947653  0.42021978  0.90422680  1
  Te  Te177  1  0.93227291  0.75922845  0.26896516  1
  Te  Te178  1  0.91791799  0.75836515  0.57722689  1
  Te  Te179  1  0.92826610  0.76156429  0.90683440  1
