# generated using pymatgen
data_In2Te3
_symmetry_space_group_name_H-M   'P 1'
_cell_length_a   19.02097229
_cell_length_b   18.95335930
_cell_length_c   18.98734489
_cell_angle_alpha   89.81444610
_cell_angle_beta   90.06760458
_cell_angle_gamma   89.82041104
_symmetry_Int_Tables_number   1
_chemical_formula_structural   In2Te3
_chemical_formula_sum   'In72 Te108'
_cell_volume   6845.07844150
_cell_formula_units_Z   36
loop_
 _symmetry_equiv_pos_site_id
 _symmetry_equiv_pos_as_xyz
  1  'x, y, z'
loop_
 _atom_site_type_symbol
 _atom_site_label
 _atom_site_symmetry_multiplicity
 _atom_site_fract_x
 _atom_site_fract_y
 _atom_site_fract_z
 _atom_site_occupancy
  In  In0  1  0.83419033  0.17457357  0.69308410  1
  In  In1  1  -0.00319006  0.12566201  0.15772261  1
  In  In2  1  0.68927504  0.30203181  0.00427952  1
  In  In3  1  0.17235478  0.68714558  0.49485094  1
  In  In4  1  0.66833168  0.46696654  0.15532232  1
  In  In5  1  0.83081155  -0.01898115  0.46990607  1
  In  In6  1  0.67324204  0.89315519  0.13795864  1
  In  In7  1  0.67600003  0.16265361  0.52776103  1
  In  In8  1  0.35257957  0.32527809  -0.00138507  1
  In  In9  1  0.67540809  0.47846335  0.49863353  1
  In  In10  1  0.17242111  0.30134537  0.85002505  1
  In  In11  1  0.33219471  0.66738856  0.67108203  1
  In  In12  1  0.85429130  0.84065478  0.64565553  1
  In  In13  1  0.69707228  0.84534673  0.84525698  1
  In  In14  1  0.51700188  0.31272346  0.85542825  1
  In  In15  1  0.68133905  0.67662884  0.00331548  1
  In  In16  1  0.85577833  0.30464298  0.17983481  1
  In  In17  1  0.14870110  0.49092503  0.00451443  1
  In  In18  1  0.49318356  0.17380512  0.67277390  1
  In  In19  1  0.33102517  -0.01499805  0.36234633  1
  In  In20  1  0.14235124  0.50912315  0.34450576  1
  In  In21  1  0.19188068  0.49766337  0.67196436  1
  In  In22  1  0.85290687  0.50669038  -0.02747838  1
  In  In23  1  0.50332766  0.13743436  0.34680205  1
  In  In24  1  -0.00380497  0.67147814  0.29810720  1
  In  In25  1  0.66905226  0.30880561  0.33197288  1
  In  In26  1  0.51074957  0.01162018  0.82637531  1
  In  In27  1  0.32527587  0.31853544  0.35421922  1
  In  In28  1  0.50870459  0.80062754  0.35404746  1
  In  In29  1  0.09039123  0.80286511  0.84419519  1
  In  In30  1  0.10870874  0.11185080  -0.02622169  1
  In  In31  1  0.51751194  0.65211486  0.83058045  1
  In  In32  1  0.49100645  0.36256498  0.50994111  1
  In  In33  1  0.46876306  0.85286883  0.68454337  1
  In  In34  1  0.16979673  0.00396486  0.54187745  1
  In  In35  1  -0.01132368  0.16253671  0.50862668  1
  In  In36  1  0.82770945  0.49933058  0.69398618  1
  In  In37  1  0.29507997  0.86225986  0.82765593  1
  In  In38  1  0.47129886  -0.01189107  0.15915015  1
  In  In39  1  0.46448700  0.58270316  0.34031737  1
  In  In40  1  -0.00118432  0.48959540  0.84121419  1
  In  In41  1  0.50640114  0.47894256  -0.00579260  1
  In  In42  1  0.14148462  0.34337871  0.15821082  1
  In  In43  1  0.33227638  0.54443540  0.49744798  1
  In  In44  1  0.65873017  0.66258798  0.67009385  1
  In  In45  1  0.00572582  0.00686186  0.68536802  1
  In  In46  1  0.83228816  0.84149031  0.30077393  1
  In  In47  1  0.33105250  0.34359049  0.68424908  1
  In  In48  1  0.47705182  0.76047576  0.13605497  1
  In  In49  1  0.82457608  0.48355061  0.31317930  1
  In  In50  1  0.15215565  0.14691460  0.33079835  1
  In  In51  1  0.54020173  0.33326934  0.15924293  1
  In  In52  1  0.01820059  0.70159122  0.00740921  1
  In  In53  1  0.13531695  0.33018263  0.51774516  1
  In  In54  1  0.84345462  0.16431813  0.32921952  1
  In  In55  1  -0.01515617  0.32129648  0.68299385  1
  In  In56  1  0.67122181  -0.02107426  0.30266739  1
  In  In57  1  0.14673901  0.86071165  0.30425638  1
  In  In58  1  0.67402874  0.15894865  0.84569620  1
  In  In59  1  0.29605344  -0.01562291  0.00168722  1
  In  In60  1  0.47553692  -0.01187021  0.51945994  1
  In  In61  1  0.34084752  0.17435646  0.17655136  1
  In  In62  1  0.84463767  0.68148561  0.14793233  1
  In  In63  1  0.83853173  0.69468299  0.49839613  1
  In  In64  1  0.64674483  0.81101693  0.50970294  1
  In  In65  1  0.84491800  0.02228031  0.85240276  1
  In  In66  1  0.31851960  0.52132571  0.18081789  1
  In  In67  1  0.17074977  0.69228963  0.16231500  1
  In  In68  1  0.64528986  0.64570835  0.32927070  1
  In  In69  1  -0.00909599  0.51268309  0.50501433  1
  In  In70  1  0.87585383  0.68282737  0.83196720  1
  In  In71  1  0.34493232  0.51525666  0.83175269  1
  Te  Te72  1  0.11957584  0.05176301  0.11180499  1
  Te  Te73  1  0.07829511  0.06542182  0.43518328  1
  Te  Te74  1  0.12132462  0.04162345  0.77388634  1
  Te  Te75  1  0.04873848  0.39356853  0.05385145  1
  Te  Te76  1  0.05492775  0.40764129  0.41421873  1
  Te  Te77  1  0.09812750  0.40876090  0.75089766  1
  Te  Te78  1  0.10811289  0.79530231  0.07597746  1
  Te  Te79  1  0.07682619  0.75284757  0.39498180  1
  Te  Te80  1  0.06470565  0.78853298  0.70123569  1
  Te  Te81  1  0.39648153  0.08471327  0.07028158  1
  Te  Te82  1  0.39619392  0.09542482  0.44335995  1
  Te  Te83  1  0.40727280  0.06709957  0.73187827  1
  Te  Te84  1  0.41613230  0.42044877  0.10859770  1
  Te  Te85  1  0.40941173  0.44016322  0.39980648  1
  Te  Te86  1  0.43428053  0.41246988  0.76759655  1
  Te  Te87  1  0.35974738  0.78851449  0.05014834  1
  Te  Te88  1  0.42064841  0.70085744  0.41646952  1
  Te  Te89  1  0.40615061  0.75227522  0.78102000  1
  Te  Te90  1  0.72950743  0.02101661  0.08896725  1
  Te  Te91  1  0.73058180  0.08400758  0.40699557  1
  Te  Te92  1  0.74415093  0.06712454  0.74691363  1
  Te  Te93  1  0.78251457  0.41228468  0.07541953  1
  Te  Te94  1  0.76608974  0.38939592  0.41593305  1
  Te  Te95  1  0.78924902  0.39208502  0.78278208  1
  Te  Te96  1  0.76075228  0.78329756  0.07436995  1
  Te  Te97  1  0.74065045  0.75472937  0.39717142  1
  Te  Te98  1  0.76318491  0.74895014  0.73925076  1
  Te  Te99  1  0.07163407  0.23678365  0.23887150  1
  Te  Te100  1  0.08258007  0.22372159  0.61026153  1
  Te  Te101  1  0.07920095  0.25813949  0.95468062  1
  Te  Te102  1  0.08461835  0.57609224  0.22208697  1
  Te  Te103  1  0.10217650  0.58178608  0.58012878  1
  Te  Te104  1  0.07886297  0.59294159  0.91474783  1
  Te  Te105  1  0.06813694  0.96451402  0.23147486  1
  Te  Te106  1  0.06952795  0.90414378  0.59493607  1
  Te  Te107  1  0.09067144  0.94671674  0.89796859  1
  Te  Te108  1  0.43457284  0.25512638  0.26555227  1
  Te  Te109  1  0.40512314  0.25992354  0.58132834  1
  Te  Te110  1  0.40287173  0.23320177  0.89845598  1
  Te  Te111  1  0.42334210  0.62816497  0.20228623  1
  Te  Te112  1  0.41653338  0.56211249  0.61428195  1
  Te  Te113  1  0.42214460  0.59153309  0.93664902  1
  Te  Te114  1  0.42463583  0.90467898  0.27685238  1
  Te  Te115  1  0.39170114  0.87332687  0.55936269  1
  Te  Te116  1  0.40395965  0.93310125  0.90465824  1
  Te  Te117  1  0.73762585  0.22284051  0.23080098  1
  Te  Te118  1  0.76759250  0.25521776  0.59045223  1
  Te  Te119  1  0.77900200  0.20472576  0.93995597  1
  Te  Te120  1  0.75338531  0.59188802  0.22958294  1
  Te  Te121  1  0.76116204  0.58846718  0.57409290  1
  Te  Te122  1  0.76322212  0.60290917  0.89877800  1
  Te  Te123  1  0.80106658  0.96968835  0.21561529  1
  Te  Te124  1  0.73979783  0.91032062  0.57378202  1
  Te  Te125  1  0.74410847  0.95154698  0.93773659  1
  Te  Te126  1  0.25012265  0.26006599  0.09015363  1
  Te  Te127  1  0.22400438  0.23751254  0.43083072  1
  Te  Te128  1  0.24489814  0.24058111  0.73968350  1
  Te  Te129  1  0.24394614  0.58952508  0.06975166  1
  Te  Te130  1  0.24618956  0.60698309  0.38693872  1
  Te  Te131  1  0.23626162  0.60257579  0.77028652  1
  Te  Te132  1  0.27928358  0.89180423  0.11962569  1
  Te  Te133  1  0.22081882  0.91052223  0.42909336  1
  Te  Te134  1  0.22945831  0.94167037  0.71832291  1
  Te  Te135  1  0.57394035  0.23016226  0.06280009  1
  Te  Te136  1  0.57480095  0.24720082  0.43448513  1
  Te  Te137  1  0.60077838  0.25005528  0.74639252  1
  Te  Te138  1  0.59537511  0.57453036  0.07636695  1
  Te  Te139  1  0.57728711  0.58219838  0.44728137  1
  Te  Te140  1  0.60563218  0.56063043  0.75982827  1
  Te  Te141  1  0.53945836  0.88572589  0.06975419  1
  Te  Te142  1  0.58054655  0.92407769  0.41984234  1
  Te  Te143  1  0.59392628  0.90849444  0.75084916  1
  Te  Te144  1  0.89507214  0.20260158  0.08165151  1
  Te  Te145  1  0.91927541  0.25275119  0.41607148  1
  Te  Te146  1  0.95064449  0.21069036  0.77253685  1
  Te  Te147  1  0.93382575  0.58808771  0.07113695  1
  Te  Te148  1  0.90724036  0.59165579  0.39867279  1
  Te  Te149  1  0.94339806  0.58641966  0.73691605  1
  Te  Te150  1  0.98001050  0.92506060  -0.00112700  1
  Te  Te151  1  0.92036696  0.88245753  0.41073100  1
  Te  Te152  1  0.91065472  0.91793177  0.76280695  1
  Te  Te153  1  0.26311298  0.07340451  0.25835500  1
  Te  Te154  1  0.28634787  0.04860328  0.62125955  1
  Te  Te155  1  0.24177801  0.09057018  0.91297274  1
  Te  Te156  1  0.24072534  0.41021453  0.26214091  1
  Te  Te157  1  0.25071871  0.42178318  0.55324652  1
  Te  Te158  1  0.25736859  0.42039269  0.91568934  1
  Te  Te159  1  0.25756313  0.77951064  0.24597583  1
  Te  Te160  1  0.25969561  0.76420279  0.58562830  1
  Te  Te161  1  0.21630286  0.77207474  0.91413309  1
  Te  Te162  1  0.57441718  0.07604906  0.23016550  1
  Te  Te163  1  0.57702088  0.07101277  0.59602933  1
  Te  Te164  1  0.57293399  0.09398654  0.93059878  1
  Te  Te165  1  0.58830359  0.42570973  0.27495258  1
  Te  Te166  1  0.59904194  0.40442267  0.59825105  1
  Te  Te167  1  0.61588942  0.40869860  0.92066526  1
  Te  Te168  1  0.59824243  0.75875762  0.23950906  1
  Te  Te169  1  0.55121010  0.74545850  0.60434098  1
  Te  Te170  1  0.59109720  0.75752854  0.91210624  1
  Te  Te171  1  0.94046464  0.06071345  0.28145259  1
  Te  Te172  1  0.89848487  0.06333671  0.58000070  1
  Te  Te173  1  0.95940217  0.06343450  0.94185410  1
  Te  Te174  1  0.92857344  0.41723791  0.23680492  1
  Te  Te175  1  0.91088903  0.41748190  0.59064398  1
  Te  Te176  1  0.89673575  0.38845846  0.88824050  1
  Te  Te177  1  0.93930456  0.78175211  0.20962042  1
  Te  Te178  1  0.94597021  0.73756530  0.58976814  1
  Te  Te179  1  0.91766145  0.78568828  0.93123124  1
