# generated using pymatgen
data_In2Te3
_symmetry_space_group_name_H-M   'P 1'
_cell_length_a   18.98230507
_cell_length_b   19.01141001
_cell_length_c   19.04932332
_cell_angle_alpha   89.93855708
_cell_angle_beta   89.87369599
_cell_angle_gamma   89.82310507
_symmetry_Int_Tables_number   1
_chemical_formula_structural   In2Te3
_chemical_formula_sum   'In72 Te108'
_cell_volume   6874.47375686
_cell_formula_units_Z   36
loop_
 _symmetry_equiv_pos_site_id
 _symmetry_equiv_pos_as_xyz
  1  'x, y, z'
loop_
 _atom_site_type_symbol
 _atom_site_label
 _atom_site_symmetry_multiplicity
 _atom_site_fract_x
 _atom_site_fract_y
 _atom_site_fract_z
 _atom_site_occupancy
  In  In0  1  0.01382842  0.69127583  0.03041127  1
  In  In1  1  0.82366911  0.51040979  0.63866394  1
  In  In2  1  -0.01468801  0.51022555  0.18445450  1
  In  In3  1  0.17256538  0.35121051  0.48799517  1
  In  In4  1  0.68939465  0.03714354  0.34722764  1
  In  In5  1  0.48631102  0.82320863  0.35448209  1
  In  In6  1  0.33849200  0.65006171  0.33049796  1
  In  In7  1  0.51040013  0.21107231  0.34536405  1
  In  In8  1  0.49841086  0.65463640  0.81357935  1
  In  In9  1  0.32588132  0.51880189  0.16107132  1
  In  In10  1  -0.03173782  0.83216090  0.79963676  1
  In  In11  1  0.49758957  0.52403175  -0.01359906  1
  In  In12  1  0.14215314  0.82895482  0.31005911  1
  In  In13  1  0.72936054  0.30886927  0.64088715  1
  In  In14  1  0.83844730  0.48217798  0.33524678  1
  In  In15  1  0.50185413  0.01527851  0.14678714  1
  In  In16  1  0.83812349  -0.00772294  0.79713171  1
  In  In17  1  0.67973822  0.42050881  0.24599520  1
  In  In18  1  0.01095142  0.32946486  0.00967043  1
  In  In19  1  0.86117021  0.33133786  0.83712773  1
  In  In20  1  0.51797004  0.33285002  0.51058204  1
  In  In21  1  0.17218202  0.16351081  -0.00313796  1
  In  In22  1  0.81909439  0.84149357  0.01296969  1
  In  In23  1  0.49415740  0.84230625  0.01003986  1
  In  In24  1  0.82404746  0.82996531  0.64588890  1
  In  In25  1  0.31644093  0.80660292  0.49359271  1
  In  In26  1  0.33440006  0.12695729  0.82961804  1
  In  In27  1  0.31465006  0.17376502  0.18021058  1
  In  In28  1  0.14242674  0.52127131  0.02338026  1
  In  In29  1  0.35675211  0.01246934  0.31307014  1
  In  In30  1  0.15596033  0.85718619  0.64745575  1
  In  In31  1  0.34627976  0.49600211  0.82554787  1
  In  In32  1  0.83231872  0.65373941  0.83577786  1
  In  In33  1  0.31483782  0.32258037  0.66424881  1
  In  In34  1  0.74962139  0.60995658  0.43730292  1
  In  In35  1  -0.01374663  0.66285773  0.64279771  1
  In  In36  1  0.49322505  0.67661308  0.16983289  1
  In  In37  1  0.65220234  0.84476842  0.19937540  1
  In  In38  1  0.33777876  0.34671641  0.35589247  1
  In  In39  1  0.51081859  0.29465840  0.85058919  1
  In  In40  1  0.84138385  0.19630341  0.35519949  1
  In  In41  1  0.84550030  0.66477360  0.20397504  1
  In  In42  1  0.52401112  0.80851291  0.65523763  1
  In  In43  1  0.66024983  0.84629560  0.82118476  1
  In  In44  1  0.14633289  0.49953993  0.66316359  1
  In  In45  1  0.68561844  0.66866909  -0.00865031  1
  In  In46  1  0.14803111  -0.00900123  0.16385987  1
  In  In47  1  0.33908549  0.65721315  0.67217108  1
  In  In48  1  0.69136904  0.15588209  0.83259756  1
  In  In49  1  0.33056704  0.34307567  0.01975974  1
  In  In50  1  0.50103193  0.01653434  0.50072484  1
  In  In51  1  0.30198224  0.85905700  0.14537484  1
  In  In52  1  0.67777674  0.18960449  0.16922869  1
  In  In53  1  -0.02448154  0.34124668  0.65517084  1
  In  In54  1  0.16730266  0.50642300  0.33587348  1
  In  In55  1  0.01814237  0.18974613  0.48184468  1
  In  In56  1  0.67791670  0.83218194  0.49441297  1
  In  In57  1  0.16267431  0.33515260  0.83548824  1
  In  In58  1  0.16769135  0.69659214  0.85953021  1
  In  In59  1  0.52750604  0.48915619  0.67637098  1
  In  In60  1  0.02275432  0.19505316  0.19519609  1
  In  In61  1  0.30615490  -0.06815017  -0.03065174  1
  In  In62  1  0.64914945  0.35764722  0.02415713  1
  In  In63  1  0.32238789  -0.00687670  0.63710444  1
  In  In64  1  0.49833427  0.13562074  0.00386200  1
  In  In65  1  0.83744509  0.02535464  0.15313144  1
  In  In66  1  0.50902523  0.17895964  0.65497404  1
  In  In67  1  0.07564132  0.11403577  0.64106737  1
  In  In68  1  0.18090213  0.01572358  0.47411242  1
  In  In69  1  0.83871894  0.18123981  0.00065527  1
  In  In70  1  -0.01196351  -0.00432375  -0.02443419  1
  In  In71  1  -0.01250072  0.67943121  0.34852072  1
  Te  Te72  1  0.06378015  0.09224033  0.07842141  1
  Te  Te73  1  0.04142090  0.05165989  0.43026634  1
  Te  Te74  1  0.06490678  0.02705640  0.75767334  1
  Te  Te75  1  0.08384646  0.41621391  0.11094074  1
  Te  Te76  1  0.07178963  0.41161666  0.39863395  1
  Te  Te77  1  0.06391307  0.41784008  0.75945273  1
  Te  Te78  1  0.08357478  0.75867876  0.13897395  1
  Te  Te79  1  0.10563225  0.73544754  0.41461160  1
  Te  Te80  1  0.07805086  0.74454967  0.74162001  1
  Te  Te81  1  0.37845694  0.07659352  0.08310060  1
  Te  Te82  1  0.41368938  0.10451433  0.41411668  1
  Te  Te83  1  0.42411476  0.07218579  0.72214436  1
  Te  Te84  1  0.43096660  0.43106956  0.08572593  1
  Te  Te85  1  0.43571453  0.42515449  0.43105185  1
  Te  Te86  1  0.42011191  0.38325130  0.75675490  1
  Te  Te87  1  0.39712301  0.75326207  0.08272696  1
  Te  Te88  1  0.42682833  0.71613721  0.44052394  1
  Te  Te89  1  0.41449542  0.76268320  0.74947199  1
  Te  Te90  1  0.73417604  0.09274937  0.06636156  1
  Te  Te91  1  0.79560949  0.08209893  0.43881659  1
  Te  Te92  1  0.74338518  0.07585599  0.72304975  1
  Te  Te93  1  0.74370599  0.42098461  0.11299051  1
  Te  Te94  1  0.73470982  0.42953557  0.43198186  1
  Te  Te95  1  0.77146339  0.41013753  0.74478440  1
  Te  Te96  1  0.74560514  0.75323695  0.11196663  1
  Te  Te97  1  0.75506371  0.75973367  0.38806488  1
  Te  Te98  1  0.75021013  0.74799466  0.74973430  1
  Te  Te99  1  0.12811258  0.21798060  0.29368334  1
  Te  Te100  1  0.09952567  0.26675798  0.59364306  1
  Te  Te101  1  0.07412160  0.23540848  0.90717256  1
  Te  Te102  1  0.08322905  0.60039183  0.25159193  1
  Te  Te103  1  0.07073679  0.57353487  0.56384711  1
  Te  Te104  1  0.06667382  0.59876694  0.91895915  1
  Te  Te105  1  0.06149383  0.94588452  0.27427178  1
  Te  Te106  1  0.08576171  0.91578657  0.53245634  1
  Te  Te107  1  0.06629101  0.92114900  0.87309985  1
  Te  Te108  1  0.41217912  0.26909160  0.23994742  1
  Te  Te109  1  0.40282839  0.24539792  0.57070183  1
  Te  Te110  1  0.38907317  0.23821234  0.92584313  1
  Te  Te111  1  0.43788778  0.56424817  0.25456120  1
  Te  Te112  1  0.43154267  0.56933593  0.60114204  1
  Te  Te113  1  0.39411013  0.60745845  0.91513519  1
  Te  Te114  1  0.43074517  0.90462900  0.23196405  1
  Te  Te115  1  0.42108908  0.90057024  0.56230179  1
  Te  Te116  1  0.43973617  0.93671767  0.91252346  1
  Te  Te117  1  0.74302139  0.27521433  0.27084516  1
  Te  Te118  1  0.80685385  0.22350840  0.54694770  1
  Te  Te119  1  0.73952605  0.27110268  0.92747320  1
  Te  Te120  1  0.74173052  0.56489674  0.24365887  1
  Te  Te121  1  0.74232748  0.62295793  0.58545338  1
  Te  Te122  1  0.75613651  0.56292403  0.92108014  1
  Te  Te123  1  0.75723413  0.94025507  0.25181946  1
  Te  Te124  1  0.74551739  0.93230553  0.57631857  1
  Te  Te125  1  0.75296985  0.92729179  0.90915072  1
  Te  Te126  1  0.22634144  0.26396304  0.09572379  1
  Te  Te127  1  0.23620497  0.24483670  0.40177205  1
  Te  Te128  1  0.24400025  0.23097736  0.76140587  1
  Te  Te129  1  0.24511054  0.60723904  0.07794550  1
  Te  Te130  1  0.25451940  0.58083603  0.42637091  1
  Te  Te131  1  0.23554154  0.58167013  0.76597077  1
  Te  Te132  1  0.16492710  0.86969495  0.07427474  1
  Te  Te133  1  0.27248446  0.91587052  0.39846075  1
  Te  Te134  1  0.25552081  0.91213232  0.73793385  1
  Te  Te135  1  0.56487361  0.24573293  0.08255974  1
  Te  Te136  1  0.61015004  0.22874712  0.45417723  1
  Te  Te137  1  0.60885210  0.25941321  0.73903023  1
  Te  Te138  1  0.58792971  0.59500702  0.08339214  1
  Te  Te139  1  0.62976725  0.52964300  0.40573955  1
  Te  Te140  1  0.60802543  0.57710139  0.75940688  1
  Te  Te141  1  0.60212515  0.92256141  0.07913109  1
  Te  Te142  1  0.58231321  0.93214220  0.40051408  1
  Te  Te143  1  0.58975951  0.92143938  0.71855835  1
  Te  Te144  1  0.91379285  0.25775179  0.10313177  1
  Te  Te145  1  0.94953583  0.29118416  0.39638531  1
  Te  Te146  1  0.91988836  0.23446686  0.74224530  1
  Te  Te147  1  0.90938297  0.59573693  0.08483257  1
  Te  Te148  1  0.89950664  0.58615768  0.42764327  1
  Te  Te149  1  0.91882727  0.57293134  0.74344802  1
  Te  Te150  1  0.92470128  0.91787843  0.08891585  1
  Te  Te151  1  0.88891461  0.82245559  0.41215586  1
  Te  Te152  1  0.93488746  0.93438213  0.69348485  1
  Te  Te153  1  0.22791494  0.07943978  0.26095533  1
  Te  Te154  1  0.22315114  0.09761310  0.59243563  1
  Te  Te155  1  0.23102240  0.05317234  0.91241544  1
  Te  Te156  1  0.25507532  0.41874801  0.24873283  1
  Te  Te157  1  0.25868438  0.43548995  0.58271918  1
  Te  Te158  1  0.24391458  0.42737448  0.92612101  1
  Te  Te159  1  0.26432739  0.75760403  0.25248108  1
  Te  Te160  1  0.23417050  0.73237307  0.59386393  1
  Te  Te161  1  0.25561134  0.79849681  0.91404898  1
  Te  Te162  1  0.58092067  0.09418779  0.24858902  1
  Te  Te163  1  0.60104199  0.10682659  0.56206095  1
  Te  Te164  1  0.57840914  0.08287951  0.89459867  1
  Te  Te165  1  0.55879131  0.34672387  0.28670280  1
  Te  Te166  1  0.62258261  0.40947942  0.59057552  1
  Te  Te167  1  0.57495524  0.42005517  0.90662165  1
  Te  Te168  1  0.58334114  0.73434062  0.27738147  1
  Te  Te169  1  0.60727937  0.72369841  0.56793348  1
  Te  Te170  1  0.57958142  0.74882488  0.91624655  1
  Te  Te171  1  0.91522332  0.10560671  0.25347588  1
  Te  Te172  1  0.92686813  0.14070100  0.59674684  1
  Te  Te173  1  0.90266689  0.09186018  0.89804990  1
  Te  Te174  1  0.92755442  0.39477216  0.25630007  1
  Te  Te175  1  0.91669542  0.43145669  0.55748843  1
  Te  Te176  1  0.92312204  0.41823771  0.93495463  1
  Te  Te177  1  0.92037588  0.78056344  0.25823302  1
  Te  Te178  1  0.92223223  0.76478719  0.55263603  1
  Te  Te179  1  0.91139647  0.75842143  0.92552854  1
