# generated using pymatgen
data_In2Te3
_symmetry_space_group_name_H-M   'P 1'
_cell_length_a   19.01700000
_cell_length_b   19.01838351
_cell_length_c   18.97374254
_cell_angle_alpha   90.05582976
_cell_angle_beta   89.60398565
_cell_angle_gamma   90.09654952
_symmetry_Int_Tables_number   1
_chemical_formula_structural   In2Te3
_chemical_formula_sum   'In72 Te108'
_cell_volume   6862.10594362
_cell_formula_units_Z   36
loop_
 _symmetry_equiv_pos_site_id
 _symmetry_equiv_pos_as_xyz
  1  'x, y, z'
loop_
 _atom_site_type_symbol
 _atom_site_label
 _atom_site_symmetry_multiplicity
 _atom_site_fract_x
 _atom_site_fract_y
 _atom_site_fract_z
 _atom_site_occupancy
  In  In0  1  0.65937587  -0.03640086  0.67360081  1
  In  In1  1  0.51898300  0.51682054  0.01582236  1
  In  In2  1  0.18131667  0.82794318  0.68510526  1
  In  In3  1  0.16728062  0.31803931  0.84363406  1
  In  In4  1  0.84953889  0.50305414  0.31697555  1
  In  In5  1  0.19495315  0.15203828  -0.00556030  1
  In  In6  1  0.01236006  0.03263171  0.34018371  1
  In  In7  1  0.66616971  0.69322403  0.64137634  1
  In  In8  1  0.84906620  0.18440481  0.03868261  1
  In  In9  1  0.47618871  0.82883891  0.65610950  1
  In  In10  1  0.00814265  0.17625977  0.87590288  1
  In  In11  1  0.69566716  0.14659367  0.86781267  1
  In  In12  1  0.16134861  0.17630085  0.68769002  1
  In  In13  1  0.64736821  -0.00155923  0.02132336  1
  In  In14  1  0.85146202  0.35696851  0.46389348  1
  In  In15  1  0.30406181  0.45563321  0.75759817  1
  In  In16  1  0.01183151  0.33203674  0.66883657  1
  In  In17  1  0.31386654  0.32983047  0.30475471  1
  In  In18  1  0.64260242  0.15690555  0.48853515  1
  In  In19  1  0.51332236  0.31365266  0.84676175  1
  In  In20  1  0.81732371  0.17924757  0.31964508  1
  In  In21  1  0.00328323  0.82441129  0.16545145  1
  In  In22  1  0.31697579  0.00280350  0.67981147  1
  In  In23  1  0.81234829  0.50943180  0.67270669  1
  In  In24  1  0.15739033  0.66754638  0.51135506  1
  In  In25  1  0.47087637  0.32199143  0.47316621  1
  In  In26  1  0.02012281  0.52135326  0.86259502  1
  In  In27  1  0.63770549  0.49420389  0.81908228  1
  In  In28  1  0.47580536  0.11835016  0.35823396  1
  In  In29  1  0.02901894  -0.03302744  0.00047403  1
  In  In30  1  0.50188298  0.52518684  0.34385833  1
  In  In31  1  0.68379416  0.50577539  0.18742598  1
  In  In32  1  0.31511911  0.67395807  0.32506101  1
  In  In33  1  0.84119390  0.36322605  0.84045170  1
  In  In34  1  0.30670144  0.34945874  0.01703958  1
  In  In35  1  0.18532299  -0.00642232  0.15212023  1
  In  In36  1  0.85913522  0.66843139  0.87709324  1
  In  In37  1  0.65586227  0.82460484  0.80951977  1
  In  In38  1  0.74947006  0.81565945  0.34295359  1
  In  In39  1  0.02427201  0.19155560  0.51874410  1
  In  In40  1  0.16681275  0.67882425  0.86177027  1
  In  In41  1  0.69624679  0.66099225  0.01090603  1
  In  In42  1  0.35079818  0.14391725  0.14621799  1
  In  In43  1  0.83227580  0.04522470  0.52084083  1
  In  In44  1  0.43192103  0.47640644  0.61236035  1
  In  In45  1  0.46530536  0.14244015  -0.00227449  1
  In  In46  1  0.83190821  0.83583278  0.65847329  1
  In  In47  1  0.48533741  0.67081845  0.81481953  1
  In  In48  1  0.85368703  -0.00154400  0.82396573  1
  In  In49  1  0.59624926  0.28768663  0.63217687  1
  In  In50  1  0.50932538  0.32549212  0.15408368  1
  In  In51  1  0.83969963  0.84537924  -0.00835567  1
  In  In52  1  0.00702143  0.65650682  0.65144923  1
  In  In53  1  0.33727690  0.65879341  0.65302338  1
  In  In54  1  0.84275043  0.50159328  0.02265679  1
  In  In55  1  0.81733472  0.19956989  0.66053216  1
  In  In56  1  0.02492083  0.48107533  0.47507704  1
  In  In57  1  0.18727288  0.14993612  0.33184130  1
  In  In58  1  -0.03447320  0.68466137  0.32537007  1
  In  In59  1  0.49090766  0.83384420  -0.02198595  1
  In  In60  1  0.33757596  0.84107578  0.16719896  1
  In  In61  1  0.31812218  0.63448025  0.00738674  1
  In  In62  1  -0.00061886  0.50586000  0.15771533  1
  In  In63  1  0.03923599  -0.00568944  0.67291877  1
  In  In64  1  0.49759434  0.70750234  0.21029703  1
  In  In65  1  0.15698649  0.51445793  0.31504433  1
  In  In66  1  0.19913048  0.84449223  0.32773383  1
  In  In67  1  0.64949044  0.15308611  0.18528108  1
  In  In68  1  -0.00795613  0.83192354  0.49016484  1
  In  In69  1  0.52100236  0.70551930  0.45119973  1
  In  In70  1  0.00273385  0.17969957  0.19005819  1
  In  In71  1  0.45394868  0.13704620  0.59664329  1
  Te  Te72  1  0.08289552  0.08609483  0.08955047  1
  Te  Te73  1  0.10445296  0.08471045  0.44777720  1
  Te  Te74  1  0.08871346  0.08105525  0.79092046  1
  Te  Te75  1  0.12421621  0.44149189  0.10633612  1
  Te  Te76  1  0.09404085  0.39541910  0.37948467  1
  Te  Te77  1  0.08461418  0.41983985  0.76606382  1
  Te  Te78  1  0.05463915  0.75345171  0.04698646  1
  Te  Te79  1  0.08921097  0.75044872  0.40309273  1
  Te  Te80  1  0.07639334  0.74198043  0.75390234  1
  Te  Te81  1  0.42606256  0.02817841  0.08723729  1
  Te  Te82  1  0.39436818  0.03211927  0.44835666  1
  Te  Te83  1  0.40853241  0.10596989  0.73298812  1
  Te  Te84  1  0.41918100  0.42526699  0.08615019  1
  Te  Te85  1  0.39730167  0.42427961  0.39090901  1
  Te  Te86  1  0.45140067  0.41883836  0.75671930  1
  Te  Te87  1  0.42088949  0.73722709  0.07943102  1
  Te  Te88  1  0.39753182  0.77523036  0.40039931  1
  Te  Te89  1  0.38435230  0.76382833  0.75872192  1
  Te  Te90  1  0.74997176  0.07849184  0.09332336  1
  Te  Te91  1  0.73993579  0.07706127  0.40548902  1
  Te  Te92  1  0.75233097  0.07214690  0.73736204  1
  Te  Te93  1  0.74314190  0.41732131  0.08730387  1
  Te  Te94  1  0.74773376  0.42462625  0.39065043  1
  Te  Te95  1  0.73173500  0.40100166  0.74274325  1
  Te  Te96  1  0.74842598  0.77595963  0.08369432  1
  Te  Te97  1  0.73442148  0.70158831  0.43315456  1
  Te  Te98  1  0.76934851  0.73542493  0.75616214  1
  Te  Te99  1  0.10103851  0.25326164  0.27116554  1
  Te  Te100  1  0.12351397  0.28601274  0.57931924  1
  Te  Te101  1  0.09060657  0.26450805  0.96285883  1
  Te  Te102  1  0.06845390  0.61315545  0.24114785  1
  Te  Te103  1  0.09629312  0.55096537  0.58868570  1
  Te  Te104  1  0.08076624  0.61010617  0.96410719  1
  Te  Te105  1  0.08393520  0.92594321  0.25803942  1
  Te  Te106  1  0.09920270  0.89738301  0.57394962  1
  Te  Te107  1  0.11860487  0.94089362  0.88965172  1
  Te  Te108  1  0.42353853  0.23576389  0.24259153  1
  Te  Te109  1  0.37303970  0.25353300  0.56054992  1
  Te  Te110  1  0.39917062  0.26135445  0.93042003  1
  Te  Te111  1  0.40853234  0.58757588  0.24359951  1
  Te  Te112  1  0.44275757  0.61457708  0.55345721  1
  Te  Te113  1  0.42384329  0.57276725  0.91142620  1
  Te  Te114  1  0.43461900  0.86874620  0.27937142  1
  Te  Te115  1  0.39733767  0.92534402  0.57733631  1
  Te  Te116  1  0.39795402  0.94333895  0.94825495  1
  Te  Te117  1  0.72516955  0.26292898  0.24631287  1
  Te  Te118  1  0.73252372  0.26164363  0.55195031  1
  Te  Te119  1  0.77077657  0.25925316  0.93116332  1
  Te  Te120  1  0.78914862  0.60417963  0.22591230  1
  Te  Te121  1  0.73774436  0.58342487  0.57000300  1
  Te  Te122  1  0.74993158  0.56199643  0.90091079  1
  Te  Te123  1  0.69721071  0.92944159  0.26335711  1
  Te  Te124  1  0.75358839  0.91884421  0.56112968  1
  Te  Te125  1  0.74330514  0.91672644  0.89430567  1
  Te  Te126  1  0.24392042  0.24290796  0.10544874  1
  Te  Te127  1  0.27854668  0.23393486  0.41317819  1
  Te  Te128  1  0.26537399  0.23780933  0.77000780  1
  Te  Te129  1  0.23313632  0.55159146  0.09497396  1
  Te  Te130  1  0.24516968  0.58131372  0.42274604  1
  Te  Te131  1  0.24866497  0.59676838  0.75780549  1
  Te  Te132  1  0.23790564  0.88633280  0.06687185  1
  Te  Te133  1  0.27223508  0.95115197  0.39450200  1
  Te  Te134  1  0.23563727  0.92593607  0.78325997  1
  Te  Te135  1  0.57670866  0.22210270  0.06844464  1
  Te  Te136  1  0.56504352  0.23808219  0.39008738  1
  Te  Te137  1  0.60486130  0.22248466  0.76648283  1
  Te  Te138  1  0.58882253  0.60844682  0.11378444  1
  Te  Te139  1  0.61895338  0.60871183  0.38839528  1
  Te  Te140  1  0.58022151  0.59602675  0.72330674  1
  Te  Te141  1  0.59088461  0.87610124  0.07705589  1
  Te  Te142  1  0.57794047  0.88761184  0.34526748  1
  Te  Te143  1  0.54626855  0.91619936  0.76264400  1
  Te  Te144  1  0.92696329  0.28245410  0.11566244  1
  Te  Te145  1  0.92569013  0.23719730  0.41416772  1
  Te  Te146  1  0.92615643  0.25032602  0.77031877  1
  Te  Te147  1  0.89990426  0.60841063  0.10721690  1
  Te  Te148  1  0.92380348  0.57942899  0.42708452  1
  Te  Te149  1  0.92234384  0.57528109  0.75509434  1
  Te  Te150  1  0.91761636  0.92811194  0.09347618  1
  Te  Te151  1  0.92296693  0.95386453  0.43592601  1
  Te  Te152  1  0.93749729  0.90209634  0.74407740  1
  Te  Te153  1  0.27962179  0.05599212  0.25251195  1
  Te  Te154  1  0.21833552  0.07636503  0.59773602  1
  Te  Te155  1  0.30912111  0.07149366  0.94897960  1
  Te  Te156  1  0.24650761  0.43763916  0.21862270  1
  Te  Te157  1  0.29010491  0.44162059  0.61237242  1
  Te  Te158  1  0.24957784  0.43049031  0.90377722  1
  Te  Te159  1  0.23233607  0.74319427  0.21938012  1
  Te  Te160  1  0.25978928  0.76019555  0.57200291  1
  Te  Te161  1  0.26286952  0.75478564  0.94354682  1
  Te  Te162  1  0.55813200  0.05600943  0.25161764  1
  Te  Te163  1  0.57898915  0.05443308  0.57805574  1
  Te  Te164  1  0.57518302  0.06876591  0.91054322  1
  Te  Te165  1  0.57105726  0.42477821  0.25228879  1
  Te  Te166  1  0.56252994  0.41232133  0.55585852  1
  Te  Te167  1  0.59291048  0.40840953  0.93588406  1
  Te  Te168  1  0.62849406  0.76271019  0.26053486  1
  Te  Te169  1  0.58665757  0.79087896  0.55821682  1
  Te  Te170  1  0.59380594  0.72451075  0.90899148  1
  Te  Te171  1  0.90401595  0.07801215  0.24561326  1
  Te  Te172  1  0.94183838  0.09776654  0.61494286  1
  Te  Te173  1  0.91270807  0.07626322  0.93927421  1
  Te  Te174  1  0.92782737  0.40433986  0.23898416  1
  Te  Te175  1  0.90999464  0.41399131  0.59240741  1
  Te  Te176  1  0.94032169  0.41823420  0.93990384  1
  Te  Te177  1  0.89241404  0.80170418  0.27169213  1
  Te  Te178  1  0.90720076  0.73580761  0.57080473  1
  Te  Te179  1  0.95430286  0.77134746  0.92853085  1
