# generated using pymatgen
data_In2Te3
_symmetry_space_group_name_H-M   'P 1'
_cell_length_a   18.89563721
_cell_length_b   18.90741074
_cell_length_c   18.91323565
_cell_angle_alpha   89.86294108
_cell_angle_beta   89.99223832
_cell_angle_gamma   89.92033672
_symmetry_Int_Tables_number   1
_chemical_formula_structural   In2Te3
_chemical_formula_sum   'In72 Te108'
_cell_volume   6757.05989508
_cell_formula_units_Z   36
loop_
 _symmetry_equiv_pos_site_id
 _symmetry_equiv_pos_as_xyz
  1  'x, y, z'
loop_
 _atom_site_type_symbol
 _atom_site_label
 _atom_site_symmetry_multiplicity
 _atom_site_fract_x
 _atom_site_fract_y
 _atom_site_fract_z
 _atom_site_occupancy
  In  In0  1  0.36215950  0.49528169  0.52228463  1
  In  In1  1  0.35347573  0.36334871  0.65466092  1
  In  In2  1  0.14832330  0.68003374  0.86046069  1
  In  In3  1  0.52453435  0.64859058  0.15671625  1
  In  In4  1  0.37391434  0.33067044  -0.01729207  1
  In  In5  1  0.16267297  0.48764379  -0.01459928  1
  In  In6  1  0.81959593  0.16177965  -0.00525940  1
  In  In7  1  0.14546366  0.50384918  0.69938177  1
  In  In8  1  0.16657687  0.50956458  0.31576168  1
  In  In9  1  0.13641619  0.83181815  0.68791963  1
  In  In10  1  0.00828499  0.14305085  0.16638790  1
  In  In11  1  0.67966446  0.16971313  0.15665399  1
  In  In12  1  0.15656526  0.31603051  0.15959858  1
  In  In13  1  0.67006643  0.47456851  0.86797948  1
  In  In14  1  0.70439633  0.65752678  0.00013598  1
  In  In15  1  0.16472638  -0.01121121  0.48688449  1
  In  In16  1  0.32739797  0.47472267  0.14596594  1
  In  In17  1  0.18457343  0.14377744  0.66941749  1
  In  In18  1  0.83513082  0.33600072  0.83731287  1
  In  In19  1  0.16691590  0.14886133  0.02390633  1
  In  In20  1  0.00534406  0.50893305  0.49084606  1
  In  In21  1  -0.00750701  0.15300632  0.49717359  1
  In  In22  1  -0.00742974  0.84004069  0.49745343  1
  In  In23  1  0.35758264  0.17445103  0.86046204  1
  In  In24  1  0.72399742  0.49374879  0.17530553  1
  In  In25  1  0.32033293  0.01536365  0.33208062  1
  In  In26  1  0.51544345  0.49452466  0.34144540  1
  In  In27  1  0.67001810  0.00603361  0.33307625  1
  In  In28  1  0.14892208  0.65131082  0.14319311  1
  In  In29  1  0.85114519  0.52422922  0.69201677  1
  In  In30  1  0.67255262  -0.01433555  0.68048535  1
  In  In31  1  0.67062936  0.32531563  0.32535725  1
  In  In32  1  0.81824741  0.00510095  0.52170829  1
  In  In33  1  0.66430279  0.49377580  0.49088222  1
  In  In34  1  0.50927484  0.17442153  0.67010009  1
  In  In35  1  0.84228052  -0.02399083  0.85544569  1
  In  In36  1  0.49419044  0.82582461  0.00982200  1
  In  In37  1  0.47377539  0.86061679  0.34889125  1
  In  In38  1  0.85302439  0.15909047  0.32545659  1
  In  In39  1  0.34251678  -0.01590890  -0.00199547  1
  In  In40  1  0.50739360  0.53661572  0.67172146  1
  In  In41  1  0.50793057  0.01625312  0.16126981  1
  In  In42  1  0.13684112  -0.03211299  0.17808842  1
  In  In43  1  -0.04008639  0.68039504  0.01998299  1
  In  In44  1  0.82551238  0.67096127  0.48324208  1
  In  In45  1  0.00083998  0.34207793  0.65311432  1
  In  In46  1  0.30210659  0.82015882  0.15976195  1
  In  In47  1  0.48780739  0.02163733  0.49876574  1
  In  In48  1  0.64608803  0.82425244  0.16829934  1
  In  In49  1  0.65735544  0.68334817  0.67572214  1
  In  In50  1  0.65898860  0.63378019  0.32745455  1
  In  In51  1  0.32653350  0.01226913  0.68186147  1
  In  In52  1  0.17662098  0.33170692  0.47663413  1
  In  In53  1  -0.00257438  0.19329797  0.83432554  1
  In  In54  1  0.67962982  0.82564006  0.83803427  1
  In  In55  1  0.35161005  0.53496303  0.84662120  1
  In  In56  1  0.33838290  0.67783325  0.32043295  1
  In  In57  1  0.16489569  0.32651600  0.80644285  1
  In  In58  1  0.16430235  0.17004181  0.32042801  1
  In  In59  1  0.51476661  0.33127445  0.49364718  1
  In  In60  1  0.37262816  0.75231727  0.85062874  1
  In  In61  1  0.53531742  0.16787929  -0.00606796  1
  In  In62  1  0.36274831  0.19533849  0.19301196  1
  In  In63  1  0.13228067  -0.02245386  0.85619999  1
  In  In64  1  0.32993486  0.85962698  0.50745729  1
  In  In65  1  0.66916205  0.15725204  0.82342268  1
  In  In66  1  -0.00634009  0.68521313  0.32985609  1
  In  In67  1  0.18798839  0.66355508  0.51871134  1
  In  In68  1  0.82509159  0.82356694  0.33390895  1
  In  In69  1  -0.01626327  0.34635227  0.00424288  1
  In  In70  1  0.79312057  0.32058568  0.50432011  1
  In  In71  1  0.83841903  0.83234315  0.68585301  1
  Te  Te72  1  0.06548475  0.04507503  0.06332042  1
  Te  Te73  1  0.07504989  0.07338257  0.39801439  1
  Te  Te74  1  0.07887678  0.08566976  0.76035934  1
  Te  Te75  1  0.07520940  0.42724028  0.09587205  1
  Te  Te76  1  0.07659498  0.41382252  0.39674149  1
  Te  Te77  1  0.04716680  0.41884735  0.77755877  1
  Te  Te78  1  0.07398864  0.76198446  0.07750616  1
  Te  Te79  1  0.09080654  0.74486075  0.43078231  1
  Te  Te80  1  0.05208441  0.72440786  0.75078123  1
  Te  Te81  1  0.41226264  0.09745613  0.07192796  1
  Te  Te82  1  0.42261610  0.10020021  0.39178925  1
  Te  Te83  1  0.43290606  0.08239055  0.76563282  1
  Te  Te84  1  0.43777368  0.44865523  0.04676442  1
  Te  Te85  1  0.41000632  0.40709545  0.41024547  1
  Te  Te86  1  0.43167812  0.43549042  0.76007628  1
  Te  Te87  1  0.41045560  0.73422543  0.09636469  1
  Te  Te88  1  0.40925633  0.75092930  0.43352093  1
  Te  Te89  1  0.44359406  0.72839664  0.71821552  1
  Te  Te90  1  0.75539685  0.06608755  0.08518693  1
  Te  Te91  1  0.75101282  0.09872022  0.42134458  1
  Te  Te92  1  0.77354895  0.07030331  0.75549579  1
  Te  Te93  1  0.78140988  0.41665215  0.05715355  1
  Te  Te94  1  0.75888245  0.42826448  0.39480288  1
  Te  Te95  1  0.75258675  0.42376869  0.74361705  1
  Te  Te96  1  0.75749122  0.74484947  0.10946225  1
  Te  Te97  1  0.71717172  0.74937462  0.41274953  1
  Te  Te98  1  0.77054091  0.72443924  0.76741003  1
  Te  Te99  1  0.05648525  0.25702996  0.25663119  1
  Te  Te100  1  0.09723464  0.24384884  0.58553641  1
  Te  Te101  1  0.09997433  0.25770354  0.93358369  1
  Te  Te102  1  0.05574500  0.57794334  0.23864925  1
  Te  Te103  1  0.07681987  0.59235273  0.59429227  1
  Te  Te104  1  0.05807613  0.58589558  0.93791706  1
  Te  Te105  1  0.03698501  0.90302561  0.26060167  1
  Te  Te106  1  0.07109881  0.93121601  0.59102710  1
  Te  Te107  1  0.03220857  0.87030733  0.88915593  1
  Te  Te108  1  0.45521417  0.29954725  0.22782669  1
  Te  Te109  1  0.41354905  0.24852614  0.57651762  1
  Te  Te110  1  0.47296260  0.27057677  0.88432640  1
  Te  Te111  1  0.41412437  0.56836633  0.24451767  1
  Te  Te112  1  0.39142567  0.60975979  0.61147787  1
  Te  Te113  1  0.43933272  0.63124710  0.91107538  1
  Te  Te114  1  0.40653222  0.91909654  0.22393411  1
  Te  Te115  1  0.42601468  0.92775958  0.60245357  1
  Te  Te116  1  0.41713219  0.89893811  0.90080551  1
  Te  Te117  1  0.77500410  0.25692908  0.23869328  1
  Te  Te118  1  0.71840892  0.24900635  0.60466048  1
  Te  Te119  1  0.73258760  0.25954525  0.91851269  1
  Te  Te120  1  0.77437036  0.62740719  0.23077043  1
  Te  Te121  1  0.74600597  0.58550697  0.58347894  1
  Te  Te122  1  0.78107038  0.56640675  0.91046353  1
  Te  Te123  1  0.74691971  0.91634267  0.23945649  1
  Te  Te124  1  0.74153392  0.88923901  0.58350318  1
  Te  Te125  1  0.76134950  0.88991078  0.94533855  1
  Te  Te126  1  0.26889612  0.25914061  0.07182808  1
  Te  Te127  1  0.26337207  0.24068321  0.40223480  1
  Te  Te128  1  0.27705562  0.24442425  0.74180904  1
  Te  Te129  1  0.25628580  0.58065501  0.06172620  1
  Te  Te130  1  0.26141692  0.57456351  0.41675770  1
  Te  Te131  1  0.24150745  0.60073636  0.76256006  1
  Te  Te132  1  0.22753525  0.90997177  0.06290534  1
  Te  Te133  1  0.24099097  0.90043566  0.38941294  1
  Te  Te134  1  0.23763399  0.91789510  0.76378166  1
  Te  Te135  1  0.59192981  0.26630626  0.08533564  1
  Te  Te136  1  0.60081384  0.23834232  0.42101788  1
  Te  Te137  1  0.61923014  0.26170317  0.72476031  1
  Te  Te138  1  0.61755101  0.56023300  0.08246906  1
  Te  Te139  1  0.56214381  0.59645331  0.44324608  1
  Te  Te140  1  0.60349350  0.58336019  0.77659656  1
  Te  Te141  1  0.58912651  0.92790943  0.07025882  1
  Te  Te142  1  0.58483851  0.92288452  0.42855122  1
  Te  Te143  1  0.57991345  0.90034769  0.75753004  1
  Te  Te144  1  0.91823543  0.23787999  0.08433373  1
  Te  Te145  1  0.91128936  0.26068920  0.42788011  1
  Te  Te146  1  0.90452557  0.25139092  0.72919150  1
  Te  Te147  1  0.88902724  0.58468428  0.11218694  1
  Te  Te148  1  0.90719632  0.57756786  0.39653257  1
  Te  Te149  1  0.94977627  0.60567798  0.75823842  1
  Te  Te150  1  0.95192424  0.86230724  0.02260336  1
  Te  Te151  1  0.89913245  0.92766358  0.41749486  1
  Te  Te152  1  0.93791212  0.91695007  0.75601113  1
  Te  Te153  1  0.24152497  0.08301454  0.21943496  1
  Te  Te154  1  0.26446561  0.07880956  0.55789743  1
  Te  Te155  1  0.24406105  0.08300723  0.90827055  1
  Te  Te156  1  0.24759235  0.39838334  0.25053805  1
  Te  Te157  1  0.22630899  0.42623544  0.58793454  1
  Te  Te158  1  0.26110774  0.40926973  0.89607030  1
  Te  Te159  1  0.21684883  0.73758250  0.25350780  1
  Te  Te160  1  0.24966906  0.77192344  0.60403616  1
  Te  Te161  1  0.24735969  0.76402262  0.92844873  1
  Te  Te162  1  0.58153780  0.10413467  0.25693596  1
  Te  Te163  1  0.59619123  0.08165884  0.58706183  1
  Te  Te164  1  0.59222960  0.06484263  0.90814450  1
  Te  Te165  1  0.57335925  0.40298905  0.23664815  1
  Te  Te166  1  0.57886546  0.42437263  0.59390235  1
  Te  Te167  1  0.55596540  0.41299220  0.93814042  1
  Te  Te168  1  0.55641746  0.75010427  0.26853049  1
  Te  Te169  1  0.55388226  0.77477160  0.62506823  1
  Te  Te170  1  0.59273583  0.73930236  0.93233724  1
  Te  Te171  1  0.91451160  0.05605320  0.23890429  1
  Te  Te172  1  0.91250750  0.08661245  0.59913924  1
  Te  Te173  1  0.92923406  0.08840034  0.91883312  1
  Te  Te174  1  0.86874297  0.44302274  0.17885116  1
  Te  Te175  1  0.90373622  0.42878512  0.57395098  1
  Te  Te176  1  0.89229925  0.44115517  0.93149478  1
  Te  Te177  1  0.93600011  0.78717653  0.23549242  1
  Te  Te178  1  0.91332340  0.74299172  0.58216006  1
  Te  Te179  1  0.88955253  0.77184565  0.92222970  1
