# generated using pymatgen
data_In2Te3
_symmetry_space_group_name_H-M   'P 1'
_cell_length_a   18.99628518
_cell_length_b   18.96635107
_cell_length_c   19.00064037
_cell_angle_alpha   90.05965244
_cell_angle_beta   89.92577823
_cell_angle_gamma   89.89067163
_symmetry_Int_Tables_number   1
_chemical_formula_structural   In2Te3
_chemical_formula_sum   'In72 Te108'
_cell_volume   6845.72284331
_cell_formula_units_Z   36
loop_
 _symmetry_equiv_pos_site_id
 _symmetry_equiv_pos_as_xyz
  1  'x, y, z'
loop_
 _atom_site_type_symbol
 _atom_site_label
 _atom_site_symmetry_multiplicity
 _atom_site_fract_x
 _atom_site_fract_y
 _atom_site_fract_z
 _atom_site_occupancy
  In  In0  1  -0.00126370  0.49907080  0.48992720  1
  In  In1  1  0.17987186  0.00436632  0.50320705  1
  In  In2  1  0.35336187  0.57185794  0.31893671  1
  In  In3  1  0.81542797  0.33963986  0.80757014  1
  In  In4  1  0.32768282  0.89700964  0.84540768  1
  In  In5  1  0.82804015  0.81552153  -0.00895432  1
  In  In6  1  0.01078594  0.51214889  0.83794811  1
  In  In7  1  0.67117966  0.32533557  0.65754054  1
  In  In8  1  0.66666522  0.66164386  0.32209547  1
  In  In9  1  0.81245726  0.18338551  0.32364509  1
  In  In10  1  0.16613103  0.64506105  0.50706808  1
  In  In11  1  0.31644929  0.82428043  0.18204858  1
  In  In12  1  0.65921549  -0.01402113  0.35884498  1
  In  In13  1  0.81710158  0.32901139  0.16398956  1
  In  In14  1  0.01480680  0.16786503  0.15595553  1
  In  In15  1  0.79973867  0.85569717  0.64959447  1
  In  In16  1  0.66687480  0.67021940  0.66300501  1
  In  In17  1  0.30536426  0.66493114  0.00280724  1
  In  In18  1  -0.01307400  -0.01763782  0.33232485  1
  In  In19  1  0.48709211  0.02567700  0.14331089  1
  In  In20  1  0.02593815  0.15776159  0.83842025  1
  In  In21  1  0.65173301  0.32857427  0.00466211  1
  In  In22  1  -0.00051449  0.32465657  0.32078234  1
  In  In23  1  0.49899497  0.82799759  0.34779048  1
  In  In24  1  -0.01711678  0.33289821  -0.00963422  1
  In  In25  1  0.48513261  0.31964932  0.15200243  1
  In  In26  1  0.81857701  0.00398229  0.84918823  1
  In  In27  1  0.65359649  0.84344404  0.82509917  1
  In  In28  1  0.34298353  0.30597048  0.67392569  1
  In  In29  1  0.48566453  0.61299825  0.48674727  1
  In  In30  1  -0.00806749  0.16110272  0.50271721  1
  In  In31  1  0.30970663  0.47152064  0.85035318  1
  In  In32  1  0.19199150  0.19747493  0.36328100  1
  In  In33  1  0.79479509  0.04704495  0.15012381  1
  In  In34  1  0.82920906  0.67647980  0.50590240  1
  In  In35  1  0.18005428  0.82620683  0.67337193  1
  In  In36  1  0.51689260  0.47209459  0.66781057  1
  In  In37  1  0.51650018  0.84649672  0.65895708  1
  In  In38  1  0.65744542  0.49572226  0.14099628  1
  In  In39  1  0.00999224  0.66259997  0.35433986  1
  In  In40  1  0.36917422  0.66101973  0.68095599  1
  In  In41  1  0.20432973  0.43321835  0.04935226  1
  In  In42  1  0.84812166  0.52241661  0.67103241  1
  In  In43  1  0.66282204  0.15600965  0.51149906  1
  In  In44  1  0.77444521  0.45773916  0.34771251  1
  In  In45  1  -0.03659741  0.52226333  0.14411744  1
  In  In46  1  0.17335517  0.00611041  0.17536192  1
  In  In47  1  0.00456911  -0.00226860  0.67770172  1
  In  In48  1  0.38399377  0.08153840  -0.05062193  1
  In  In49  1  0.48206829  0.84517409  0.00279211  1
  In  In50  1  0.50375686  0.16223303  0.33031254  1
  In  In51  1  0.00882889  0.85497111  0.14226097  1
  In  In52  1  0.36540394  0.18487030  0.49603096  1
  In  In53  1  0.67581436  0.52731134  0.87554220  1
  In  In54  1  0.00290535  0.01907291  0.00459306  1
  In  In55  1  0.15249415  0.66670704  0.84147669  1
  In  In56  1  0.17842627  0.46502106  0.29903600  1
  In  In57  1  0.35770919  0.84645999  0.50926283  1
  In  In58  1  0.83234753  0.81503497  0.34618293  1
  In  In59  1  0.65183074  0.83418384  0.20952039  1
  In  In60  1  0.01604253  0.67415600  -0.00268995  1
  In  In61  1  0.84994272  0.14585647  0.68024955  1
  In  In62  1  0.34158496  0.01635194  0.34966375  1
  In  In63  1  0.84592166  0.67243714  0.14929205  1
  In  In64  1  0.48669853  0.67968488  0.84525773  1
  In  In65  1  0.33613446  0.05465210  0.70068721  1
  In  In66  1  0.62927955  0.17019386  0.84659383  1
  In  In67  1  0.49920451  0.47227176  0.00991975  1
  In  In68  1  0.17820078  0.49029706  0.65502531  1
  In  In69  1  0.15585203  0.86413616  -0.00513408  1
  In  In70  1  0.00719770  0.35096325  0.64518941  1
  In  In71  1  0.19470895  0.62929769  0.16477383  1
  Te  Te72  1  0.11701203  0.09807362  0.06849467  1
  Te  Te73  1  0.08829044  0.08363848  0.40406546  1
  Te  Te74  1  0.08411787  0.11795031  0.70999645  1
  Te  Te75  1  0.05732083  0.41557908  0.09384354  1
  Te  Te76  1  0.08811953  0.40584832  0.41211715  1
  Te  Te77  1  0.09202314  0.41420394  0.75408071  1
  Te  Te78  1  0.11508200  0.74681511  0.09549937  1
  Te  Te79  1  0.09212047  0.74913244  0.43555129  1
  Te  Te80  1  0.07950010  0.75397653  0.75124729  1
  Te  Te81  1  0.38843812  0.11905795  0.09248542  1
  Te  Te82  1  0.44873495  0.07000091  0.43872935  1
  Te  Te83  1  0.46058699  0.11967824  0.75169110  1
  Te  Te84  1  0.40883085  0.35610906  0.02945639  1
  Te  Te85  1  0.44117348  0.48915743  0.40717869  1
  Te  Te86  1  0.41494623  0.40739308  0.76513670  1
  Te  Te87  1  0.40453652  0.74393805  0.08594932  1
  Te  Te88  1  0.40875107  0.73316588  0.42253985  1
  Te  Te89  1  0.41165281  0.78575732  0.76567485  1
  Te  Te90  1  0.70424258  0.11177320  0.05390520  1
  Te  Te91  1  0.76091678  0.07951263  0.42002300  1
  Te  Te92  1  0.73516959  0.09300933  0.76073478  1
  Te  Te93  1  0.76009238  0.42070942  0.05891884  1
  Te  Te94  1  0.70298403  0.36148565  0.42908769  1
  Te  Te95  1  0.73363634  0.44777596  0.74200877  1
  Te  Te96  1  0.73517946  0.76252313  0.10128806  1
  Te  Te97  1  0.72197429  0.75342740  0.42852709  1
  Te  Te98  1  0.75176253  0.75257012  0.75499517  1
  Te  Te99  1  0.10535331  0.24970014  0.24441220  1
  Te  Te100  1  0.08582309  0.24589062  0.57753365  1
  Te  Te101  1  0.09213032  0.25704305  0.92500023  1
  Te  Te102  1  0.07276550  0.57487694  0.24714802  1
  Te  Te103  1  0.06650995  0.57885804  0.59937236  1
  Te  Te104  1  0.11004515  0.56595909  0.94636178  1
  Te  Te105  1  0.09575698  0.90494455  0.25714305  1
  Te  Te106  1  0.09090340  0.91307571  0.58285148  1
  Te  Te107  1  0.07628798  0.94305348  0.90233308  1
  Te  Te108  1  0.41168992  0.26056480  0.26854376  1
  Te  Te109  1  0.45551158  0.24998900  0.59365715  1
  Te  Te110  1  0.39462290  0.20456428  0.85885603  1
  Te  Te111  1  0.43395308  0.52361124  0.20448952  1
  Te  Te112  1  0.40142232  0.54146074  0.59790999  1
  Te  Te113  1  0.40272187  0.57803072  0.91945995  1
  Te  Te114  1  0.41470811  0.91890517  0.25239729  1
  Te  Te115  1  0.40393708  0.94017430  0.61526946  1
  Te  Te116  1  0.45521455  0.95290144  0.89988670  1
  Te  Te117  1  0.71384007  0.25300394  0.23815409  1
  Te  Te118  1  0.77014222  0.23568215  0.58696341  1
  Te  Te119  1  0.74462653  0.25394461  0.90739139  1
  Te  Te120  1  0.75748133  0.57906845  0.23159821  1
  Te  Te121  1  0.74029221  0.57449327  0.57238616  1
  Te  Te122  1  0.77489427  0.62225098  0.91753536  1
  Te  Te123  1  0.76589843  0.92220226  0.25844589  1
  Te  Te124  1  0.70087574  0.92727326  0.56616601  1
  Te  Te125  1  0.72985728  0.91750294  0.93472691  1
  Te  Te126  1  0.26904105  0.31776495  0.12016962  1
  Te  Te127  1  0.28137468  0.29080598  0.43402319  1
  Te  Te128  1  0.26371481  0.21276274  0.76536689  1
  Te  Te129  1  0.30020043  0.54274595  0.09828616  1
  Te  Te130  1  0.23557370  0.54766775  0.41767903  1
  Te  Te131  1  0.25399080  0.58899024  0.75757848  1
  Te  Te132  1  0.26346296  0.92630948  0.08022974  1
  Te  Te133  1  0.25703356  0.90782309  0.41380262  1
  Te  Te134  1  0.22930633  0.94964010  0.74652512  1
  Te  Te135  1  0.60447035  0.23516349  0.11242806  1
  Te  Te136  1  0.59529845  0.24860374  0.41274776  1
  Te  Te137  1  0.56736060  0.24424374  0.72863591  1
  Te  Te138  1  0.58621919  0.58408437  0.04779787  1
  Te  Te139  1  0.59594134  0.55643195  0.39801912  1
  Te  Te140  1  0.57335969  0.59063647  0.75788728  1
  Te  Te141  1  0.57837187  0.91177197  0.09941350  1
  Te  Te142  1  0.57648861  0.90314822  0.45001651  1
  Te  Te143  1  0.59495797  0.94656221  0.73597298  1
  Te  Te144  1  0.90397332  0.23747981  0.07957521  1
  Te  Te145  1  0.90732100  0.25562617  0.41756926  1
  Te  Te146  1  0.92910109  0.25917329  0.74755628  1
  Te  Te147  1  0.88489762  0.59047456  0.02503780  1
  Te  Te148  1  0.89692003  0.57800869  0.40632457  1
  Te  Te149  1  0.91739723  0.60312903  0.77112850  1
  Te  Te150  1  0.89893912  0.93566568  0.08003905  1
  Te  Te151  1  0.91645725  0.90027872  0.42974469  1
  Te  Te152  1  0.89780866  0.91985170  0.75217589  1
  Te  Te153  1  0.25633061  0.10172340  0.26048199  1
  Te  Te154  1  0.26120213  0.10626679  0.57583974  1
  Te  Te155  1  0.25508500  0.10770192  0.87758872  1
  Te  Te156  1  0.29518276  0.38358934  0.25214365  1
  Te  Te157  1  0.24718980  0.38085089  0.58535376  1
  Te  Te158  1  0.22355996  0.37090751  0.91324894  1
  Te  Te159  1  0.27299940  0.70631629  0.26507105  1
  Te  Te160  1  0.27335622  0.73543644  0.58705897  1
  Te  Te161  1  0.25357874  0.77105237  0.90582848  1
  Te  Te162  1  0.58866409  0.06540647  0.25116337  1
  Te  Te163  1  0.61128916  0.04781294  0.59895789  1
  Te  Te164  1  0.58415068  0.09132053  0.96153906  1
  Te  Te165  1  0.55640720  0.42978144  0.22934111  1
  Te  Te166  1  0.59982665  0.41194185  0.56036476  1
  Te  Te167  1  0.58246619  0.41100844  0.89747049  1
  Te  Te168  1  0.55125424  0.72556453  0.24732144  1
  Te  Te169  1  0.55268177  0.72244308  0.58100402  1
  Te  Te170  1  0.58342931  0.75675119  0.92946585  1
  Te  Te171  1  0.92107272  0.09343431  0.25001593  1
  Te  Te172  1  0.90925159  0.05614240  0.57333487  1
  Te  Te173  1  0.90920982  0.10295291  0.91902747  1
  Te  Te174  1  0.90441662  0.41958934  0.25090723  1
  Te  Te175  1  0.89629631  0.41885802  0.56864454  1
  Te  Te176  1  0.90325774  0.42277595  0.89945579  1
  Te  Te177  1  0.93449921  0.75612522  0.23914475  1
  Te  Te178  1  0.90343915  0.76730444  0.59110338  1
  Te  Te179  1  0.95247557  0.78235217  0.92144535  1
