# generated using pymatgen
data_In2Te3
_symmetry_space_group_name_H-M   'P 1'
_cell_length_a   19.01573222
_cell_length_b   19.01716085
_cell_length_c   18.98329423
_cell_angle_alpha   90.17663760
_cell_angle_beta   90.01343034
_cell_angle_gamma   89.70299771
_symmetry_Int_Tables_number   1
_chemical_formula_structural   In2Te3
_chemical_formula_sum   'In72 Te108'
_cell_volume   6864.71328199
_cell_formula_units_Z   36
loop_
 _symmetry_equiv_pos_site_id
 _symmetry_equiv_pos_as_xyz
  1  'x, y, z'
loop_
 _atom_site_type_symbol
 _atom_site_label
 _atom_site_symmetry_multiplicity
 _atom_site_fract_x
 _atom_site_fract_y
 _atom_site_fract_z
 _atom_site_occupancy
  In  In0  1  0.51110440  0.82592551  0.33426979  1
  In  In1  1  0.68003723  0.68220450  0.68815734  1
  In  In2  1  0.13925657  0.04693130  0.19717953  1
  In  In3  1  0.86251547  0.32899625  0.85062725  1
  In  In4  1  0.84236224  0.50828945  0.00630901  1
  In  In5  1  -0.02223814  0.82470752  0.50379435  1
  In  In6  1  0.00759013  0.83975026  0.78903647  1
  In  In7  1  0.33125545  0.66959612  0.65556604  1
  In  In8  1  0.51584049  0.15730558  -0.00061999  1
  In  In9  1  0.15022896  0.65221987  0.82379471  1
  In  In10  1  0.49957630  0.66632055  0.85242337  1
  In  In11  1  0.33879164  -0.01803633  0.32794174  1
  In  In12  1  0.49435108  0.35046152  0.16411993  1
  In  In13  1  0.00383333  0.64474888  -0.01762283  1
  In  In14  1  0.00379022  0.04125812  0.01620960  1
  In  In15  1  0.86060270  0.34699054  0.49366865  1
  In  In16  1  0.15977428  0.49778084  0.65808654  1
  In  In17  1  0.31153307  0.65244804  0.02583926  1
  In  In18  1  0.51062755  0.84871480  -0.00991751  1
  In  In19  1  0.15890326  0.32492641  0.24342870  1
  In  In20  1  0.33140661  0.02840831  -0.00713556  1
  In  In21  1  0.00006081  0.65126431  0.61789177  1
  In  In22  1  0.20312574  0.83130883  0.62986124  1
  In  In23  1  0.68333885  -0.02086362  -0.03254811  1
  In  In24  1  0.31420910  0.46423049  0.46728622  1
  In  In25  1  0.18488438  0.01851264  0.83866903  1
  In  In26  1  0.49884453  0.30713776  0.84097582  1
  In  In27  1  0.66237359  0.15587044  0.51990950  1
  In  In28  1  0.30618166  0.81204050  0.16710198  1
  In  In29  1  -0.00174080  0.45459926  0.19187321  1
  In  In30  1  0.15046689  0.02109587  0.47083641  1
  In  In31  1  -0.01767681  0.01600714  0.63275151  1
  In  In32  1  -0.00569422  0.85892372  0.15315112  1
  In  In33  1  0.84056721  0.14561462  0.66221333  1
  In  In34  1  0.33097727  0.18299243  0.15552178  1
  In  In35  1  0.47456980  0.15746932  0.35764061  1
  In  In36  1  0.83688173  0.84493021  0.34484036  1
  In  In37  1  0.15178523  0.86094784  0.00274468  1
  In  In38  1  0.64107708  0.14696316  0.16906793  1
  In  In39  1  0.84303818  0.03173833  0.15813504  1
  In  In40  1  0.34354749  -0.00044674  0.67889957  1
  In  In41  1  0.69663886  0.14003817  0.83046357  1
  In  In42  1  0.82274098  0.67911233  0.15493911  1
  In  In43  1  0.32928210  0.82812842  0.47749589  1
  In  In44  1  0.72021100  0.84732939  0.52490805  1
  In  In45  1  0.13664335  0.34946378  0.47387835  1
  In  In46  1  0.85119186  0.50648798  0.65575626  1
  In  In47  1  0.84080238  0.16662513  0.32509475  1
  In  In48  1  0.85574456  0.19359735  0.00480764  1
  In  In49  1  0.71174393  0.31762809  0.71039352  1
  In  In50  1  0.49457991  0.50404839  0.00940235  1
  In  In51  1  0.50738784  0.67107753  0.17052236  1
  In  In52  1  0.67507187  -0.00139270  0.34968724  1
  In  In53  1  0.14121386  0.65179880  0.18695517  1
  In  In54  1  0.65845711  0.82658855  0.16124457  1
  In  In55  1  0.66007566  0.48149148  0.51291803  1
  In  In56  1  -0.01818328  0.65504429  0.35599815  1
  In  In57  1  0.01061661  0.48304738  0.84164475  1
  In  In58  1  0.84083625  0.69211731  0.81574752  1
  In  In59  1  0.34338813  0.81056687  0.84749323  1
  In  In60  1  0.68180072  0.52091068  0.15562740  1
  In  In61  1  0.33894067  0.30190254  0.68364768  1
  In  In62  1  0.48889247  0.12056573  0.68378926  1
  In  In63  1  0.51310452  0.68178502  0.51593857  1
  In  In64  1  0.28427302  0.21111505  0.86724345  1
  In  In65  1  0.16265388  0.16533607  0.62525904  1
  In  In66  1  0.53425128  0.31174229  0.52727064  1
  In  In67  1  0.46659380  0.47912247  0.67406522  1
  In  In68  1  0.47840533  0.51326030  0.34098847  1
  In  In69  1  0.66643264  0.52826257  0.84833436  1
  In  In70  1  0.02600985  0.17583039  0.84536604  1
  In  In71  1  0.69004496  0.34532784  0.32750865  1
  Te  Te72  1  0.05615859  0.13860024  0.11714818  1
  Te  Te73  1  0.07486761  0.09401939  0.36613318  1
  Te  Te74  1  0.08927398  0.07717199  0.73479953  1
  Te  Te75  1  0.11181701  0.39685372  0.11711106  1
  Te  Te76  1  0.04368241  0.44629114  0.40539518  1
  Te  Te77  1  0.06469113  0.40763721  0.72655170  1
  Te  Te78  1  0.07951218  0.74895991  0.07487358  1
  Te  Te79  1  0.07190108  0.74837915  0.42132953  1
  Te  Te80  1  0.09923441  0.74212967  0.71222723  1
  Te  Te81  1  0.42818970  0.08006755  0.09581497  1
  Te  Te82  1  0.42746827  0.04129588  0.43068161  1
  Te  Te83  1  0.36629591  0.11491848  0.78034471  1
  Te  Te84  1  0.39782074  0.42747484  0.08658287  1
  Te  Te85  1  0.44796178  0.39776048  0.43726164  1
  Te  Te86  1  0.39198341  0.40341052  0.78105845  1
  Te  Te87  1  0.41848756  0.75458571  0.06738817  1
  Te  Te88  1  0.41930093  0.72992594  0.40510782  1
  Te  Te89  1  0.42890343  0.74801137  0.74089462  1
  Te  Te90  1  0.74361479  0.09573382  0.06150949  1
  Te  Te91  1  0.76448167  0.08640878  0.43205000  1
  Te  Te92  1  0.72990740  0.05635762  0.70928373  1
  Te  Te93  1  0.75018432  0.41627784  0.07489490  1
  Te  Te94  1  0.76882227  0.44077802  0.41376372  1
  Te  Te95  1  0.77783464  0.44383639  0.78072664  1
  Te  Te96  1  0.75669861  0.77397056  0.06708652  1
  Te  Te97  1  0.77393721  0.74662358  0.43213705  1
  Te  Te98  1  0.74430828  0.79604978  0.76524946  1
  Te  Te99  1  0.05610095  0.23545007  0.30583710  1
  Te  Te100  1  0.06375372  0.24135212  0.54539033  1
  Te  Te101  1  0.06785531  0.28239304  0.93624082  1
  Te  Te102  1  0.07728292  0.55074288  0.28958545  1
  Te  Te103  1  0.09490596  0.56603632  0.54205263  1
  Te  Te104  1  0.11323478  0.55173447  0.93120643  1
  Te  Te105  1  0.09826159  0.91425641  0.23887124  1
  Te  Te106  1  0.09482986  0.92183006  0.57896484  1
  Te  Te107  1  0.06797371  0.93627232  0.90199423  1
  Te  Te108  1  0.41943798  0.25617195  0.25536225  1
  Te  Te109  1  0.42450138  0.22741942  0.58569599  1
  Te  Te110  1  0.40875146  0.25282716  0.94947977  1
  Te  Te111  1  0.40792182  0.58784141  0.23656994  1
  Te  Te112  1  0.41306863  0.57142324  0.56813302  1
  Te  Te113  1  0.39519789  0.58180627  0.91959895  1
  Te  Te114  1  0.41870996  0.89204649  0.23503777  1
  Te  Te115  1  0.40405559  0.89341946  0.58542632  1
  Te  Te116  1  0.41241749  0.93070304  0.90777064  1
  Te  Te117  1  0.74383713  0.23862369  0.23230396  1
  Te  Te118  1  0.75568998  0.26530516  0.57496213  1
  Te  Te119  1  0.74741917  0.25542782  0.91591434  1
  Te  Te120  1  0.77041556  0.58490541  0.25192685  1
  Te  Te121  1  0.74381214  0.58593696  0.58763086  1
  Te  Te122  1  0.76781786  0.61188795  0.92306434  1
  Te  Te123  1  0.75309640  0.92852490  0.23705435  1
  Te  Te124  1  0.78350311  0.95408188  0.60247472  1
  Te  Te125  1  0.76308454  0.91455257  0.86589001  1
  Te  Te126  1  0.22526236  0.27592064  0.11338630  1
  Te  Te127  1  0.23220813  0.28344229  0.37978597  1
  Te  Te128  1  0.20458065  0.25624597  0.73840348  1
  Te  Te129  1  0.23602115  0.56565180  0.11433626  1
  Te  Te130  1  0.25481928  0.54942653  0.36542482  1
  Te  Te131  1  0.25646276  0.57518513  0.74810311  1
  Te  Te132  1  0.25484315  0.93292807  0.08413972  1
  Te  Te133  1  0.22820097  0.90973990  0.40011772  1
  Te  Te134  1  0.24341550  0.89614576  0.76425248  1
  Te  Te135  1  0.58762563  0.26093782  0.08379706  1
  Te  Te136  1  0.60247177  0.24439636  0.40163742  1
  Te  Te137  1  0.59081666  0.22786716  0.74962928  1
  Te  Te138  1  0.59343861  0.60461978  0.06490205  1
  Te  Te139  1  0.58800225  0.58257655  0.42760825  1
  Te  Te140  1  0.57018782  0.58241085  0.73790104  1
  Te  Te141  1  0.59015874  0.93602632  0.08271040  1
  Te  Te142  1  0.60374544  0.89415667  0.43031026  1
  Te  Te143  1  0.49127389  0.97103650  0.70247961  1
  Te  Te144  1  0.93458917  0.24195414  0.12240759  1
  Te  Te145  1  0.92288106  0.28453731  0.37124942  1
  Te  Te146  1  0.92579564  0.23815576  0.74867506  1
  Te  Te147  1  0.94067964  0.57824607  0.10349325  1
  Te  Te148  1  0.94522699  0.55344533  0.45791224  1
  Te  Te149  1  0.94089642  0.59332663  0.75480130  1
  Te  Te150  1  0.90502295  0.93389089  0.05707569  1
  Te  Te151  1  0.92639119  0.93323718  0.41874655  1
  Te  Te152  1  0.90585074  0.92239688  0.71909679  1
  Te  Te153  1  0.26380281  0.09695917  0.26221787  1
  Te  Te154  1  0.26094810  0.07028197  0.56511047  1
  Te  Te155  1  0.20885087  0.10861934  0.95677210  1
  Te  Te156  1  0.27214011  0.41585976  0.30374676  1
  Te  Te157  1  0.25719378  0.39321577  0.58434176  1
  Te  Te158  1  0.19694314  0.33416103  0.88816772  1
  Te  Te159  1  0.22544912  0.74252450  0.26477347  1
  Te  Te160  1  0.24544664  0.71706858  0.53950775  1
  Te  Te161  1  0.22692516  0.74709098  0.92269238  1
  Te  Te162  1  0.56533012  0.06595488  0.27029352  1
  Te  Te163  1  0.56256513  0.05964097  0.56369478  1
  Te  Te164  1  0.58038956  0.06798090  0.89530305  1
  Te  Te165  1  0.58936372  0.43663636  0.25616100  1
  Te  Te166  1  0.59434716  0.40592896  0.63387453  1
  Te  Te167  1  0.57860914  0.42225619  0.90698549  1
  Te  Te168  1  0.60836026  0.73080870  0.26618232  1
  Te  Te169  1  0.59998522  0.77307164  0.59759601  1
  Te  Te170  1  0.59234653  0.76670035  0.90100881  1
  Te  Te171  1  0.92776076  0.05447003  0.27727451  1
  Te  Te172  1  0.93720650  0.12979769  0.55016759  1
  Te  Te173  1  0.91347359  0.09396155  0.90604888  1
  Te  Te174  1  0.87777198  0.37185187  0.17538065  1
  Te  Te175  1  0.93895552  0.39799575  0.60913400  1
  Te  Te176  1  0.94549335  0.40314241  0.95539682  1
  Te  Te177  1  0.92606896  0.75780140  0.24516998  1
  Te  Te178  1  0.89023435  0.74283787  0.58802727  1
  Te  Te179  1  0.94375366  0.76073102  0.90437386  1
