# generated using pymatgen
data_In2Te3
_symmetry_space_group_name_H-M   'P 1'
_cell_length_a   18.99900561
_cell_length_b   18.97147986
_cell_length_c   18.95400984
_cell_angle_alpha   90.12375951
_cell_angle_beta   90.08209807
_cell_angle_gamma   89.98390886
_symmetry_Int_Tables_number   1
_chemical_formula_structural   In2Te3
_chemical_formula_sum   'In72 Te108'
_cell_volume   6831.74592107
_cell_formula_units_Z   36
loop_
 _symmetry_equiv_pos_site_id
 _symmetry_equiv_pos_as_xyz
  1  'x, y, z'
loop_
 _atom_site_type_symbol
 _atom_site_label
 _atom_site_symmetry_multiplicity
 _atom_site_fract_x
 _atom_site_fract_y
 _atom_site_fract_z
 _atom_site_occupancy
  In  In0  1  0.69196842  0.83724754  0.15188440  1
  In  In1  1  0.35037944  0.30599007  0.65476338  1
  In  In2  1  0.18724268  0.83155336  0.34843235  1
  In  In3  1  0.01003607  0.53669650  0.50520530  1
  In  In4  1  0.29851764  0.83870552  0.15501637  1
  In  In5  1  0.85124036  0.18068297  0.67531947  1
  In  In6  1  0.61931362  0.23249227  0.85765141  1
  In  In7  1  0.17337320  0.48589863  0.35738575  1
  In  In8  1  0.36244665  -0.00076048  0.64373722  1
  In  In9  1  0.80250394  0.84832640  0.65854420  1
  In  In10  1  0.49452130  0.51030654  0.64576890  1
  In  In11  1  0.82901962  0.69503578  0.17409773  1
  In  In12  1  0.60907970  0.07571182  0.40894549  1
  In  In13  1  0.83689304  0.83362572  -0.02329474  1
  In  In14  1  0.80471532  0.66856053  0.82694403  1
  In  In15  1  0.85311879  0.85733248  0.32563675  1
  In  In16  1  0.67543794  0.03043922  0.63523837  1
  In  In17  1  0.84333209  0.47561384  0.34488642  1
  In  In18  1  0.31535754  0.13420582  0.86557393  1
  In  In19  1  0.36983651  0.00779763  0.35576459  1
  In  In20  1  0.17854189  0.14410020  0.68003409  1
  In  In21  1  0.18152503  0.86668765  0.68139357  1
  In  In22  1  0.18243943  -0.00600053  0.50640099  1
  In  In23  1  0.60013735  0.86899265  0.53509567  1
  In  In24  1  -0.03316767  0.51326108  0.82904887  1
  In  In25  1  0.14049295  0.33396031  0.84499700  1
  In  In26  1  0.34470244  0.66667176  0.66245593  1
  In  In27  1  0.48069689  0.84483312  -0.02946987  1
  In  In28  1  0.34964102  0.15790631  0.17222188  1
  In  In29  1  0.00506122  0.15113829  0.83436943  1
  In  In30  1  0.15504530  0.67249740  0.18223333  1
  In  In31  1  0.05595201  0.29543641  0.32503642  1
  In  In32  1  0.73327066  0.39359033  0.84890016  1
  In  In33  1  -0.01332464  0.30241227  0.02895799  1
  In  In34  1  0.48913030  0.65170779  0.14283923  1
  In  In35  1  0.01682497  0.01200404  0.32931709  1
  In  In36  1  0.49123202  0.66076995  0.81141284  1
  In  In37  1  0.67074684  0.66140952  0.31412441  1
  In  In38  1  -0.01543807  0.34633258  0.65392309  1
  In  In39  1  0.18803188  0.67083338  0.49793683  1
  In  In40  1  0.50457273  0.03145347  0.82426343  1
  In  In41  1  0.15174093  0.51326165  0.00970772  1
  In  In42  1  0.65051905  0.47663664  0.17498357  1
  In  In43  1  0.51669950  -0.01416635  0.17322270  1
  In  In44  1  0.49032925  0.17179511  0.02087065  1
  In  In45  1  0.66886462  0.16294551  0.18373411  1
  In  In46  1  0.02060107  0.83486013  0.16758784  1
  In  In47  1  -0.00005466  0.49965635  0.16542583  1
  In  In48  1  0.34567863  0.47580595  0.81410414  1
  In  In49  1  0.48850018  0.32477924  0.18677885  1
  In  In50  1  0.66373282  0.30161485  0.63720286  1
  In  In51  1  0.83930349  0.02654105  0.17804220  1
  In  In52  1  0.82907503  0.50852147  0.00859633  1
  In  In53  1  0.49077831  0.47206221  0.37127566  1
  In  In54  1  0.81732767  0.31379884  0.19736322  1
  In  In55  1  0.28878296  0.66620737  -0.01110127  1
  In  In56  1  0.32156358  0.31872705  0.02246242  1
  In  In57  1  0.19644209  0.03130872  0.11987288  1
  In  In58  1  0.68774869  0.50540953  0.50160736  1
  In  In59  1  0.85153090  0.32635236  0.51061442  1
  In  In60  1  0.51307201  0.48803387  -0.02822117  1
  In  In61  1  0.18449467  0.30703067  0.49780659  1
  In  In62  1  0.15759742  0.82689217  -0.08099872  1
  In  In63  1  -0.00849144  0.69085760  -0.03270640  1
  In  In64  1  0.48150104  0.81306025  0.36021533  1
  In  In65  1  0.01685287  0.00099105  0.00893405  1
  In  In66  1  0.81102647  0.68332713  0.51118611  1
  In  In67  1  0.63579804  0.84594727  0.83443388  1
  In  In68  1  0.00375205  0.14223033  0.50377958  1
  In  In69  1  0.84453380  -0.00168458  0.82639807  1
  In  In70  1  0.33855530  0.47212231  0.21322700  1
  In  In71  1  0.17331257  0.51722738  0.64653491  1
  Te  Te72  1  0.05979743  0.09432616  0.11842814  1
  Te  Te73  1  0.11502715  0.09406314  0.41346939  1
  Te  Te74  1  0.10176884  0.05696952  0.77126564  1
  Te  Te75  1  0.08876842  0.40321543  0.09000741  1
  Te  Te76  1  0.07525778  0.41020615  0.44725485  1
  Te  Te77  1  0.08211781  0.43218495  0.74244177  1
  Te  Te78  1  0.09787825  0.75310852  0.06507830  1
  Te  Te79  1  0.09241073  0.74209371  0.41248189  1
  Te  Te80  1  0.12474388  0.77299797  0.78221248  1
  Te  Te81  1  0.41771623  0.05455735  0.08102167  1
  Te  Te82  1  0.44047429  0.10277800  0.44622737  1
  Te  Te83  1  0.40441274  0.11196899  0.74448716  1
  Te  Te84  1  0.42063403  0.42220202  0.08501006  1
  Te  Te85  1  0.38408874  0.37542880  0.41280857  1
  Te  Te86  1  0.44293578  0.39245732  0.73918810  1
  Te  Te87  1  0.39807930  0.75085320  0.06930619  1
  Te  Te88  1  0.43864478  0.71702264  0.46042977  1
  Te  Te89  1  0.44025087  0.76662437  0.72155492  1
  Te  Te90  1  0.73481616  0.07320897  0.08813490  1
  Te  Te91  1  0.75200142  0.12351590  0.41388155  1
  Te  Te92  1  0.75258792  0.09348040  0.74991988  1
  Te  Te93  1  0.75436546  0.40495984  0.09001574  1
  Te  Te94  1  0.74633269  0.38970401  0.41925059  1
  Te  Te95  1  0.75554215  0.39574308  0.70350467  1
  Te  Te96  1  0.74995502  0.73452318  0.05171751  1
  Te  Te97  1  0.75274103  0.75947466  0.39243103  1
  Te  Te98  1  0.71353492  0.75617831  0.74148762  1
  Te  Te99  1  0.10177711  0.21062632  0.21589307  1
  Te  Te100  1  0.08368672  0.24277308  0.60269362  1
  Te  Te101  1  0.08754120  0.22997639  0.93918859  1
  Te  Te102  1  0.07960413  0.57563560  0.26922111  1
  Te  Te103  1  0.07932364  0.62558146  0.60493071  1
  Te  Te104  1  0.08240070  0.59001973  0.89979288  1
  Te  Te105  1  0.11512202  0.91969755  0.24656520  1
  Te  Te106  1  0.08752922  0.91051519  0.57713421  1
  Te  Te107  1  0.06340201  0.93706256  0.88393311  1
  Te  Te108  1  0.40283669  0.24821669  0.27966472  1
  Te  Te109  1  0.43180122  0.28602286  0.53150456  1
  Te  Te110  1  0.40356472  0.24611648  0.91894016  1
  Te  Te111  1  0.43951440  0.57274166  0.26262660  1
  Te  Te112  1  0.38923072  0.56858736  0.55839599  1
  Te  Te113  1  0.40136268  0.57825218  0.92152315  1
  Te  Te114  1  0.41374407  0.89644508  0.24330738  1
  Te  Te115  1  0.45518253  0.91057415  0.56984688  1
  Te  Te116  1  0.40620555  0.93285619  0.87902416  1
  Te  Te117  1  0.74432362  0.22813917  0.29734060  1
  Te  Te118  1  0.76293991  0.20607513  0.54758957  1
  Te  Te119  1  0.75641232  0.25873428  0.90096144  1
  Te  Te120  1  0.76727978  0.56377094  0.23685384  1
  Te  Te121  1  0.71439221  0.61313664  0.59635189  1
  Te  Te122  1  0.74317456  0.54525004  0.89173046  1
  Te  Te123  1  0.74352360  0.93484483  0.25534286  1
  Te  Te124  1  0.74223976  0.93042484  0.54501823  1
  Te  Te125  1  0.73868253  0.92690296  0.91162215  1
  Te  Te126  1  0.23797483  0.23995274  0.11404891  1
  Te  Te127  1  0.26833317  0.27227349  0.38120780  1
  Te  Te128  1  0.24287990  0.25917546  0.76163527  1
  Te  Te129  1  0.25284704  0.57170520  0.11091854  1
  Te  Te130  1  0.27121754  0.57217832  0.42459059  1
  Te  Te131  1  0.25572690  0.58108601  0.75623503  1
  Te  Te132  1  0.24248928  0.91245215  0.03819080  1
  Te  Te133  1  0.28610995  0.90854965  0.43399915  1
  Te  Te134  1  0.28577870  0.94240057  0.75758769  1
  Te  Te135  1  0.58869108  0.25989753  0.09467783  1
  Te  Te136  1  0.55661978  0.21663183  0.45313550  1
  Te  Te137  1  0.57581425  0.21754942  0.71780754  1
  Te  Te138  1  0.59566090  0.57115753  0.06957182  1
  Te  Te139  1  0.58965996  0.58324874  0.41321307  1
  Te  Te140  1  0.58278856  0.56650106  0.74877161  1
  Te  Te141  1  0.58577653  0.90541372  0.06529087  1
  Te  Te142  1  0.58307638  0.91574822  0.39255970  1
  Te  Te143  1  0.58742859  0.94533006  0.73187338  1
  Te  Te144  1  0.89063691  0.22459797  0.10656563  1
  Te  Te145  1  0.94338384  0.24849596  0.41510253  1
  Te  Te146  1  0.92955140  0.26831450  0.77206557  1
  Te  Te147  1  0.93057185  0.60903699  0.08289717  1
  Te  Te148  1  0.90119674  0.59337434  0.41633876  1
  Te  Te149  1  0.89673838  0.59827317  0.73538253  1
  Te  Te150  1  0.91390401  0.90616934  0.08709154  1
  Te  Te151  1  0.94089290  0.92541026  0.41987003  1
  Te  Te152  1  0.91311400  0.93523566  0.71252301  1
  Te  Te153  1  0.26954595  0.06092924  0.25701240  1
  Te  Te154  1  0.27024193  0.10159086  0.57004592  1
  Te  Te155  1  0.24024218  0.07361069  0.97683252  1
  Te  Te156  1  0.22270177  0.39199493  0.25289120  1
  Te  Te157  1  0.25680719  0.40711773  0.58648806  1
  Te  Te158  1  0.24655336  0.41932752  0.92485265  1
  Te  Te159  1  0.26918153  0.73360503  0.26046810  1
  Te  Te160  1  0.25891920  0.76709183  0.58995330  1
  Te  Te161  1  0.27799023  0.75334376  0.87231638  1
  Te  Te162  1  0.55730349  0.09918386  0.26181410  1
  Te  Te163  1  0.56289817  0.09778889  0.55834987  1
  Te  Te164  1  0.58670837  0.09736473  0.93156995  1
  Te  Te165  1  0.58634502  0.39219946  0.28244676  1
  Te  Te166  1  0.58526071  0.41548969  0.56797512  1
  Te  Te167  1  0.58841221  0.37908570  0.90670467  1
  Te  Te168  1  0.58651030  0.74363177  0.21857195  1
  Te  Te169  1  0.52645742  0.74618260  0.58057389  1
  Te  Te170  1  0.57191720  0.73580681  0.91773351  1
  Te  Te171  1  0.91058422  0.10175901  0.28061975  1
  Te  Te172  1  0.93048062  0.07185157  0.61082665  1
  Te  Te173  1  0.91202846  0.08323406  0.93314536  1
  Te  Te174  1  0.93987293  0.39452398  0.25802935  1
  Te  Te175  1  0.90602058  0.45171902  0.57993478  1
  Te  Te176  1  0.93312479  0.42061862  0.94232744  1
  Te  Te177  1  0.94033489  0.74764866  0.26119893  1
  Te  Te178  1  0.90259132  0.75899286  0.59665000  1
  Te  Te179  1  0.91613710  0.77037460  0.86490016  1
