# generated using pymatgen
data_In2Te3
_symmetry_space_group_name_H-M   'P 1'
_cell_length_a   18.94130778
_cell_length_b   18.97814195
_cell_length_c   18.96231873
_cell_angle_alpha   89.80620094
_cell_angle_beta   90.01835378
_cell_angle_gamma   90.05523849
_symmetry_Int_Tables_number   1
_chemical_formula_structural   In2Te3
_chemical_formula_sum   'In72 Te108'
_cell_volume   6816.35791133
_cell_formula_units_Z   36
loop_
 _symmetry_equiv_pos_site_id
 _symmetry_equiv_pos_as_xyz
  1  'x, y, z'
loop_
 _atom_site_type_symbol
 _atom_site_label
 _atom_site_symmetry_multiplicity
 _atom_site_fract_x
 _atom_site_fract_y
 _atom_site_fract_z
 _atom_site_occupancy
  In  In0  1  0.15864740  0.66713662  0.50516035  1
  In  In1  1  0.49866763  -0.02291738  0.51265096  1
  In  In2  1  0.49987291  0.33339495  0.84360605  1
  In  In3  1  0.13741002  0.50315912  0.65461582  1
  In  In4  1  0.67227596  0.82460674  0.84939045  1
  In  In5  1  0.72352010  0.15188303  0.46912759  1
  In  In6  1  0.48033707  0.33290568  0.16730278  1
  In  In7  1  0.83561510  0.33555918  0.51303955  1
  In  In8  1  0.33930320  0.69062041  0.33835080  1
  In  In9  1  0.32173054  0.53547995  0.16853918  1
  In  In10  1  0.69896195  0.50421000  0.53815024  1
  In  In11  1  0.85291629  0.51783880  0.71013103  1
  In  In12  1  0.00988653  0.35040363  0.00627961  1
  In  In13  1  0.26965734  0.51482106  0.86049915  1
  In  In14  1  0.29706986  0.65562761  0.00493036  1
  In  In15  1  0.32779820  0.34829524  0.66684213  1
  In  In16  1  0.15824078  0.17137042  0.32443130  1
  In  In17  1  0.82867785  0.67591704  0.85690432  1
  In  In18  1  0.37242916  0.16106286  0.82290450  1
  In  In19  1  -0.01072329  -0.00328723  0.00378589  1
  In  In20  1  0.00237870  0.15889846  0.15895757  1
  In  In21  1  0.16451902  0.31280498  0.81684140  1
  In  In22  1  0.00059518  0.01058616  0.31417854  1
  In  In23  1  0.35725544  0.00527904  0.33406327  1
  In  In24  1  0.83671455  0.14841275  -0.02980637  1
  In  In25  1  0.51597607  0.49643179  0.36509396  1
  In  In26  1  0.67144712  0.18237715  0.82689859  1
  In  In27  1  0.67623319  0.66116424  0.67086150  1
  In  In28  1  0.83970034  0.16148192  0.64712704  1
  In  In29  1  0.83639075  0.84036354  0.32862794  1
  In  In30  1  0.52481765  0.31799535  0.49381394  1
  In  In31  1  0.14887587  0.01416294  0.82148494  1
  In  In32  1  0.81326868  0.67490000  0.11404880  1
  In  In33  1  0.69043961  0.50812710  0.82153787  1
  In  In34  1  0.86798877  0.46417495  0.31606819  1
  In  In35  1  0.31928672  -0.01782385  -0.02127169  1
  In  In36  1  0.54044432  0.02416173  0.17834500  1
  In  In37  1  0.13126709  0.15722792  0.65009102  1
  In  In38  1  0.83518372  0.01037164  0.17401461  1
  In  In39  1  0.51045423  0.53002070  0.67517325  1
  In  In40  1  0.13408398  0.47198467  0.32693557  1
  In  In41  1  0.32154859  0.16064285  0.15500800  1
  In  In42  1  0.01185068  0.83613294  0.16557669  1
  In  In43  1  0.16413835  0.66970142  0.17582795  1
  In  In44  1  0.34932651  0.68601492  0.67713831  1
  In  In45  1  0.48450683  0.18531434  -0.00487271  1
  In  In46  1  -0.00550851  0.82972010  0.51798023  1
  In  In47  1  0.83373304  0.49003458  0.00387137  1
  In  In48  1  -0.00653511  0.68484303  0.34927564  1
  In  In49  1  0.66626318  0.35276889  0.01505365  1
  In  In50  1  0.50110624  -0.00732307  0.83338078  1
  In  In51  1  -0.02268931  0.84961939  0.79858437  1
  In  In52  1  0.66905395  0.48577273  0.17427802  1
  In  In53  1  0.68655947  -0.00322372  0.65278043  1
  In  In54  1  0.47537717  0.53003171  0.01638083  1
  In  In55  1  0.75053280  0.28348552  0.33858210  1
  In  In56  1  -0.00622904  0.31837815  0.68301717  1
  In  In57  1  0.15116913  0.16853694  0.00843405  1
  In  In58  1  0.50796175  0.68677601  0.48094883  1
  In  In59  1  0.68027586  0.83900692  0.50635499  1
  In  In60  1  0.68264011  0.68210295  0.30229382  1
  In  In61  1  0.34130578  0.84039352  0.82651567  1
  In  In62  1  0.50366342  0.14358974  0.67260138  1
  In  In63  1  0.15496980  0.81052302  0.66949693  1
  In  In64  1  0.29797500  0.50395628  0.51324948  1
  In  In65  1  0.67078908  -0.02788068  -0.01295844  1
  In  In66  1  0.32840254  0.15345742  0.49602721  1
  In  In67  1  0.49683839  0.69499337  0.16842149  1
  In  In68  1  0.33826189  0.32710064  0.32497321  1
  In  In69  1  0.17753391  0.82397122  0.00351114  1
  In  In70  1  0.16577803  -0.00751151  0.46914829  1
  In  In71  1  0.01363575  0.49978110  0.48657310  1
  Te  Te72  1  0.09409837  0.05732084  0.09470355  1
  Te  Te73  1  0.06718362  0.09798355  0.42030532  1
  Te  Te74  1  0.04522368  0.08884847  0.74853795  1
  Te  Te75  1  0.00458979  0.44060376  0.12652676  1
  Te  Te76  1  0.05653858  0.38124215  0.41219478  1
  Te  Te77  1  0.07237469  0.42213083  0.76344302  1
  Te  Te78  1  0.07342353  0.73630203  0.07110025  1
  Te  Te79  1  0.09759846  0.77038428  0.41373359  1
  Te  Te80  1  0.06579220  0.73839292  0.76107657  1
  Te  Te81  1  0.41368561  0.07416155  0.06887350  1
  Te  Te82  1  0.44406751  0.09206786  0.42398428  1
  Te  Te83  1  0.39925169  0.04106814  0.72174776  1
  Te  Te84  1  0.39199436  0.42478770  0.08660331  1
  Te  Te85  1  0.40864430  0.41041826  0.43412369  1
  Te  Te86  1  0.42280240  0.42958866  0.75216233  1
  Te  Te87  1  0.38954134  0.74279470  0.08182360  1
  Te  Te88  1  0.42007361  0.78551467  0.41725105  1
  Te  Te89  1  0.44470279  0.76535194  0.75283560  1
  Te  Te90  1  0.74626179  0.07641828  0.06761898  1
  Te  Te91  1  0.72494462  0.02942631  0.38196712  1
  Te  Te92  1  0.75635271  0.08239875  0.75606829  1
  Te  Te93  1  0.77316942  0.39722164  0.11178965  1
  Te  Te94  1  0.74895616  0.42412844  0.41508756  1
  Te  Te95  1  0.75498102  0.41062640  0.73698308  1
  Te  Te96  1  0.71392072  0.77961589  0.08899533  1
  Te  Te97  1  0.76022312  0.74401503  0.41830950  1
  Te  Te98  1  0.76290152  0.75839432  0.74540894  1
  Te  Te99  1  0.08758115  0.26031056  0.22763331  1
  Te  Te100  1  0.05153178  0.24774369  0.56880375  1
  Te  Te101  1  0.06625281  0.24132759  0.90782437  1
  Te  Te102  1  0.06481985  0.58684925  0.25668080  1
  Te  Te103  1  0.04483410  0.61505152  0.59480376  1
  Te  Te104  1  0.16062089  0.58902430  0.92945677  1
  Te  Te105  1  0.09281155  0.91130330  0.26025653  1
  Te  Te106  1  0.09263503  0.92109307  0.58547806  1
  Te  Te107  1  0.08527431  0.91213235  0.91521414  1
  Te  Te108  1  0.42128561  0.22310042  0.25427396  1
  Te  Te109  1  0.41958901  0.24789729  0.58629215  1
  Te  Te110  1  0.38567200  0.27546362  0.92559199  1
  Te  Te111  1  0.42986334  0.57821578  0.27061446  1
  Te  Te112  1  0.41595479  0.58633392  0.56365424  1
  Te  Te113  1  0.39721206  0.59263934  0.90697056  1
  Te  Te114  1  0.44117329  0.93333997  0.23690509  1
  Te  Te115  1  0.42538045  0.92351584  0.62466071  1
  Te  Te116  1  0.43699839  0.89819672  0.93184127  1
  Te  Te117  1  0.73887828  0.20593425  0.21624891  1
  Te  Te118  1  0.73347904  0.25274845  0.58507845  1
  Te  Te119  1  0.75023030  0.26970432  0.92101403  1
  Te  Te120  1  0.77213600  0.57260929  0.24463106  1
  Te  Te121  1  0.79507979  0.60741349  0.59256421  1
  Te  Te122  1  0.73521112  0.58809817  0.93995165  1
  Te  Te123  1  0.73981892  0.92611410  0.25368902  1
  Te  Te124  1  0.78986688  0.91739388  0.57585372  1
  Te  Te125  1  0.77728852  0.91868636  0.89971005  1
  Te  Te126  1  0.22818841  0.25786426  0.09597783  1
  Te  Te127  1  0.24472828  0.25405147  0.41926806  1
  Te  Te128  1  0.26180130  0.22766827  0.73359591  1
  Te  Te129  1  0.19860065  0.55055586  0.07634668  1
  Te  Te130  1  0.23631517  0.58149522  0.39991721  1
  Te  Te131  1  0.25040677  0.57724209  0.72167748  1
  Te  Te132  1  0.25469873  0.91284909  0.08985010  1
  Te  Te133  1  0.28092065  0.91497392  0.42336206  1
  Te  Te134  1  0.23558192  0.91569193  0.74738203  1
  Te  Te135  1  0.58198117  0.25032342  0.09007386  1
  Te  Te136  1  0.61273362  0.24304816  0.40266054  1
  Te  Te137  1  0.57800172  0.26070475  0.73728631  1
  Te  Te138  1  0.58613640  0.58896048  0.10117934  1
  Te  Te139  1  0.61562353  0.58891543  0.43178877  1
  Te  Te140  1  0.58433963  0.60859700  0.78145587  1
  Te  Te141  1  0.59053493  0.90806112  0.09506864  1
  Te  Te142  1  0.60125860  0.92749777  0.41594321  1
  Te  Te143  1  0.59855233  0.91673575  0.74814281  1
  Te  Te144  1  0.91928697  0.23737779  0.06105794  1
  Te  Te145  1  0.86340779  0.21956192  0.42268932  1
  Te  Te146  1  0.88259081  0.25442580  0.75249185  1
  Te  Te147  1  0.92388334  0.58519904  0.07616879  1
  Te  Te148  1  0.90698306  0.57672327  0.41162751  1
  Te  Te149  1  0.93714747  0.58867757  0.80653698  1
  Te  Te150  1  0.90179627  0.90561347  0.08745437  1
  Te  Te151  1  0.92686779  0.92269538  0.41482844  1
  Te  Te152  1  0.90971065  0.92926285  0.69367079  1
  Te  Te153  1  0.24577390  0.07262763  0.25214165  1
  Te  Te154  1  0.23631293  0.07159931  0.58191180  1
  Te  Te155  1  0.25328202  0.09862559  0.90641700  1
  Te  Te156  1  0.25050516  0.42035998  0.24465290  1
  Te  Te157  1  0.21354057  0.39604807  0.57746574  1
  Te  Te158  1  0.23633380  0.38555468  0.92254512  1
  Te  Te159  1  0.25921958  0.76249130  0.23862259  1
  Te  Te160  1  0.26307752  0.75441068  0.57333271  1
  Te  Te161  1  0.24128241  0.74666207  0.89016765  1
  Te  Te162  1  0.64370753  0.09636164  0.26288891  1
  Te  Te163  1  0.59916630  0.08848078  0.56881342  1
  Te  Te164  1  0.57944365  0.09606842  0.91490801  1
  Te  Te165  1  0.57708044  0.40312213  0.26247714  1
  Te  Te166  1  0.58030136  0.42511827  0.58955134  1
  Te  Te167  1  0.56904171  0.43489120  0.93201608  1
  Te  Te168  1  0.56821893  0.76742549  0.27360152  1
  Te  Te169  1  0.58586398  0.75526539  0.59134502  1
  Te  Te170  1  0.61426562  0.77016751  0.97405786  1
  Te  Te171  1  0.90004857  0.11450151  0.26345909  1
  Te  Te172  1  0.90051319  0.04200180  0.58629107  1
  Te  Te173  1  0.93048725  0.06841165  0.88950148  1
  Te  Te174  1  0.94940784  0.36482607  0.24360646  1
  Te  Te175  1  0.92274843  0.43346073  0.59226959  1
  Te  Te176  1  0.92484894  0.42368963  0.90956694  1
  Te  Te177  1  0.90536216  0.74171436  0.23364841  1
  Te  Te178  1  0.93270409  0.72057062  0.59202325  1
  Te  Te179  1  0.89342313  0.79875387  0.91241457  1
