# generated using pymatgen
data_In2Te3
_symmetry_space_group_name_H-M   'P 1'
_cell_length_a   18.90122596
_cell_length_b   18.90689615
_cell_length_c   18.88939010
_cell_angle_alpha   89.99224486
_cell_angle_beta   90.05379524
_cell_angle_gamma   89.99685213
_symmetry_Int_Tables_number   1
_chemical_formula_structural   In2Te3
_chemical_formula_sum   'In72 Te108'
_cell_volume   6750.37582322
_cell_formula_units_Z   36
loop_
 _symmetry_equiv_pos_site_id
 _symmetry_equiv_pos_as_xyz
  1  'x, y, z'
loop_
 _atom_site_type_symbol
 _atom_site_label
 _atom_site_symmetry_multiplicity
 _atom_site_fract_x
 _atom_site_fract_y
 _atom_site_fract_z
 _atom_site_occupancy
  In  In0  1  0.50595617  0.82752524  0.02989661  1
  In  In1  1  0.50763954  0.51053307  0.67400502  1
  In  In2  1  0.15221306  0.00087108  0.16328215  1
  In  In3  1  0.17440981  0.17218948  0.02138398  1
  In  In4  1  0.81025545  0.64086390  0.14337738  1
  In  In5  1  -0.02885183  0.81413720  0.52177764  1
  In  In6  1  0.33916805  0.80423171  0.82502974  1
  In  In7  1  0.16330243  0.16463679  0.66082204  1
  In  In8  1  0.51205485  0.34770771  0.50878758  1
  In  In9  1  0.85189316  0.49298408  0.35542215  1
  In  In10  1  0.18568886  0.50171718  0.65292557  1
  In  In11  1  0.80686149  0.16217795  0.33823458  1
  In  In12  1  -0.01228687  0.72363721  -0.04162148  1
  In  In13  1  0.52230028  0.34763753  0.82422062  1
  In  In14  1  0.16779173  0.33108870  0.16016565  1
  In  In15  1  0.82205214  0.83792027  0.67022376  1
  In  In16  1  0.83343002  -0.02174391  0.14834295  1
  In  In17  1  0.35085877  0.36861097  -0.00551878  1
  In  In18  1  0.14936864  -0.00375818  0.50358126  1
  In  In19  1  0.17524330  0.66598394  0.51938410  1
  In  In20  1  0.84441920  0.17409743  -0.02788626  1
  In  In21  1  0.82110724  0.48877596  -0.05419112  1
  In  In22  1  0.65356550  0.16936936  0.16802642  1
  In  In23  1  0.12726665  -0.09604633  0.85131790  1
  In  In24  1  -0.00530601  0.17627789  0.14930426  1
  In  In25  1  0.17010823  0.84084138  0.32643729  1
  In  In26  1  -0.03020671  0.17277245  0.53782931  1
  In  In27  1  0.34136930  0.33631810  0.34210685  1
  In  In28  1  0.37047626  0.54140624  0.83385267  1
  In  In29  1  0.33666541  0.86314538  0.17385779  1
  In  In30  1  0.81984423  0.65986757  0.52650634  1
  In  In31  1  -0.01874135  0.68445410  0.32356953  1
  In  In32  1  0.36628207  0.01163605  0.35297498  1
  In  In33  1  -0.01812736  0.16892330  0.79653883  1
  In  In34  1  0.65104239  0.50332645  0.16804272  1
  In  In35  1  0.66680130  0.00829465  0.65720081  1
  In  In36  1  0.15441224  0.53871539  -0.02774869  1
  In  In37  1  0.70040965  -0.01804219  -0.02820836  1
  In  In38  1  0.49371141  -0.00270652  0.81744293  1
  In  In39  1  0.49007722  -0.01262033  0.18810839  1
  In  In40  1  0.17388545  0.64254534  0.16673166  1
  In  In41  1  0.35086978  0.49973492  0.18984444  1
  In  In42  1  0.02650702  0.01355596  0.32303094  1
  In  In43  1  0.68057189  0.49709435  0.50270156  1
  In  In44  1  0.34386098  -0.01871198  0.65859443  1
  In  In45  1  0.67959898  0.82818831  0.84308425  1
  In  In46  1  0.65429766  0.37275099  -0.01806878  1
  In  In47  1  0.65229505  0.68995867  0.33797229  1
  In  In48  1  0.15776309  0.69114463  0.84651929  1
  In  In49  1  0.50215091  0.18282355  0.34807836  1
  In  In50  1  -0.03753355  0.36034614  0.68572539  1
  In  In51  1  0.85305303  0.83385932  0.31817104  1
  In  In52  1  0.16076866  0.31424768  0.82302002  1
  In  In53  1  0.80938309  -0.00296677  0.48268453  1
  In  In54  1  0.68159536  0.83817159  0.17928620  1
  In  In55  1  0.68357233  0.16494558  0.80179581  1
  In  In56  1  0.80442434  0.31894618  0.52522327  1
  In  In57  1  0.32733902  0.00994922  -0.00403508  1
  In  In58  1  0.02170840  0.33940144  0.34769975  1
  In  In59  1  -0.00718160  -0.01818919  0.65633777  1
  In  In60  1  -0.00931375  0.52970200  0.17157254  1
  In  In61  1  0.50562337  0.16961672  -0.00312794  1
  In  In62  1  0.21360848  0.15809263  0.34107044  1
  In  In63  1  0.36565016  0.80754799  0.49780545  1
  In  In64  1  0.66641946  0.65293705  -0.01294450  1
  In  In65  1  0.20230831  0.48542559  0.41449191  1
  In  In66  1  0.35874266  0.18740359  0.48742206  1
  In  In67  1  0.57964285  0.84238003  0.52067214  1
  In  In68  1  -0.00500688  0.34860464  -0.00003553  1
  In  In69  1  0.35636947  0.65936914  0.65244265  1
  In  In70  1  0.34136393  0.15547929  0.80692499  1
  In  In71  1  0.52737883  0.51907751  0.33624185  1
  Te  Te72  1  0.06428234  0.07337283  0.06247198  1
  Te  Te73  1  0.08004455  0.10951106  0.42999076  1
  Te  Te74  1  0.08699692  0.06547247  0.74536660  1
  Te  Te75  1  0.08847489  0.43622622  0.08387074  1
  Te  Te76  1  0.06620088  0.43640170  0.44792465  1
  Te  Te77  1  0.09051001  0.42277348  0.74569242  1
  Te  Te78  1  0.08321623  0.71977909  0.07871662  1
  Te  Te79  1  0.07978730  0.76023390  0.41992124  1
  Te  Te80  1  0.08555724  0.79213890  0.76698238  1
  Te  Te81  1  0.42060742  0.08463288  0.08975872  1
  Te  Te82  1  0.45623642  0.07168945  0.45794607  1
  Te  Te83  1  0.43922158  0.09027983  0.71040905  1
  Te  Te84  1  0.43770209  0.42313897  0.09828410  1
  Te  Te85  1  0.42581903  0.43468825  0.41740581  1
  Te  Te86  1  0.40715586  0.41936107  0.75375837  1
  Te  Te87  1  0.39209062  0.75673210  0.08862464  1
  Te  Te88  1  0.40597504  0.69903396  0.40840093  1
  Te  Te89  1  0.44660279  0.74570046  0.73793614  1
  Te  Te90  1  0.75553787  0.08893909  0.07520529  1
  Te  Te91  1  0.71447048  0.10848310  0.44552618  1
  Te  Te92  1  0.76119442  0.04689840  0.76297501  1
  Te  Te93  1  0.75198445  0.43574973  0.07778457  1
  Te  Te94  1  0.74463928  0.39856603  0.40668107  1
  Te  Te95  1  0.76295784  0.44076624  0.80869753  1
  Te  Te96  1  0.74697636  0.75616922  0.06904540  1
  Te  Te97  1  0.76894368  0.75175824  0.41362810  1
  Te  Te98  1  0.72982648  0.73957925  0.73384183  1
  Te  Te99  1  0.09660043  0.23022799  0.25018232  1
  Te  Te100  1  0.06627862  0.26553238  0.60407403  1
  Te  Te101  1  0.07260559  0.23888541  0.92194730  1
  Te  Te102  1  0.08606831  0.58325490  0.27680462  1
  Te  Te103  1  0.08437457  0.60229909  0.61442532  1
  Te  Te104  1  0.04469044  0.59444369  0.88656771  1
  Te  Te105  1  0.06393746  0.89709690  0.23100836  1
  Te  Te106  1  0.09102961  0.88669506  0.58868483  1
  Te  Te107  1  0.04826204  0.86592934  0.97466432  1
  Te  Te108  1  0.40494762  0.23928762  0.25320447  1
  Te  Te109  1  0.42000698  0.26716028  0.59206751  1
  Te  Te110  1  0.41394995  0.25086693  0.90445679  1
  Te  Te111  1  0.42452312  0.60403075  0.26670681  1
  Te  Te112  1  0.39915392  0.54129346  0.57709567  1
  Te  Te113  1  0.46661690  0.58358540  0.93458412  1
  Te  Te114  1  0.44195552  0.88807199  0.29698221  1
  Te  Te115  1  0.44733403  0.90419230  0.58030335  1
  Te  Te116  1  0.42281074  0.91535361  0.92410230  1
  Te  Te117  1  0.75142708  0.25352297  0.23890722  1
  Te  Te118  1  0.74583146  0.24654875  0.63916584  1
  Te  Te119  1  0.73052738  0.25501317  0.91428229  1
  Te  Te120  1  0.75684510  0.58349780  0.27384238  1
  Te  Te121  1  0.74591013  0.56812094  0.61713706  1
  Te  Te122  1  0.74960964  0.60075330  0.87409544  1
  Te  Te123  1  0.75185656  0.93780455  0.27154255  1
  Te  Te124  1  0.72964693  0.89113906  0.55621248  1
  Te  Te125  1  0.80379791  0.87698165  0.92421558  1
  Te  Te126  1  0.27804657  0.25959475  0.08661352  1
  Te  Te127  1  0.23672614  0.26676833  0.44045391  1
  Te  Te128  1  0.26336336  0.25913036  0.72557698  1
  Te  Te129  1  0.26478667  0.56329493  0.07504161  1
  Te  Te130  1  0.26983248  0.62026904  0.41167031  1
  Te  Te131  1  0.25054075  0.59607883  0.75984250  1
  Te  Te132  1  0.23567752  0.91453415  0.06982254  1
  Te  Te133  1  0.25759001  0.92211317  0.42247822  1
  Te  Te134  1  0.26038738  0.92300434  0.77072115  1
  Te  Te135  1  0.58413549  0.27075344  0.07586866  1
  Te  Te136  1  0.59870340  0.26200008  0.42506082  1
  Te  Te137  1  0.58431100  0.24883904  0.73226059  1
  Te  Te138  1  0.57165726  0.59903772  0.08876993  1
  Te  Te139  1  0.58895692  0.60565415  0.44814965  1
  Te  Te140  1  0.57676696  0.63118286  0.72633147  1
  Te  Te141  1  0.59768691  0.93916573  0.08442619  1
  Te  Te142  1  0.57650543  0.86516913  0.37613049  1
  Te  Te143  1  0.59150813  0.90884714  0.74540916  1
  Te  Te144  1  0.89609550  0.26924553  0.08360257  1
  Te  Te145  1  0.91283583  0.24788248  0.41756002  1
  Te  Te146  1  0.87024220  0.24728329  0.73266670  1
  Te  Te147  1  0.90864424  0.57037797  0.05268440  1
  Te  Te148  1  0.92744708  0.59698420  0.43572763  1
  Te  Te149  1  0.86636450  0.48133801  0.70741975  1
  Te  Te150  1  0.91587377  0.90973973  0.04966176  1
  Te  Te151  1  0.93675410  0.92997475  0.42059558  1
  Te  Te152  1  0.92383754  0.89953276  0.75990473  1
  Te  Te153  1  0.26925643  0.06070054  0.24172414  1
  Te  Te154  1  0.25843921  0.08150679  0.57280231  1
  Te  Te155  1  0.24091792  0.09600855  0.90530778  1
  Te  Te156  1  0.23222369  0.42066937  0.26491195  1
  Te  Te157  1  0.24718003  0.42455089  0.54327306  1
  Te  Te158  1  0.22981166  0.41583171  0.91520192  1
  Te  Te159  1  0.25452537  0.75015104  0.24204309  1
  Te  Te160  1  0.26072539  0.76529830  0.59872675  1
  Te  Te161  1  0.26974577  0.73510741  0.93322682  1
  Te  Te162  1  0.58265419  0.07858625  0.26705115  1
  Te  Te163  1  0.59941212  0.07946971  0.54898960  1
  Te  Te164  1  0.58804140  0.07604152  0.91040005  1
  Te  Te165  1  0.57901186  0.40953862  0.25354655  1
  Te  Te166  1  0.60680691  0.41536947  0.60886156  1
  Te  Te167  1  0.56798231  0.46833676  0.90327726  1
  Te  Te168  1  0.57751926  0.74293387  0.22261047  1
  Te  Te169  1  0.55148311  0.72046063  0.60276101  1
  Te  Te170  1  0.56922000  0.75169937  0.91536673  1
  Te  Te171  1  0.91566944  0.08496158  0.24470930  1
  Te  Te172  1  0.88040475  0.06800098  0.59808427  1
  Te  Te173  1  0.91905390  0.07682054  0.89267856  1
  Te  Te174  1  0.92941838  0.41364290  0.24969103  1
  Te  Te175  1  0.90288967  0.42564023  0.56161968  1
  Te  Te176  1  0.91805319  0.39167865  0.88135860  1
  Te  Te177  1  0.90656372  0.74560888  0.20752486  1
  Te  Te178  1  0.91927473  0.71969066  0.62622657  1
  Te  Te179  1  0.87858569  0.75637661  0.86372671  1
