# generated using pymatgen
data_In2Te3
_symmetry_space_group_name_H-M   'P 1'
_cell_length_a   18.76395965
_cell_length_b   18.76507865
_cell_length_c   18.75998901
_cell_angle_alpha   89.91733686
_cell_angle_beta   90.03392264
_cell_angle_gamma   89.96051946
_symmetry_Int_Tables_number   1
_chemical_formula_structural   In2Te3
_chemical_formula_sum   'In72 Te108'
_cell_volume   6605.51719757
_cell_formula_units_Z   36
loop_
 _symmetry_equiv_pos_site_id
 _symmetry_equiv_pos_as_xyz
  1  'x, y, z'
loop_
 _atom_site_type_symbol
 _atom_site_label
 _atom_site_symmetry_multiplicity
 _atom_site_fract_x
 _atom_site_fract_y
 _atom_site_fract_z
 _atom_site_occupancy
  In  In0  1  0.14321506  0.83627925  0.60431206  1
  In  In1  1  0.31447077  0.67236460  0.01495521  1
  In  In2  1  0.84019730  0.84398371  0.65154959  1
  In  In3  1  0.46411196  0.66992311  0.83281117  1
  In  In4  1  0.67953256  0.48196086  0.20880555  1
  In  In5  1  0.82735710  0.32173414  0.83093542  1
  In  In6  1  0.49641513  0.18422099  0.35383078  1
  In  In7  1  0.52969103  0.16202475  0.67780140  1
  In  In8  1  0.85911618  0.66920690  0.83405494  1
  In  In9  1  0.31434015  0.35026689  0.64981451  1
  In  In10  1  0.68059380  0.84038682  0.85158335  1
  In  In11  1  0.33549183  -0.01307489  0.64863064  1
  In  In12  1  0.00938609  0.34301102  0.32570207  1
  In  In13  1  0.47514830  0.51565169  0.02182874  1
  In  In14  1  0.66937954  0.83508096  0.52525627  1
  In  In15  1  0.34580630  0.82431377  0.17013881  1
  In  In16  1  0.33470646  0.81037799  0.83271611  1
  In  In17  1  0.31906621  0.17480267  0.49337680  1
  In  In18  1  0.16403078  0.64142226  0.16724117  1
  In  In19  1  0.84491896  0.65207527  0.49815972  1
  In  In20  1  0.46723901  0.50307188  0.65458368  1
  In  In21  1  0.67889890  0.32176907  0.63660373  1
  In  In22  1  0.49437791  -0.02292141  0.51717791  1
  In  In23  1  0.18177679  0.82952419  0.00667008  1
  In  In24  1  -0.01561094  0.15624833  0.19863274  1
  In  In25  1  0.49746631  0.65159979  0.47584544  1
  In  In26  1  -0.00067361  0.82651922  0.17944616  1
  In  In27  1  0.16273974  0.16286094  0.65755459  1
  In  In28  1  0.00730720  0.50676773  0.48925621  1
  In  In29  1  0.16234717  0.02262337  0.16990659  1
  In  In30  1  0.68145340  0.64939042  0.64428406  1
  In  In31  1  0.01723747  0.54085378  0.83319011  1
  In  In32  1  0.46355938  0.32602232  0.81881625  1
  In  In33  1  0.85132191  0.50370178  0.01251493  1
  In  In34  1  0.00200105  0.00239548  0.02015098  1
  In  In35  1  0.68426486  0.17571668  0.16155842  1
  In  In36  1  0.16858803  0.02476074  0.82917628  1
  In  In37  1  0.30400845  -0.01287913  0.32098211  1
  In  In38  1  0.69781173  -0.00937503  0.01608979  1
  In  In39  1  0.69128493  0.16891908  0.47130021  1
  In  In40  1  0.85055725  0.32899321  0.17249121  1
  In  In41  1  0.16252955  0.51307101  0.65401440  1
  In  In42  1  0.30917459  0.64932431  0.34653766  1
  In  In43  1  0.00385467  0.17192000  0.84901736  1
  In  In44  1  0.48715863  0.33381633  0.48560371  1
  In  In45  1  0.30017171  0.19583732  0.14968725  1
  In  In46  1  0.51079270  -0.00355371  0.16371926  1
  In  In47  1  0.68219352  0.00046102  0.35141730  1
  In  In48  1  0.46629362  0.81769407  0.69823208  1
  In  In49  1  0.67503764  0.65422228  0.32970284  1
  In  In50  1  0.31545073  0.50124473  0.17745784  1
  In  In51  1  0.68847719  0.14654455  0.82130514  1
  In  In52  1  0.01145175  0.34467227  0.66786060  1
  In  In53  1  0.31442447  0.33987051  0.33942278  1
  In  In54  1  0.33545669  0.01432592  -0.03405774  1
  In  In55  1  0.00227405  0.15504526  0.50711933  1
  In  In56  1  0.00136690  0.50614416  0.17797969  1
  In  In57  1  0.33411791  0.18513648  0.85295030  1
  In  In58  1  0.65430841  0.32243196  -0.01305189  1
  In  In59  1  0.00505534  0.65812282  0.65191309  1
  In  In60  1  0.69767248  -0.00171195  0.66903670  1
  In  In61  1  0.66199450  0.48827943  0.82188364  1
  In  In62  1  0.13093804  0.83341305  0.35371978  1
  In  In63  1  0.49437591  -0.01192592  0.84254845  1
  In  In64  1  0.81519584  0.34463000  0.47389582  1
  In  In65  1  0.49491717  0.64939037  0.18572489  1
  In  In66  1  0.86646780  0.85545037  0.35218101  1
  In  In67  1  0.67857566  0.68224547  0.01038046  1
  In  In68  1  0.00040849  0.81285808  0.82491692  1
  In  In69  1  0.00773070  0.33261585  0.00716080  1
  In  In70  1  0.50093237  0.18154522  0.00807671  1
  In  In71  1  0.68024006  0.82118025  0.17359174  1
  Te  Te72  1  0.08414846  0.11605127  0.08087899  1
  Te  Te73  1  0.07187888  0.05563724  0.41966625  1
  Te  Te74  1  0.06199589  0.08007539  0.73615436  1
  Te  Te75  1  0.09182527  0.41264622  0.10055933  1
  Te  Te76  1  0.10471062  0.42703795  0.40605886  1
  Te  Te77  1  0.09678471  0.42698462  0.76294144  1
  Te  Te78  1  0.08404730  0.74203859  0.08260850  1
  Te  Te79  1  0.06909911  0.74596581  0.45578520  1
  Te  Te80  1  0.09921811  0.74933749  0.72817652  1
  Te  Te81  1  0.40698555  0.08676109  0.09175378  1
  Te  Te82  1  0.41462167  0.07302026  0.42218391  1
  Te  Te83  1  0.40995820  0.08368659  0.75246198  1
  Te  Te84  1  0.41788014  0.41493059  0.11237813  1
  Te  Te85  1  0.40117244  0.43273136  0.41913334  1
  Te  Te86  1  0.37533321  0.43898294  0.76052484  1
  Te  Te87  1  0.43565466  0.74215552  0.07858957  1
  Te  Te88  1  0.41533346  0.74245782  0.39197493  1
  Te  Te89  1  0.35464541  0.70051863  0.71669754  1
  Te  Te90  1  0.77872478  0.07793829  0.10312015  1
  Te  Te91  1  0.79451241  0.09882879  0.38542575  1
  Te  Te92  1  0.79473366  0.07416121  0.74971012  1
  Te  Te93  1  0.74785923  0.40870187  0.07614874  1
  Te  Te94  1  0.72129666  0.42886990  0.39230777  1
  Te  Te95  1  0.75919587  0.41588608  0.73004506  1
  Te  Te96  1  0.78062200  0.76177172  0.08077459  1
  Te  Te97  1  0.75311789  0.75963391  0.42158336  1
  Te  Te98  1  0.74966329  0.74756021  0.74217448  1
  Te  Te99  1  0.08828646  0.25302817  0.23782850  1
  Te  Te100  1  0.09420888  0.26527983  0.56720954  1
  Te  Te101  1  0.10059806  0.27687800  0.90113822  1
  Te  Te102  1  0.08349654  0.58373355  0.27658734  1
  Te  Te103  1  0.11626564  0.61927136  0.53886259  1
  Te  Te104  1  0.10743422  0.59906162  0.93067143  1
  Te  Te105  1  0.07144257  0.93904946  0.25699700  1
  Te  Te106  1  0.05537401  0.95034526  0.56111407  1
  Te  Te107  1  0.09541259  0.91923250  0.91684165  1
  Te  Te108  1  0.40761361  0.25025917  0.25075787  1
  Te  Te109  1  0.41854148  0.24343119  0.59721168  1
  Te  Te110  1  0.39824600  0.28419804  0.95494275  1
  Te  Te111  1  0.41832509  0.55910308  0.27865020  1
  Te  Te112  1  0.39194325  0.58309564  0.55609621  1
  Te  Te113  1  0.38154074  0.57170987  0.91579017  1
  Te  Te114  1  0.42743273  0.91415879  0.26277203  1
  Te  Te115  1  0.39425170  0.87160753  0.56385821  1
  Te  Te116  1  0.41946689  0.89147821  0.93395363  1
  Te  Te117  1  0.76600137  0.24681227  0.26214198  1
  Te  Te118  1  0.77943282  0.22510175  0.58095973  1
  Te  Te119  1  0.76004510  0.22734399  0.93152485  1
  Te  Te120  1  0.76623309  0.59850362  0.22789468  1
  Te  Te121  1  0.75264749  0.55325260  0.55972162  1
  Te  Te122  1  0.74968087  0.57939303  0.90878830  1
  Te  Te123  1  0.76645576  0.92054336  0.25165047  1
  Te  Te124  1  0.77393814  0.94555389  0.54740177  1
  Te  Te125  1  0.78047648  0.93100865  0.90821356  1
  Te  Te126  1  0.22528977  0.30745876  0.07692573  1
  Te  Te127  1  0.22076880  0.24956939  0.41500760  1
  Te  Te128  1  0.24489723  0.25482041  0.74757868  1
  Te  Te129  1  0.22598096  0.55410235  0.05564320  1
  Te  Te130  1  0.23128892  0.56656276  0.44258545  1
  Te  Te131  1  0.25479107  0.57984475  0.74723365  1
  Te  Te132  1  0.25997993  0.93107755  0.09235213  1
  Te  Te133  1  0.24112302  0.90404166  0.42449326  1
  Te  Te134  1  0.25066739  0.91798562  0.75628304  1
  Te  Te135  1  0.57433639  0.27080599  0.10771767  1
  Te  Te136  1  0.60933512  0.27781564  0.39994259  1
  Te  Te137  1  0.60053004  0.26815908  0.76817200  1
  Te  Te138  1  0.59891053  0.57725042  0.09313715  1
  Te  Te139  1  0.60214711  0.55909859  0.42034952  1
  Te  Te140  1  0.57074134  0.58668147  0.74677242  1
  Te  Te141  1  0.58938864  0.90103062  0.07499656  1
  Te  Te142  1  0.58283648  0.90296048  0.41679307  1
  Te  Te143  1  0.58358104  0.91935571  0.73482843  1
  Te  Te144  1  0.91662734  0.23292691  0.07598470  1
  Te  Te145  1  0.92406695  0.25429719  0.41586965  1
  Te  Te146  1  0.92041257  0.24405865  0.73756463  1
  Te  Te147  1  0.92987918  0.60125717  0.08702598  1
  Te  Te148  1  0.92567100  0.58642597  0.39157548  1
  Te  Te149  1  0.90723956  0.57048016  0.72755443  1
  Te  Te150  1  0.91207491  0.91040682  0.09321536  1
  Te  Te151  1  0.96237716  0.94482904  0.43145429  1
  Te  Te152  1  0.92590520  0.91505927  0.74772946  1
  Te  Te153  1  0.23744820  0.11271131  0.26743943  1
  Te  Te154  1  0.23609045  0.06604167  0.56374019  1
  Te  Te155  1  0.22544784  0.11469756  0.93948140  1
  Te  Te156  1  0.21772146  0.42764765  0.26377994  1
  Te  Te157  1  0.23748458  0.43102514  0.55147458  1
  Te  Te158  1  0.24122339  0.35202889  0.93505622  1
  Te  Te159  1  0.23454075  0.75701922  0.24855604  1
  Te  Te160  1  0.26729405  0.75984821  0.58880150  1
  Te  Te161  1  0.22032172  0.72474823  0.90113163  1
  Te  Te162  1  0.58472525  0.08920875  0.26169802  1
  Te  Te163  1  0.59660147  0.08305819  0.56339753  1
  Te  Te164  1  0.58359265  0.08320461  0.92531168  1
  Te  Te165  1  0.58971631  0.40656413  0.29565454  1
  Te  Te166  1  0.57387897  0.41743094  0.58167068  1
  Te  Te167  1  0.56173353  0.42591484  0.91944504  1
  Te  Te168  1  0.57674201  0.75264961  0.26282468  1
  Te  Te169  1  0.56894587  0.74299252  0.59519213  1
  Te  Te170  1  0.57981187  0.74275165  0.90909867  1
  Te  Te171  1  0.88714756  0.06644159  0.26263759  1
  Te  Te172  1  0.92460481  0.04065785  0.56958277  1
  Te  Te173  1  0.91775138  0.07384626  0.91868680  1
  Te  Te174  1  0.89960138  0.43420897  0.26927789  1
  Te  Te175  1  0.91664488  0.41470579  0.56983973  1
  Te  Te176  1  0.92161788  0.41997995  0.90343061  1
  Te  Te177  1  0.92963436  0.74198714  0.28124173  1
  Te  Te178  1  0.93386647  0.76232739  0.56120285  1
  Te  Te179  1  0.92118125  0.75425703  0.93581210  1
