# generated using pymatgen
data_In2Te3
_symmetry_space_group_name_H-M   'P 1'
_cell_length_a   19.00997701
_cell_length_b   19.01240951
_cell_length_c   18.98068283
_cell_angle_alpha   90.08740273
_cell_angle_beta   89.84294610
_cell_angle_gamma   89.99229455
_symmetry_Int_Tables_number   1
_chemical_formula_structural   In2Te3
_chemical_formula_sum   'In72 Te108'
_cell_volume   6860.06834776
_cell_formula_units_Z   36
loop_
 _symmetry_equiv_pos_site_id
 _symmetry_equiv_pos_as_xyz
  1  'x, y, z'
loop_
 _atom_site_type_symbol
 _atom_site_label
 _atom_site_symmetry_multiplicity
 _atom_site_fract_x
 _atom_site_fract_y
 _atom_site_fract_z
 _atom_site_occupancy
  In  In0  1  0.68307368  0.17499243  0.49458115  1
  In  In1  1  0.15694638  0.01294201  0.52471205  1
  In  In2  1  0.01052900  0.51179802  0.50858458  1
  In  In3  1  0.82653882  -0.02080129  0.16153753  1
  In  In4  1  -0.03600671  0.80083809  0.48942423  1
  In  In5  1  0.68417314  0.49527721  0.50477978  1
  In  In6  1  0.00008975  0.84053386  0.84894277  1
  In  In7  1  0.33902037  -0.01441414  0.64264869  1
  In  In8  1  0.31998169  0.35335392  0.68437265  1
  In  In9  1  0.12275628  0.33829507  0.85618438  1
  In  In10  1  0.83258513  0.49536186  0.70246313  1
  In  In11  1  0.16086450  -0.01332491  0.15099908  1
  In  In12  1  -0.01248360  0.18362947  0.17126924  1
  In  In13  1  0.85393767  0.36555463  0.86379845  1
  In  In14  1  0.34238521  0.65430170  0.31695044  1
  In  In15  1  0.14744988  0.84051350  -0.00608161  1
  In  In16  1  0.54742013  0.77389015  0.04745669  1
  In  In17  1  0.35366273  0.83562295  0.48579957  1
  In  In18  1  0.17622321  0.17744503  0.30530118  1
  In  In19  1  0.31718050  0.18739721  0.14601271  1
  In  In20  1  0.18264161  0.85366776  0.65372495  1
  In  In21  1  0.16224410  0.65596085  0.81901260  1
  In  In22  1  0.33260398  0.52182574  0.87936083  1
  In  In23  1  0.17535661  0.37208196  0.14594807  1
  In  In24  1  0.13863548  0.33716033  0.48342756  1
  In  In25  1  0.50285266  -0.02588450  0.15713912  1
  In  In26  1  0.83591907  0.15722364  0.34391692  1
  In  In27  1  0.67585201  0.02728536  0.01076409  1
  In  In28  1  -0.00072337  -0.02369988  0.36251778  1
  In  In29  1  0.81595823  0.65375823  0.50945854  1
  In  In30  1  0.51513460  0.33883704  0.85181877  1
  In  In31  1  0.47444548  0.57496048  0.73253942  1
  In  In32  1  -0.00403876  0.15199368  0.52303934  1
  In  In33  1  0.51366613  -0.02521206  0.79568718  1
  In  In34  1  -0.01377089  0.03309470  0.00443689  1
  In  In35  1  0.64075426  0.67185936  0.30542025  1
  In  In36  1  0.50389997  0.16751039  -0.00768404  1
  In  In37  1  0.47326337  0.17115077  0.66820832  1
  In  In38  1  0.50548447  0.63894685  0.49527569  1
  In  In39  1  -0.02293711  0.36144407  0.33549589  1
  In  In40  1  -0.04733021  0.66105689  0.03022996  1
  In  In41  1  0.64653092  0.33038928  -0.00049428  1
  In  In42  1  0.17779623  0.68666109  0.50800174  1
  In  In43  1  0.53204745  0.79310490  0.70249661  1
  In  In44  1  0.66713877  -0.01377885  0.30302187  1
  In  In45  1  0.18352657  0.02198182  0.79925543  1
  In  In46  1  0.66796569  0.33464004  0.32419191  1
  In  In47  1  0.34958541  0.50353640  0.11320875  1
  In  In48  1  0.32974236  0.48102945  0.49173782  1
  In  In49  1  0.69144369  0.17353431  0.83484009  1
  In  In50  1  0.31445147  0.33319710  0.30370570  1
  In  In51  1  0.32332410  -0.00621325  -0.02660254  1
  In  In52  1  0.69656776  0.32536923  0.66529445  1
  In  In53  1  0.85377210  0.34466357  0.16234069  1
  In  In54  1  0.83195863  0.01199427  0.85382702  1
  In  In55  1  0.65441153  0.83562168  0.49692738  1
  In  In56  1  0.33934380  0.19429235  0.85152617  1
  In  In57  1  0.15163977  0.52564987  -0.00692327  1
  In  In58  1  0.69828861  0.66596307  -0.00853557  1
  In  In59  1  0.38007110  -0.00441703  0.31525462  1
  In  In60  1  0.52937512  0.32237196  0.50753235  1
  In  In61  1  0.64796929  0.51488391  0.15538479  1
  In  In62  1  0.67365218  -0.00230497  0.65449721  1
  In  In63  1  -0.01700185  0.65600060  0.68832749  1
  In  In64  1  0.50713924  -0.01120587  0.48362993  1
  In  In65  1  0.19300768  0.81782282  0.32981826  1
  In  In66  1  -0.01408059  -0.01475024  0.68212502  1
  In  In67  1  0.47987766  0.49107506  0.29696838  1
  In  In68  1  -0.00281169  0.35785661  0.68871860  1
  In  In69  1  0.81044926  0.51461040  0.32433482  1
  In  In70  1  0.37902719  0.79834946  0.88013914  1
  In  In71  1  -0.02857096  0.79868869  0.18761013  1
  Te  Te72  1  0.09026046  0.10404725  0.08881084  1
  Te  Te73  1  0.09338535  0.09591226  0.40690940  1
  Te  Te74  1  0.07481116  0.09002157  0.73182321  1
  Te  Te75  1  0.06226869  0.43913008  0.07743363  1
  Te  Te76  1  0.08787817  0.44802662  0.39390065  1
  Te  Te77  1  0.08046390  0.44673911  0.76830759  1
  Te  Te78  1  0.07717786  0.74598915  0.08754599  1
  Te  Te79  1  0.08095569  0.74590380  0.41010862  1
  Te  Te80  1  0.08353117  0.77117022  0.74020230  1
  Te  Te81  1  0.40600338  0.07977846  0.07026879  1
  Te  Te82  1  0.40401648  0.07788070  0.43247714  1
  Te  Te83  1  0.40039680  0.07957232  0.76340903  1
  Te  Te84  1  0.43129032  0.39375389  0.06536517  1
  Te  Te85  1  0.43439678  0.40346706  0.41287670  1
  Te  Te86  1  0.42715823  0.42679976  0.76456555  1
  Te  Te87  1  0.40335140  0.73894472  0.01796518  1
  Te  Te88  1  0.43576706  0.73722026  0.40417328  1
  Te  Te89  1  0.41457307  0.71676115  0.75677593  1
  Te  Te90  1  0.77832523  0.09516604  0.08838303  1
  Te  Te91  1  0.74326026  0.06238426  0.41537296  1
  Te  Te92  1  0.76484573  0.08812350  0.73577503  1
  Te  Te93  1  0.74124226  0.41417739  0.08801448  1
  Te  Te94  1  0.76573734  0.40230346  0.41760491  1
  Te  Te95  1  0.72958584  0.41481420  0.78054818  1
  Te  Te96  1  0.81751184  0.73050422  0.06201893  1
  Te  Te97  1  0.72884101  0.73153572  0.41360906  1
  Te  Te98  1  0.72346177  0.69833262  0.83748911  1
  Te  Te99  1  0.08063646  0.28125614  0.25027071  1
  Te  Te100  1  0.07470752  0.25771552  0.59422806  1
  Te  Te101  1  0.02575194  0.24692506  0.91966077  1
  Te  Te102  1  0.02950913  0.66227175  0.22829808  1
  Te  Te103  1  0.09304878  0.59941187  0.59924931  1
  Te  Te104  1  0.05824966  0.61881508  0.91985494  1
  Te  Te105  1  0.08727300  0.90695645  0.25659726  1
  Te  Te106  1  0.06434747  0.89884716  0.56823861  1
  Te  Te107  1  0.08834296  0.95093185  0.90621137  1
  Te  Te108  1  0.41050369  0.24442116  0.24108949  1
  Te  Te109  1  0.40560335  0.27284460  0.58260196  1
  Te  Te110  1  0.40700754  0.28643395  0.95448631  1
  Te  Te111  1  0.43360165  0.59993268  0.20803220  1
  Te  Te112  1  0.41698165  0.56053081  0.58718955  1
  Te  Te113  1  0.43287895  0.60150111  0.95148727  1
  Te  Te114  1  0.40872754  0.88544286  0.22681000  1
  Te  Te115  1  0.45129125  0.89335532  0.59642706  1
  Te  Te116  1  0.45127243  0.92509440  0.92392624  1
  Te  Te117  1  0.76601467  0.24861085  0.24636728  1
  Te  Te118  1  0.77946354  0.24654863  0.57569093  1
  Te  Te119  1  0.76313728  0.25774940  0.93278194  1
  Te  Te120  1  0.75266326  0.60623559  0.21802326  1
  Te  Te121  1  0.73884526  0.58041102  0.61760394  1
  Te  Te122  1  0.77705435  0.56244500  0.91100850  1
  Te  Te123  1  0.76333484  0.88597866  0.25369905  1
  Te  Te124  1  0.75541924  0.91108866  0.57018049  1
  Te  Te125  1  0.74810949  0.92459030  0.93542793  1
  Te  Te126  1  0.21964002  0.25855911  0.06599657  1
  Te  Te127  1  0.24728197  0.25540044  0.41485387  1
  Te  Te128  1  0.23480074  0.26267488  0.76792795  1
  Te  Te129  1  0.23996747  0.59688100  0.08711201  1
  Te  Te130  1  0.25114023  0.58759230  0.41884187  1
  Te  Te131  1  0.25387706  0.55890102  0.76028010  1
  Te  Te132  1  0.26033670  0.90111050  0.07608832  1
  Te  Te133  1  0.24242893  0.92068692  0.43176411  1
  Te  Te134  1  0.27493917  0.90675409  0.76175041  1
  Te  Te135  1  0.60263030  0.21925980  0.08571281  1
  Te  Te136  1  0.58247067  0.23182665  0.39820019  1
  Te  Te137  1  0.58053942  0.24555110  0.74490691  1
  Te  Te138  1  0.57477734  0.57890720  0.04092392  1
  Te  Te139  1  0.58871279  0.55270623  0.39714637  1
  Te  Te140  1  0.59916529  0.60985269  0.79953888  1
  Te  Te141  1  0.61570750  0.90653069  0.08393154  1
  Te  Te142  1  0.57280175  0.89696089  0.38535732  1
  Te  Te143  1  0.63387930  0.89116316  0.75717177  1
  Te  Te144  1  0.93554104  0.26881928  0.06153415  1
  Te  Te145  1  0.92860931  0.24808320  0.42176157  1
  Te  Te146  1  0.90549862  0.27098012  0.76344788  1
  Te  Te147  1  0.86394406  0.53475724  0.03121975  1
  Te  Te148  1  0.91366025  0.58459846  0.41817018  1
  Te  Te149  1  0.90501272  0.58761558  0.79321385  1
  Te  Te150  1  0.94247721  0.91711104  0.08809490  1
  Te  Te151  1  0.89060598  0.88344904  0.39236105  1
  Te  Te152  1  0.89046543  0.90158313  0.76383913  1
  Te  Te153  1  0.25641607  0.06325761  0.24460348  1
  Te  Te154  1  0.25490624  0.09436015  0.59535392  1
  Te  Te155  1  0.23642908  0.10453302  0.91920661  1
  Te  Te156  1  0.25955607  0.45386685  0.23870816  1
  Te  Te157  1  0.22725648  0.41621854  0.58174981  1
  Te  Te158  1  0.23592357  0.41779832  0.92746365  1
  Te  Te159  1  0.25151136  0.72943855  0.22905274  1
  Te  Te160  1  0.28174229  0.75366613  0.59328413  1
  Te  Te161  1  0.23657793  0.74828888  0.91252795  1
  Te  Te162  1  0.57251619  0.07522500  0.23635107  1
  Te  Te163  1  0.57191243  0.09122411  0.58460870  1
  Te  Te164  1  0.57958428  0.08520756  0.88651918  1
  Te  Te165  1  0.57474563  0.39877463  0.22386631  1
  Te  Te166  1  0.59352455  0.42058329  0.60105046  1
  Te  Te167  1  0.55866478  0.44264785  0.95083710  1
  Te  Te168  1  0.58872003  0.74716141  0.19299977  1
  Te  Te169  1  0.59461016  0.72367034  0.58406961  1
  Te  Te170  1  0.58975927  0.74184235  0.90211158  1
  Te  Te171  1  0.93112447  0.07259514  0.25877894  1
  Te  Te172  1  0.90965696  0.04617664  0.57140331  1
  Te  Te173  1  0.93197222  0.11662485  0.89458949  1
  Te  Te174  1  0.92157900  0.45952911  0.23496780  1
  Te  Te175  1  0.91113840  0.43115395  0.58622387  1
  Te  Te176  1  0.95009999  0.43035006  0.95780624  1
  Te  Te177  1  0.89384684  0.69965207  0.26680193  1
  Te  Te178  1  0.88878974  0.74335543  0.60901548  1
  Te  Te179  1  0.90170592  0.77083060  0.93608855  1
