# generated using pymatgen
data_In2Te3
_symmetry_space_group_name_H-M   'P 1'
_cell_length_a   18.89225761
_cell_length_b   18.91235140
_cell_length_c   18.88424757
_cell_angle_alpha   90.01427006
_cell_angle_beta   90.04808177
_cell_angle_gamma   89.85000748
_symmetry_Int_Tables_number   1
_chemical_formula_structural   In2Te3
_chemical_formula_sum   'In72 Te108'
_cell_volume   6747.25958105
_cell_formula_units_Z   36
loop_
 _symmetry_equiv_pos_site_id
 _symmetry_equiv_pos_as_xyz
  1  'x, y, z'
loop_
 _atom_site_type_symbol
 _atom_site_label
 _atom_site_symmetry_multiplicity
 _atom_site_fract_x
 _atom_site_fract_y
 _atom_site_fract_z
 _atom_site_occupancy
  In  In0  1  0.16503254  0.00865488  0.52676941  1
  In  In1  1  -0.02828547  -0.00473464  0.31916831  1
  In  In2  1  0.00330652  0.84795544  0.14242021  1
  In  In3  1  0.34158846  0.33381439  0.67571465  1
  In  In4  1  0.00178556  0.67246674  0.34922451  1
  In  In5  1  0.16609336  0.83149675  -0.00039803  1
  In  In6  1  0.80686679  -0.01218317  0.87759781  1
  In  In7  1  0.00679580  0.34680262  0.67270984  1
  In  In8  1  0.16402087  0.82934269  0.68549574  1
  In  In9  1  0.50973766  0.69231386  0.51775595  1
  In  In10  1  0.81666043  0.14509417  0.69544541  1
  In  In11  1  0.52276575  0.12188718  0.68128862  1
  In  In12  1  -0.00073673  0.51277475  0.48738359  1
  In  In13  1  0.48858701  0.30619834  0.82769647  1
  In  In14  1  0.16509193  0.32773890  0.14871853  1
  In  In15  1  0.83622989  0.32590505  0.49061523  1
  In  In16  1  0.82836035  0.33697144  0.81931652  1
  In  In17  1  0.50890976  0.52102361  0.30522780  1
  In  In18  1  0.34116667  0.65630048  0.68689755  1
  In  In19  1  0.34393779  0.84804286  0.82819946  1
  In  In20  1  0.29831431  0.30955627  0.31852737  1
  In  In21  1  0.66319398  0.31748666  -0.00004022  1
  In  In22  1  0.15017660  0.50803465  0.69594253  1
  In  In23  1  0.69953918  0.68852607  0.32186282  1
  In  In24  1  0.36609018  -0.00196685  0.00095552  1
  In  In25  1  0.31762295  0.49442458  0.49153297  1
  In  In26  1  0.68377989  0.50544720  0.83507024  1
  In  In27  1  0.31067325  0.80905629  0.49475269  1
  In  In28  1  -0.00921811  0.81962665  0.84760420  1
  In  In29  1  0.34255568  0.64979427  0.33900825  1
  In  In30  1  0.15939908  0.19551339  0.34674518  1
  In  In31  1  0.16596139  0.15210991  0.68472984  1
  In  In32  1  0.00025461  0.00801894  -0.00606035  1
  In  In33  1  0.82747493  0.81904739  0.35333173  1
  In  In34  1  0.47791361  0.46550366  0.67876401  1
  In  In35  1  0.87218130  0.79175627  0.67397690  1
  In  In36  1  0.01955591  0.35072923  0.30413292  1
  In  In37  1  0.15823688  0.67505224  0.15620637  1
  In  In38  1  0.65238159  -0.00439708  0.31957531  1
  In  In39  1  0.49568605  0.50296414  0.00300870  1
  In  In40  1  0.66555878  0.50657951  0.52104450  1
  In  In41  1  0.13684626  0.81160979  0.34653821  1
  In  In42  1  0.31187166  0.17870774  0.85966899  1
  In  In43  1  0.67486618  0.67578363  0.68583267  1
  In  In44  1  0.83893709  0.16147108  0.27989263  1
  In  In45  1  0.65447988  0.14216471  0.85210608  1
  In  In46  1  0.48848740  0.34209389  0.14630544  1
  In  In47  1  0.36679060  0.83157648  0.18007167  1
  In  In48  1  0.16497730  0.49574635  0.33449999  1
  In  In49  1  0.32583582  0.17613526  0.14566216  1
  In  In50  1  0.52687000  0.68288904  0.84763924  1
  In  In51  1  0.80897455  -0.02509420  0.50469320  1
  In  In52  1  0.85776269  0.35144935  0.14221267  1
  In  In53  1  0.37382972  0.00634553  0.69105173  1
  In  In54  1  0.67151136  0.83107475  0.15577449  1
  In  In55  1  0.00780407  0.01784778  0.69747284  1
  In  In56  1  0.45943920  0.33762870  0.50554241  1
  In  In57  1  0.33136349  0.68248345  0.01785456  1
  In  In58  1  0.34240907  -0.00656255  0.32428239  1
  In  In59  1  0.52906125  0.66746501  0.15174389  1
  In  In60  1  0.49368246  -0.01850781  0.48631834  1
  In  In61  1  0.14119747  0.50161573  -0.04031540  1
  In  In62  1  0.65749879  0.33841807  0.32309511  1
  In  In63  1  0.85662380  0.53713833  0.70014919  1
  In  In64  1  0.85012263  0.51953316  -0.01406305  1
  In  In65  1  0.51488654  0.13689260  0.32424734  1
  In  In66  1  0.81347810  -0.00865251  0.11534811  1
  In  In67  1  -0.00731125  0.17072413  0.50505931  1
  In  In68  1  0.83085908  0.65899303  0.15950482  1
  In  In69  1  0.67715295  0.16869590  0.48591330  1
  In  In70  1  0.16440641  0.02427195  0.13933365  1
  In  In71  1  0.00447921  0.31717236  -0.00889749  1
  Te  Te72  1  0.10393832  0.11417166  0.03600622  1
  Te  Te73  1  0.07302068  0.07550863  0.41175166  1
  Te  Te74  1  0.07661772  0.10660104  0.79521012  1
  Te  Te75  1  0.07321641  0.42401832  0.07649588  1
  Te  Te76  1  0.08943281  0.40286763  0.42796877  1
  Te  Te77  1  0.07641742  0.41418471  0.78379543  1
  Te  Te78  1  0.06094693  0.73612276  0.05503713  1
  Te  Te79  1  0.06157883  0.75351485  0.46093593  1
  Te  Te80  1  0.08879306  0.73325126  0.77244867  1
  Te  Te81  1  0.42380577  0.06962135  0.11671700  1
  Te  Te82  1  0.40779034  0.09132488  0.42118618  1
  Te  Te83  1  0.42846716  0.08708375  0.80999597  1
  Te  Te84  1  0.39269319  0.42224016  0.06910958  1
  Te  Te85  1  0.41498291  0.43078502  0.39185456  1
  Te  Te86  1  0.38784511  0.42432230  0.79787803  1
  Te  Te87  1  0.44838127  0.76869999  0.06796121  1
  Te  Te88  1  0.42440640  0.75794099  0.40690897  1
  Te  Te89  1  0.43526404  0.75864191  0.74405597  1
  Te  Te90  1  0.70862734  0.08858388  0.07840230  1
  Te  Te91  1  0.77121611  0.08587802  0.39770487  1
  Te  Te92  1  0.72439756  0.04430555  0.75633095  1
  Te  Te93  1  0.75199896  0.42397714  0.05941127  1
  Te  Te94  1  0.74287640  0.42161917  0.41742361  1
  Te  Te95  1  0.75135306  0.42668896  0.72445111  1
  Te  Te96  1  0.74901961  0.74196098  0.06843524  1
  Te  Te97  1  0.74812205  0.74149259  0.44979315  1
  Te  Te98  1  0.76294022  0.75845354  0.77682472  1
  Te  Te99  1  0.07336273  0.23363661  0.22574785  1
  Te  Te100  1  0.08947445  0.24815378  0.58922525  1
  Te  Te101  1  0.09276029  0.22117412  0.92151532  1
  Te  Te102  1  0.07754025  0.58466875  0.24804764  1
  Te  Te103  1  0.05885132  0.58821034  0.60413995  1
  Te  Te104  1  0.07381421  0.61202571  0.88451471  1
  Te  Te105  1  0.09181274  0.92432867  0.24287740  1
  Te  Te106  1  0.07063690  0.91721273  0.60065232  1
  Te  Te107  1  0.08956705  0.92176865  0.90544511  1
  Te  Te108  1  0.42266946  0.24700213  0.25685014  1
  Te  Te109  1  0.43425843  0.23192763  0.61070303  1
  Te  Te110  1  0.41668059  0.24796647  0.94322214  1
  Te  Te111  1  0.40889400  0.59211067  0.21537334  1
  Te  Te112  1  0.41934300  0.57349127  0.57573755  1
  Te  Te113  1  0.41840501  0.60419535  0.91859843  1
  Te  Te114  1  0.45048290  0.93795131  0.23976596  1
  Te  Te115  1  0.39721175  0.90469408  0.57442112  1
  Te  Te116  1  0.44026822  0.89016604  0.93262861  1
  Te  Te117  1  0.74912199  0.26907861  0.22385339  1
  Te  Te118  1  0.75685189  0.24399421  0.59100988  1
  Te  Te119  1  0.75846810  0.23872490  0.91134097  1
  Te  Te120  1  0.73995730  0.57554078  0.24024975  1
  Te  Te121  1  0.76579269  0.59759882  0.59086065  1
  Te  Te122  1  0.74628216  0.60695677  0.92096674  1
  Te  Te123  1  0.77054248  0.91754051  0.24836619  1
  Te  Te124  1  0.76941333  0.87680401  0.60604453  1
  Te  Te125  1  0.69430809  0.90817650  0.94057555  1
  Te  Te126  1  0.26094757  0.26946311  0.05186143  1
  Te  Te127  1  0.25241773  0.25315328  0.44522313  1
  Te  Te128  1  0.23576117  0.26448396  0.76066742  1
  Te  Te129  1  0.23078928  0.57905638  0.06409426  1
  Te  Te130  1  0.22809701  0.59938192  0.42650132  1
  Te  Te131  1  0.25797146  0.57414392  0.77895173  1
  Te  Te132  1  0.25409916  0.90601326  0.10001135  1
  Te  Te133  1  0.23812300  0.92051876  0.41658407  1
  Te  Te134  1  0.24748128  0.93700719  0.75060158  1
  Te  Te135  1  0.54977486  0.24067910  0.05574341  1
  Te  Te136  1  0.56991885  0.25717728  0.41996279  1
  Te  Te137  1  0.59787878  0.23890879  0.74795910  1
  Te  Te138  1  0.60497074  0.58342742  0.05896978  1
  Te  Te139  1  0.57717217  0.58666613  0.42422501  1
  Te  Te140  1  0.57032293  0.57057435  0.74077772  1
  Te  Te141  1  0.60620566  0.93780285  0.07400162  1
  Te  Te142  1  0.60401635  0.90561427  0.42358672  1
  Te  Te143  1  0.51944467  0.97946897  0.73746830  1
  Te  Te144  1  0.90637508  0.23551503  0.06584647  1
  Te  Te145  1  0.91902002  0.24263914  0.39156628  1
  Te  Te146  1  0.92238858  0.24053253  0.74730326  1
  Te  Te147  1  0.93654813  0.59173519  0.08086032  1
  Te  Te148  1  0.90216571  0.57717499  0.39880280  1
  Te  Te149  1  0.94002220  0.60629684  0.80329483  1
  Te  Te150  1  0.90196668  0.89361449  0.04002458  1
  Te  Te151  1  0.92576119  0.90693877  0.43294124  1
  Te  Te152  1  0.91010874  0.92746648  0.76945960  1
  Te  Te153  1  0.24326870  0.09371015  0.25569959  1
  Te  Te154  1  0.27036679  0.08716283  0.59675204  1
  Te  Te155  1  0.25484325  0.06043451  0.92817496  1
  Te  Te156  1  0.25257900  0.42471178  0.23352775  1
  Te  Te157  1  0.24268871  0.42462543  0.60113813  1
  Te  Te158  1  0.25189104  0.44372477  0.87945329  1
  Te  Te159  1  0.25114322  0.75029914  0.25472920  1
  Te  Te160  1  0.23747404  0.72637300  0.59873646  1
  Te  Te161  1  0.25425473  0.75157884  0.90615175  1
  Te  Te162  1  0.62123431  0.10616612  0.22510499  1
  Te  Te163  1  0.60409627  0.06212341  0.56018845  1
  Te  Te164  1  0.60552095  0.05415938  0.96467308  1
  Te  Te165  1  0.59197833  0.42817564  0.21865170  1
  Te  Te166  1  0.57739940  0.39879326  0.58348941  1
  Te  Te167  1  0.58327622  0.41053159  0.89927780  1
  Te  Te168  1  0.58252519  0.76100257  0.25905121  1
  Te  Te169  1  0.58525351  0.77112532  0.61488748  1
  Te  Te170  1  0.62487402  0.77207414  0.90933978  1
  Te  Te171  1  0.92531590  0.06904346  0.19554461  1
  Te  Te172  1  0.90536574  0.07487964  0.58466237  1
  Te  Te173  1  0.89571665  0.09258412  0.93204105  1
  Te  Te174  1  0.90907707  0.43151175  0.25545759  1
  Te  Te175  1  0.90871595  0.42317708  0.58448597  1
  Te  Te176  1  0.92540964  0.41643673  0.90261981  1
  Te  Te177  1  0.92786557  0.76572188  0.24508089  1
  Te  Te178  1  0.95946851  0.70940594  0.58846582  1
  Te  Te179  1  0.87595318  0.72821225  0.88270576  1
