# generated using pymatgen
data_In2Te3
_symmetry_space_group_name_H-M   'P 1'
_cell_length_a   18.76613598
_cell_length_b   18.77009734
_cell_length_c   18.77107120
_cell_angle_alpha   90.08060892
_cell_angle_beta   89.98995388
_cell_angle_gamma   90.06389704
_symmetry_Int_Tables_number   1
_chemical_formula_structural   In2Te3
_chemical_formula_sum   'In72 Te108'
_cell_volume   6611.95264256
_cell_formula_units_Z   36
loop_
 _symmetry_equiv_pos_site_id
 _symmetry_equiv_pos_as_xyz
  1  'x, y, z'
loop_
 _atom_site_type_symbol
 _atom_site_label
 _atom_site_symmetry_multiplicity
 _atom_site_fract_x
 _atom_site_fract_y
 _atom_site_fract_z
 _atom_site_occupancy
  In  In0  1  0.33784491  0.65993935  0.35263296  1
  In  In1  1  0.34402427  0.65370373  -0.00698648  1
  In  In2  1  0.63392810  0.31125427  -0.01442485  1
  In  In3  1  0.66946018  -0.00426000  0.33065223  1
  In  In4  1  0.80898251  0.32919286  0.19173654  1
  In  In5  1  0.33366740  0.83630927  0.17255582  1
  In  In6  1  0.84305892  0.83795857  0.66276468  1
  In  In7  1  0.03028978  0.67759026  0.33476960  1
  In  In8  1  0.00469340  0.36448014  0.67808630  1
  In  In9  1  0.63508638  0.30454685  0.68690156  1
  In  In10  1  0.82292837  0.49920405  0.34317122  1
  In  In11  1  0.21185483  0.34205272  0.18339111  1
  In  In12  1  0.63911149  0.80450200  0.51319794  1
  In  In13  1  -0.01781052  0.88800815  0.15472741  1
  In  In14  1  0.18176447  0.17110957  0.66952109  1
  In  In15  1  0.49694898  0.49489531  -0.02534494  1
  In  In16  1  0.63261739  0.03367179  0.67345609  1
  In  In17  1  0.02090220  0.48865901  0.52597436  1
  In  In18  1  0.17060216  0.50176625  0.68178401  1
  In  In19  1  -0.00465317  -0.01740913  0.67019612  1
  In  In20  1  0.49708077  0.84591141  -0.01617138  1
  In  In21  1  0.36942977  0.83009797  0.82276393  1
  In  In22  1  0.01072638  0.01085609  0.32356150  1
  In  In23  1  0.03393459  0.48884510  0.15609643  1
  In  In24  1  0.34817107  -0.01994911  0.66540482  1
  In  In25  1  0.35760110  0.49562794  0.49547650  1
  In  In26  1  0.33788428  0.18138537  0.49939256  1
  In  In27  1  0.18841654  0.66471820  0.15099577  1
  In  In28  1  0.65424237  0.48821778  0.14210682  1
  In  In29  1  0.46829453  0.03971576  0.13804551  1
  In  In30  1  0.82617997  0.69230852  0.14501370  1
  In  In31  1  0.31511113  0.00977928  0.33049571  1
  In  In32  1  0.35254708  0.16339227  0.83913829  1
  In  In33  1  0.17943819  0.66896087  0.82923633  1
  In  In34  1  0.19454869  0.00732656  0.83796873  1
  In  In35  1  0.67269805  0.68207594  -0.01675857  1
  In  In36  1  0.48547617  0.50243642  0.66931110  1
  In  In37  1  -0.01242323  0.16507972  0.86123629  1
  In  In38  1  0.16723403  0.00123328  0.16604845  1
  In  In39  1  0.64391388  0.66868076  0.31701603  1
  In  In40  1  0.33216820  0.32809450  -0.01764713  1
  In  In41  1  0.51503062  0.82902402  0.34052102  1
  In  In42  1  0.00584052  0.31846313  0.34409138  1
  In  In43  1  0.83433285  0.86172465  0.31946942  1
  In  In44  1  0.82917740  0.66935304  0.50370788  1
  In  In45  1  0.64726764  0.02981826  -0.02528922  1
  In  In46  1  0.02080787  0.82231800  0.49182408  1
  In  In47  1  0.36954939  0.32412332  0.66603982  1
  In  In48  1  0.14271189  -0.01495129  0.49260995  1
  In  In49  1  0.02076599  0.51661743  0.83308538  1
  In  In50  1  0.01492433  0.67976419  -0.02833296  1
  In  In51  1  0.83434174  0.51987617  -0.00977900  1
  In  In52  1  0.46154862  0.48264556  0.34276732  1
  In  In53  1  0.64628966  0.31194673  0.33575374  1
  In  In54  1  0.80506462  0.00859458  0.50201919  1
  In  In55  1  0.66661015  0.48225716  0.51759272  1
  In  In56  1  0.00392817  0.83096893  0.83315744  1
  In  In57  1  0.48511406  0.16492720  0.34522252  1
  In  In58  1  0.82070447  0.34102433  0.82925088  1
  In  In59  1  0.84108841  0.66000845  0.82422193  1
  In  In60  1  0.48581212  0.29894957  0.15299198  1
  In  In61  1  0.66185024  0.85590758  0.83404924  1
  In  In62  1  0.82347856  0.16612154  0.00436989  1
  In  In63  1  -0.00071956  0.15612611  0.48148420  1
  In  In64  1  0.00120118  0.14869741  0.16500719  1
  In  In65  1  0.79987634  0.16428995  0.68389304  1
  In  In66  1  0.17599153  0.32396844  0.48890391  1
  In  In67  1  0.50861670  0.66225723  0.52682754  1
  In  In68  1  0.16362650  0.84313673  0.02098493  1
  In  In69  1  0.02273191  0.31063288  -0.00865615  1
  In  In70  1  0.50232773  0.66629974  0.20890130  1
  In  In71  1  0.64586767  0.66543658  0.64196186  1
  Te  Te72  1  0.08622753  0.07766732  0.06819912  1
  Te  Te73  1  0.11144735  0.10078783  0.39477895  1
  Te  Te74  1  0.08445292  0.08084933  0.74959324  1
  Te  Te75  1  0.12186556  0.40478260  0.06343361  1
  Te  Te76  1  0.09510175  0.42448330  0.40717878  1
  Te  Te77  1  0.10924780  0.39936238  0.78456686  1
  Te  Te78  1  0.06550184  0.75350765  0.09725527  1
  Te  Te79  1  0.12949131  0.73097442  0.43838870  1
  Te  Te80  1  0.07557643  0.73462032  0.74700818  1
  Te  Te81  1  0.38023344  0.12811786  0.06062212  1
  Te  Te82  1  0.41196382  0.06222215  0.43565151  1
  Te  Te83  1  0.42915993  0.09158805  0.72974581  1
  Te  Te84  1  0.41880408  0.41333012  0.07781082  1
  Te  Te85  1  0.41564760  0.37458680  0.43263186  1
  Te  Te86  1  0.42171018  0.41392675  0.77164368  1
  Te  Te87  1  0.42508419  0.74545130  0.09042606  1
  Te  Te88  1  0.42309654  0.75437912  0.43647517  1
  Te  Te89  1  0.40737060  0.75404078  0.70089707  1
  Te  Te90  1  0.72415061  0.09294389  0.08814764  1
  Te  Te91  1  0.74013461  0.10153973  0.40981092  1
  Te  Te92  1  0.74545235  0.05850913  0.76863001  1
  Te  Te93  1  0.75619043  0.40712757  0.06298883  1
  Te  Te94  1  0.74817363  0.39438584  0.42191642  1
  Te  Te95  1  0.73136879  0.40899430  0.73519101  1
  Te  Te96  1  0.73524012  0.78277314  0.07302331  1
  Te  Te97  1  0.75043240  0.75913759  0.40807377  1
  Te  Te98  1  0.74443178  0.75025068  0.74296113  1
  Te  Te99  1  0.08642503  0.25902917  0.23059396  1
  Te  Te100  1  0.07856919  0.24937114  0.58523971  1
  Te  Te101  1  0.11333301  0.22501459  0.91149332  1
  Te  Te102  1  0.11227844  0.57552459  0.25445927  1
  Te  Te103  1  0.10042730  0.59447392  0.59068236  1
  Te  Te104  1  0.11740686  0.57536334  0.93650691  1
  Te  Te105  1  0.09295397  0.90048219  0.25844609  1
  Te  Te106  1  0.10150366  0.89100881  0.61134308  1
  Te  Te107  1  0.08897132  0.92626708  0.91782020  1
  Te  Te108  1  0.39580262  0.24710414  0.25852460  1
  Te  Te109  1  0.44445492  0.20360705  0.60763916  1
  Te  Te110  1  0.45211071  0.25151115  0.91830294  1
  Te  Te111  1  0.38581716  0.56306946  0.23274987  1
  Te  Te112  1  0.38573765  0.60675145  0.59931908  1
  Te  Te113  1  0.41010413  0.57712979  0.88354502  1
  Te  Te114  1  0.42720222  0.92328621  0.25578841  1
  Te  Te115  1  0.42336047  0.87657928  0.58906118  1
  Te  Te116  1  0.41750181  0.94252582  0.90525720  1
  Te  Te117  1  0.72987724  0.22133389  0.25221179  1
  Te  Te118  1  0.73406608  0.25198038  0.58750699  1
  Te  Te119  1  0.73711434  0.23528434  0.89939240  1
  Te  Te120  1  0.75048330  0.58227645  0.23466536  1
  Te  Te121  1  0.76117553  0.57160774  0.59804418  1
  Te  Te122  1  0.73225469  0.57300961  0.89251466  1
  Te  Te123  1  0.76208186  0.94615443  0.22368279  1
  Te  Te124  1  0.72946428  0.91184641  0.59173843  1
  Te  Te125  1  0.74494692  0.92092717  0.93966379  1
  Te  Te126  1  0.26822148  0.23724528  0.08959873  1
  Te  Te127  1  0.26149578  0.25070137  0.39223025  1
  Te  Te128  1  0.26389445  0.26022615  0.75947565  1
  Te  Te129  1  0.26106246  0.56196055  0.07398622  1
  Te  Te130  1  0.24839258  0.57302445  0.43192017  1
  Te  Te131  1  0.27304824  0.57266107  0.76500129  1
  Te  Te132  1  0.27575002  0.93236513  0.07253078  1
  Te  Te133  1  0.24976026  0.90464909  0.41874362  1
  Te  Te134  1  0.24981400  0.89726566  0.74940163  1
  Te  Te135  1  0.59944985  0.21953378  0.09757885  1
  Te  Te136  1  0.57953191  0.23071788  0.44430758  1
  Te  Te137  1  0.56236282  0.21257123  0.77927385  1
  Te  Te138  1  0.57326220  0.59894430  0.07845003  1
  Te  Te139  1  0.58055292  0.57377221  0.42117881  1
  Te  Te140  1  0.57537113  0.59111094  0.74709505  1
  Te  Te141  1  0.56748279  0.94079997  0.07932573  1
  Te  Te142  1  0.58070016  0.92628602  0.43727055  1
  Te  Te143  1  0.55972657  0.94244353  0.76790709  1
  Te  Te144  1  0.91237559  0.26347912  0.08954270  1
  Te  Te145  1  0.90121761  0.23761500  0.40783701  1
  Te  Te146  1  0.92370606  0.24621675  0.74865535  1
  Te  Te147  1  0.93125161  0.58599586  0.08806860  1
  Te  Te148  1  0.92646310  0.58805856  0.41458990  1
  Te  Te149  1  0.92289765  0.57236427  0.73839689  1
  Te  Te150  1  0.90283335  0.93689944  0.04380537  1
  Te  Te151  1  0.92443003  0.92724058  0.43286006  1
  Te  Te152  1  0.89868864  0.92781381  0.77401442  1
  Te  Te153  1  0.25640691  0.10046593  0.23160411  1
  Te  Te154  1  0.24859913  0.07062638  0.57641292  1
  Te  Te155  1  0.26446136  0.09246995  0.93895535  1
  Te  Te156  1  0.28050336  0.44755200  0.25785944  1
  Te  Te157  1  0.25557620  0.40493832  0.59130273  1
  Te  Te158  1  0.22040306  0.40509627  0.92561843  1
  Te  Te159  1  0.24921081  0.75082314  0.26353861  1
  Te  Te160  1  0.22870667  0.80484951  0.53705564  1
  Te  Te161  1  0.25626468  0.76478797  0.92643283  1
  Te  Te162  1  0.56532259  0.07853304  0.24900837  1
  Te  Te163  1  0.58277991  0.12527559  0.56739092  1
  Te  Te164  1  0.55024750  0.12602791  0.91042700  1
  Te  Te165  1  0.57218021  0.41986260  0.24837339  1
  Te  Te166  1  0.55913133  0.40045830  0.58251358  1
  Te  Te167  1  0.59436754  0.41879667  0.89345261  1
  Te  Te168  1  0.60525489  0.78378379  0.22582982  1
  Te  Te169  1  0.54864400  0.79609955  0.64249817  1
  Te  Te170  1  0.56752080  0.74604582  0.89212247  1
  Te  Te171  1  0.90207322  0.07651410  0.24839106  1
  Te  Te172  1  0.91462846  0.08369735  0.58984603  1
  Te  Te173  1  0.91949376  0.06157611  0.94851042  1
  Te  Te174  1  0.92124265  0.42739590  0.24573764  1
  Te  Te175  1  0.91035366  0.40327837  0.57238497  1
  Te  Te176  1  0.92641920  0.41769787  0.91780386  1
  Te  Te177  1  0.91889232  0.75255268  0.25303357  1
  Te  Te178  1  0.93409409  0.74005739  0.58976779  1
  Te  Te179  1  0.89676126  0.76028534  0.92502618  1
