# generated using pymatgen
data_In2Te3
_symmetry_space_group_name_H-M   'P 1'
_cell_length_a   18.76380865
_cell_length_b   18.76419084
_cell_length_c   18.76707124
_cell_angle_alpha   89.96128203
_cell_angle_beta   90.13421959
_cell_angle_gamma   89.96894802
_symmetry_Int_Tables_number   1
_chemical_formula_structural   In2Te3
_chemical_formula_sum   'In72 Te108'
_cell_volume   6607.63408170
_cell_formula_units_Z   36
loop_
 _symmetry_equiv_pos_site_id
 _symmetry_equiv_pos_as_xyz
  1  'x, y, z'
loop_
 _atom_site_type_symbol
 _atom_site_label
 _atom_site_symmetry_multiplicity
 _atom_site_fract_x
 _atom_site_fract_y
 _atom_site_fract_z
 _atom_site_occupancy
  In  In0  1  0.82728486  0.49360795  0.67959342  1
  In  In1  1  -0.04298808  -0.01123109  0.02217557  1
  In  In2  1  0.50802577  0.83853079  0.68078809  1
  In  In3  1  -0.00344071  0.85249056  0.50830105  1
  In  In4  1  0.50885680  0.32448659  0.16432413  1
  In  In5  1  0.00272608  0.49447517  0.17222840  1
  In  In6  1  0.82043206  0.33328445  0.49404052  1
  In  In7  1  0.14847402  0.32198046  0.15014187  1
  In  In8  1  0.69765449  0.68163705  0.01778175  1
  In  In9  1  0.49958279  0.18367371  0.34190496  1
  In  In10  1  0.16462947  0.83310561  -0.00845585  1
  In  In11  1  -0.01949484  0.49054513  0.84055825  1
  In  In12  1  0.86178084  0.64897232  0.46471774  1
  In  In13  1  0.32654864  0.83931207  0.50755433  1
  In  In14  1  0.85065189  0.83222932  0.32159437  1
  In  In15  1  0.00286915  0.01236206  0.65825124  1
  In  In16  1  0.49792353  0.01076091  0.14395434  1
  In  In17  1  0.30568089  0.66157736  0.32898124  1
  In  In18  1  0.67520142  0.84959498  0.50330257  1
  In  In19  1  0.15379085  0.66087759  0.49044036  1
  In  In20  1  0.35053960  0.66791407  0.66211489  1
  In  In21  1  0.83131404  0.47918523  -0.00066568  1
  In  In22  1  0.50778863  0.47713998  0.33675284  1
  In  In23  1  0.35218743  0.49753783  0.84728489  1
  In  In24  1  0.16765751  0.16826052  0.31659016  1
  In  In25  1  0.52991652  0.65375714  0.16117948  1
  In  In26  1  0.67249443  0.00034482  0.00269960  1
  In  In27  1  0.52114645  0.17176778  0.65546850  1
  In  In28  1  0.66250168  0.64888062  0.68991680  1
  In  In29  1  0.50730397  0.65690189  0.83437701  1
  In  In30  1  0.70895878  0.64484835  0.29418017  1
  In  In31  1  0.66564638  0.49435970  0.49518956  1
  In  In32  1  0.67666892  0.17490938  0.15789359  1
  In  In33  1  0.17307376  0.68396978  0.83426238  1
  In  In34  1  0.33117649  -0.02669721  0.68520993  1
  In  In35  1  -0.03993020  0.01674631  0.30286088  1
  In  In36  1  0.14325475  0.63161710  0.15389449  1
  In  In37  1  0.68640053  0.31852551  0.31882889  1
  In  In38  1  0.69326896  -0.00009256  0.34008194  1
  In  In39  1  0.16042214  -0.00890260  0.49580713  1
  In  In40  1  0.81478176  0.00234048  0.84194498  1
  In  In41  1  0.50566445  -0.01104958  0.83270587  1
  In  In42  1  0.82305418  0.83584278  0.65323282  1
  In  In43  1  0.66947146  0.34398065  0.66465542  1
  In  In44  1  0.32896765  0.17823721  0.48664907  1
  In  In45  1  0.49305856  0.19065730  0.01862831  1
  In  In46  1  0.83167867  0.65823812  0.84452213  1
  In  In47  1  0.16225334  0.50879131  0.34773307  1
  In  In48  1  0.49891728  0.83916777  -0.01508765  1
  In  In49  1  0.66856643  0.16815252  0.49726416  1
  In  In50  1  0.33655325  0.33172375  0.02083829  1
  In  In51  1  0.16082546  0.49701375  0.64808410  1
  In  In52  1  0.00000153  0.67378570  -0.00542596  1
  In  In53  1  0.51710658  0.82417082  0.32388320  1
  In  In54  1  0.12315576  0.29627497  0.86464868  1
  In  In55  1  -0.03317378  0.31734166  0.68436701  1
  In  In56  1  0.15601684  0.17233331  0.66309607  1
  In  In57  1  0.34164985  0.83775268  0.16275434  1
  In  In58  1  -0.00434026  0.17050387  0.51441112  1
  In  In59  1  0.15750372  0.85046159  0.34283616  1
  In  In60  1  0.33482539  0.16130621  0.85816816  1
  In  In61  1  0.33854674  0.35034378  0.68320403  1
  In  In62  1  0.83005450  0.18821084  0.00859122  1
  In  In63  1  0.00249131  0.34764421  0.32398717  1
  In  In64  1  0.33801130  0.49531402  0.15303298  1
  In  In65  1  0.49119768  0.64502227  0.50592907  1
  In  In66  1  0.01102397  0.82026866  0.83383787  1
  In  In67  1  0.69084289  0.17754321  0.84196725  1
  In  In68  1  0.34052460  0.33323389  0.33470743  1
  In  In69  1  0.18031512  0.48994509  0.02126415  1
  In  In70  1  0.15683618  0.01404863  0.16794775  1
  In  In71  1  0.17669004  0.01496928  0.82175397  1
  Te  Te72  1  0.05328746  0.08670103  0.08373118  1
  Te  Te73  1  0.07227159  0.07909716  0.40872950  1
  Te  Te74  1  0.06369309  0.10648235  0.76532625  1
  Te  Te75  1  0.05742399  0.40632504  0.05774747  1
  Te  Te76  1  0.06631364  0.43150524  0.43011641  1
  Te  Te77  1  0.07986604  0.40582727  0.75782461  1
  Te  Te78  1  0.07846442  0.75840108  0.09436057  1
  Te  Te79  1  0.06107409  0.75447665  0.40946916  1
  Te  Te80  1  0.07324191  0.72963651  0.73616185  1
  Te  Te81  1  0.39887034  0.08655633  0.06500459  1
  Te  Te82  1  0.42201226  0.08614576  0.42014521  1
  Te  Te83  1  0.41272926  0.09115336  0.74507278  1
  Te  Te84  1  0.45019000  0.43522097  0.06540822  1
  Te  Te85  1  0.41393714  0.41624336  0.43120770  1
  Te  Te86  1  0.44566362  0.42381253  0.75731704  1
  Te  Te87  1  0.43011134  0.74251865  0.08425505  1
  Te  Te88  1  0.41097300  0.75068788  0.41243863  1
  Te  Te89  1  0.41190208  0.75928073  0.76748759  1
  Te  Te90  1  0.77461372  0.06858946  0.09493030  1
  Te  Te91  1  0.76745983  0.11017716  0.40262652  1
  Te  Te92  1  0.73517115  0.07785341  0.74217085  1
  Te  Te93  1  0.75386066  0.42684463  0.11533323  1
  Te  Te94  1  0.76046160  0.43298998  0.39447776  1
  Te  Te95  1  0.74939437  0.41082564  0.77238166  1
  Te  Te96  1  0.78627787  0.76610957  0.10879358  1
  Te  Te97  1  0.74941639  0.74937097  0.41385741  1
  Te  Te98  1  0.74647993  0.75527858  0.75852205  1
  Te  Te99  1  0.05710163  0.23349531  0.23473512  1
  Te  Te100  1  0.08105577  0.27581674  0.58281551  1
  Te  Te101  1  0.06097551  0.21865769  0.97872507  1
  Te  Te102  1  0.05254713  0.60120459  0.27698014  1
  Te  Te103  1  0.06289867  0.57917541  0.57394681  1
  Te  Te104  1  0.09034588  0.57317215  0.91952503  1
  Te  Te105  1  0.06277242  0.91935816  0.24436747  1
  Te  Te106  1  0.10092766  0.90601715  0.60684694  1
  Te  Te107  1  0.06672708  0.93411077  0.92405699  1
  Te  Te108  1  0.40329083  0.23915064  0.23329007  1
  Te  Te109  1  0.41690830  0.25739179  0.58300797  1
  Te  Te110  1  0.42895284  0.27649489  0.90268597  1
  Te  Te111  1  0.41706152  0.58483696  0.25471790  1
  Te  Te112  1  0.42328617  0.55521126  0.60023889  1
  Te  Te113  1  0.42750263  0.58562792  0.93823928  1
  Te  Te114  1  0.42663707  0.92590251  0.25300770  1
  Te  Te115  1  0.43016683  0.92508026  0.57974178  1
  Te  Te116  1  0.40309754  0.93114640  0.91991834  1
  Te  Te117  1  0.78753729  0.24180061  0.23598177  1
  Te  Te118  1  0.76060537  0.24102165  0.59935829  1
  Te  Te119  1  0.75957614  0.28850235  0.91723284  1
  Te  Te120  1  0.78201434  0.55113406  0.20517252  1
  Te  Te121  1  0.75344339  0.59205474  0.57792081  1
  Te  Te122  1  0.73563380  0.56547961  0.91506122  1
  Te  Te123  1  0.75515516  0.91354610  0.23744811  1
  Te  Te124  1  0.75935621  0.94578198  0.57706286  1
  Te  Te125  1  0.74630728  0.90006412  0.92348692  1
  Te  Te126  1  0.24536331  0.23353807  0.08148573  1
  Te  Te127  1  0.22708666  0.26838300  0.41508155  1
  Te  Te128  1  0.24592954  0.24825744  0.76193268  1
  Te  Te129  1  0.26824583  0.60487550  0.07040998  1
  Te  Te130  1  0.26825501  0.56816883  0.44173800  1
  Te  Te131  1  0.25358629  0.57660289  0.75071602  1
  Te  Te132  1  0.24930297  0.92602820  0.07967096  1
  Te  Te133  1  0.26873031  0.93597853  0.40313135  1
  Te  Te134  1  0.23762259  0.89336636  0.76520881  1
  Te  Te135  1  0.62072175  0.27815511  0.05751255  1
  Te  Te136  1  0.58487864  0.27705668  0.42591038  1
  Te  Te137  1  0.58526030  0.25794768  0.76219187  1
  Te  Te138  1  0.61125694  0.57180764  0.07014066  1
  Te  Te139  1  0.58999321  0.59890120  0.39750916  1
  Te  Te140  1  0.57815487  0.54919586  0.75779075  1
  Te  Te141  1  0.59111965  0.90402161  0.09006185  1
  Te  Te142  1  0.57826842  0.92969315  0.41614421  1
  Te  Te143  1  0.60735101  0.92303952  0.75009517  1
  Te  Te144  1  0.94328366  0.26540732  0.06766808  1
  Te  Te145  1  0.91683211  0.24966603  0.41056249  1
  Te  Te146  1  0.92417809  0.21470860  0.78105018  1
  Te  Te147  1  0.91317658  0.58357084  0.08023075  1
  Te  Te148  1  0.93941852  0.55830522  0.38057020  1
  Te  Te149  1  0.92545108  0.59389667  0.74260708  1
  Te  Te150  1  0.89314599  0.88564274  0.11186805  1
  Te  Te151  1  0.90342424  0.93610271  0.42192744  1
  Te  Te152  1  0.91978650  0.91603932  0.75028806  1
  Te  Te153  1  0.26213742  0.07688520  0.25219154  1
  Te  Te154  1  0.25010174  0.07697614  0.58928455  1
  Te  Te155  1  0.23014892  0.09226573  0.93565718  1
  Te  Te156  1  0.23405589  0.42219497  0.24003675  1
  Te  Te157  1  0.24956013  0.40341053  0.57690378  1
  Te  Te158  1  0.24324750  0.40057070  0.91458170  1
  Te  Te159  1  0.23031125  0.75802768  0.23874613  1
  Te  Te160  1  0.24050441  0.74562279  0.58835187  1
  Te  Te161  1  0.26695565  0.74897167  0.92651431  1
  Te  Te162  1  0.58653655  0.09159420  0.24765426  1
  Te  Te163  1  0.59015304  0.06959794  0.57612044  1
  Te  Te164  1  0.58013154  0.09727113  0.92537298  1
  Te  Te165  1  0.60470211  0.42144622  0.23536501  1
  Te  Te166  1  0.57283926  0.41927362  0.57974785  1
  Te  Te167  1  0.54773960  0.37105268  0.95651150  1
  Te  Te168  1  0.61776440  0.75581294  0.23360300  1
  Te  Te169  1  0.58308092  0.74300925  0.58355000  1
  Te  Te170  1  0.59966994  0.74976317  0.91424237  1
  Te  Te171  1  0.87560751  0.10574531  0.22099549  1
  Te  Te172  1  0.89804668  0.08797968  0.58737919  1
  Te  Te173  1  0.90778618  0.10914767  0.89928949  1
  Te  Te174  1  0.89644203  0.40886164  0.23553726  1
  Te  Te175  1  0.91448367  0.41918408  0.57968647  1
  Te  Te176  1  0.89939828  0.38294585  0.90409553  1
  Te  Te177  1  0.90389445  0.74875918  0.20968967  1
  Te  Te178  1  0.91580010  0.74143218  0.57641580  1
  Te  Te179  1  0.90097836  0.76767661  0.92626438  1
