# generated using pymatgen
data_In2Te3
_symmetry_space_group_name_H-M   'P 1'
_cell_length_a   18.74363698
_cell_length_b   18.74911901
_cell_length_c   18.74507980
_cell_angle_alpha   90.05131463
_cell_angle_beta   89.95309598
_cell_angle_gamma   90.01239092
_symmetry_Int_Tables_number   1
_chemical_formula_structural   In2Te3
_chemical_formula_sum   'In72 Te108'
_cell_volume   6587.51616603
_cell_formula_units_Z   36
loop_
 _symmetry_equiv_pos_site_id
 _symmetry_equiv_pos_as_xyz
  1  'x, y, z'
loop_
 _atom_site_type_symbol
 _atom_site_label
 _atom_site_symmetry_multiplicity
 _atom_site_fract_x
 _atom_site_fract_y
 _atom_site_fract_z
 _atom_site_occupancy
  In  In0  1  0.66325989  0.35583143  0.33769347  1
  In  In1  1  0.65232393  0.64985926  0.34193004  1
  In  In2  1  0.18328925  0.81977420  0.63986440  1
  In  In3  1  0.83593650  0.17244063  0.35738194  1
  In  In4  1  -0.00523392  0.50751421  0.18862423  1
  In  In5  1  -0.00174442  0.83366853  0.49018395  1
  In  In6  1  0.16811327  0.00781692  0.84142429  1
  In  In7  1  0.49957786  0.81928010  0.34887967  1
  In  In8  1  0.66615211  0.18806065  0.84832764  1
  In  In9  1  0.00048630  0.19017763  0.15653820  1
  In  In10  1  0.51402113  0.00031806  0.83430261  1
  In  In11  1  0.36321254  -0.01734775  0.67154960  1
  In  In12  1  0.50806457  0.34382877  0.81535684  1
  In  In13  1  0.36275164  0.17524812  0.50028906  1
  In  In14  1  0.49336726  0.49917448  0.34051272  1
  In  In15  1  0.16548559  0.37331337  0.83713579  1
  In  In16  1  -0.01122645  0.16399779  0.82551728  1
  In  In17  1  0.37687306  0.17745966  0.82688974  1
  In  In18  1  0.16944033  0.33773219  0.19045126  1
  In  In19  1  0.34274122  0.35413608  0.65059437  1
  In  In20  1  0.66288986  0.83985794  0.17539191  1
  In  In21  1  0.64883242  0.81576175  0.82045310  1
  In  In22  1  0.81240430  0.82920876  0.66792879  1
  In  In23  1  0.49824567  0.16437696  0.32288787  1
  In  In24  1  -0.00080711  0.49456179  0.84169644  1
  In  In25  1  -0.02399831  0.00499368  -0.00108739  1
  In  In26  1  0.81650390  0.50782701  0.34809875  1
  In  In27  1  0.64437189  0.17388619  0.14444104  1
  In  In28  1  0.03056577  0.63895191  0.64230932  1
  In  In29  1  -0.01916770  0.18188348  0.49474490  1
  In  In30  1  0.18296332  0.17565133  0.33200286  1
  In  In31  1  0.35626177  0.79614034  0.80948252  1
  In  In32  1  0.33182249  0.02054085  0.34885410  1
  In  In33  1  0.18328023  0.16904558  0.67983132  1
  In  In34  1  -0.00010970  0.66945148  0.33854984  1
  In  In35  1  0.64606213  0.15780774  0.52925616  1
  In  In36  1  0.17127969  -0.02294566  0.50299916  1
  In  In37  1  0.81721238  0.65522505  0.50336629  1
  In  In38  1  0.81394336  0.49684559  0.02000004  1
  In  In39  1  0.36899339  0.79370584  0.52301824  1
  In  In40  1  0.15210322  0.78810320  0.03549308  1
  In  In41  1  0.33566349  0.81411639  0.15928943  1
  In  In42  1  0.84175281  0.66040290  0.18442375  1
  In  In43  1  0.65040318  0.50730856  0.80269736  1
  In  In44  1  0.35197843  0.51698650  0.16405282  1
  In  In45  1  0.20593424  0.64108469  0.80776373  1
  In  In46  1  0.34430287  0.33056035  -0.01487281  1
  In  In47  1  0.18278532  0.36122481  0.49873229  1
  In  In48  1  0.83352629  0.84286380  -0.00984291  1
  In  In49  1  0.80507814  0.00380884  0.82863695  1
  In  In50  1  -0.00346102  0.83016648  0.82850499  1
  In  In51  1  0.17636669  0.50365161  -0.00351154  1
  In  In52  1  0.17798344  0.81841749  0.31966364  1
  In  In53  1  0.64151455  0.66613094  -0.00095756  1
  In  In54  1  0.81678859  0.49457688  0.67039221  1
  In  In55  1  0.15415264  0.15706379  0.00144291  1
  In  In56  1  0.65209034  0.80011720  0.50116900  1
  In  In57  1  0.34664879  -0.01609969  0.01056868  1
  In  In58  1  0.34645715  0.16628750  0.18771334  1
  In  In59  1  0.81326712  0.17052456  0.65735663  1
  In  In60  1  0.49937847  0.50225701  -0.01386350  1
  In  In61  1  0.81502671  0.34976174  0.16344612  1
  In  In62  1  0.00620829  -0.00955006  0.33107067  1
  In  In63  1  0.35620533  0.66994904  -0.00102447  1
  In  In64  1  0.50790684  0.37581552  0.50827144  1
  In  In65  1  -0.03123846  0.34038296  0.00443596  1
  In  In66  1  -0.01136782  0.33988963  0.66556400  1
  In  In67  1  0.80851812  0.00445204  0.16107057  1
  In  In68  1  0.81816214  0.00200466  0.50638383  1
  In  In69  1  0.50787064  -0.01212861  0.15812317  1
  In  In70  1  0.17236708  0.51640095  0.35128986  1
  In  In71  1  0.82831933  0.69283995  0.83261343  1
  Te  Te72  1  0.07640311  0.07004845  0.09792787  1
  Te  Te73  1  0.09255005  0.08603192  0.42686392  1
  Te  Te74  1  0.07720599  0.07441911  0.73802397  1
  Te  Te75  1  0.08238444  0.41327454  0.08179688  1
  Te  Te76  1  0.07970704  0.41519421  0.40767742  1
  Te  Te77  1  0.08760446  0.44193045  0.72712849  1
  Te  Te78  1  0.06355655  0.71424281  0.12374506  1
  Te  Te79  1  0.10274878  0.74243128  0.43021027  1
  Te  Te80  1  0.09168468  0.74333682  0.74580924  1
  Te  Te81  1  0.42721693  0.09338830  0.08037797  1
  Te  Te82  1  0.44939938  0.06755859  0.43395607  1
  Te  Te83  1  0.45641458  0.10322057  0.71876246  1
  Te  Te84  1  0.42644443  0.40666967  0.08991522  1
  Te  Te85  1  0.39592938  0.43782289  0.43539701  1
  Te  Te86  1  0.42316957  0.44334000  0.74217697  1
  Te  Te87  1  0.44550674  0.75828011  0.07769482  1
  Te  Te88  1  0.42017276  0.70807722  0.41013121  1
  Te  Te89  1  0.43776173  0.74229828  0.69695057  1
  Te  Te90  1  0.72350067  0.07591352  0.06357471  1
  Te  Te91  1  0.72711988  0.08382536  0.41703157  1
  Te  Te92  1  0.71673217  0.08336581  0.73663919  1
  Te  Te93  1  0.70983521  0.41026549  0.07958286  1
  Te  Te94  1  0.74691406  0.41754564  0.44356420  1
  Te  Te95  1  0.72726910  0.39402763  0.73835578  1
  Te  Te96  1  0.75515485  0.74274379  0.07967102  1
  Te  Te97  1  0.75791649  0.74613009  0.39840555  1
  Te  Te98  1  0.72310435  0.71966648  0.72479486  1
  Te  Te99  1  0.06774987  0.26004982  0.27562210  1
  Te  Te100  1  0.09660532  0.25197118  0.58432730  1
  Te  Te101  1  0.08012274  0.25798452  0.90980846  1
  Te  Te102  1  0.10348619  0.60446643  0.23503902  1
  Te  Te103  1  0.11485225  0.57512337  0.53802004  1
  Te  Te104  1  0.09343376  0.59526503  0.90740379  1
  Te  Te105  1  0.08585381  0.90386421  0.24236425  1
  Te  Te106  1  0.06913054  0.91603973  0.59881432  1
  Te  Te107  1  0.08095712  0.91590797  0.92734705  1
  Te  Te108  1  0.41779569  0.27154129  0.26079111  1
  Te  Te109  1  0.44866971  0.26168740  0.59252428  1
  Te  Te110  1  0.46353166  0.24255751  0.93689439  1
  Te  Te111  1  0.40790005  0.60630587  0.27151502  1
  Te  Te112  1  0.44746638  0.60551805  0.60915194  1
  Te  Te113  1  0.43190931  0.59919467  0.89214971  1
  Te  Te114  1  0.40901372  0.92031843  0.25601487  1
  Te  Te115  1  0.44594580  0.91471042  0.56874604  1
  Te  Te116  1  0.42000344  0.90097938  0.90767278  1
  Te  Te117  1  0.74408736  0.24291934  0.25341971  1
  Te  Te118  1  0.74617213  0.26317166  0.56245013  1
  Te  Te119  1  0.78091366  0.23661691  0.92690991  1
  Te  Te120  1  0.73238100  0.56792945  0.23626306  1
  Te  Te121  1  0.71805206  0.57357616  0.58408533  1
  Te  Te122  1  0.74729769  0.58539161  0.90692093  1
  Te  Te123  1  0.74709607  0.92058774  0.26601038  1
  Te  Te124  1  0.72013883  0.91658755  0.58632414  1
  Te  Te125  1  0.72066740  0.91313571  0.91806468  1
  Te  Te126  1  0.24501766  0.25349012  0.08306911  1
  Te  Te127  1  0.27343080  0.26540642  0.41567199  1
  Te  Te128  1  0.26271947  0.26859149  0.76469203  1
  Te  Te129  1  0.25077582  0.60132104  0.08632184  1
  Te  Te130  1  0.24394973  0.59751674  0.45345025  1
  Te  Te131  1  0.28734507  0.55740413  0.71791482  1
  Te  Te132  1  0.23697703  0.90690138  0.08483546  1
  Te  Te133  1  0.27363567  0.89694650  0.42540041  1
  Te  Te134  1  0.24943705  0.91337496  0.75062514  1
  Te  Te135  1  0.55293856  0.25789385  0.06602280  1
  Te  Te136  1  0.57764226  0.25608649  0.42086418  1
  Te  Te137  1  0.61203659  0.27217279  0.73384575  1
  Te  Te138  1  0.56992430  0.57836637  0.09319929  1
  Te  Te139  1  0.59105579  0.55759871  0.44383865  1
  Te  Te140  1  0.54414424  0.58292491  0.73092757  1
  Te  Te141  1  0.58569250  0.90303612  0.06549866  1
  Te  Te142  1  0.59791390  0.90755746  0.41452330  1
  Te  Te143  1  0.57595800  0.91141934  0.73320891  1
  Te  Te144  1  0.87932673  0.23768506  0.07496406  1
  Te  Te145  1  0.89407282  0.28498475  0.43609887  1
  Te  Te146  1  0.89398482  0.25962938  0.75434095  1
  Te  Te147  1  0.92758599  0.58230507  0.07441391  1
  Te  Te148  1  0.92709467  0.57444114  0.43342185  1
  Te  Te149  1  0.91831604  0.59434045  0.75050894  1
  Te  Te150  1  0.91677860  0.90807567  0.10014919  1
  Te  Te151  1  0.89769480  0.91379691  0.40859893  1
  Te  Te152  1  0.90660551  0.92252533  0.74659609  1
  Te  Te153  1  0.23778589  0.06911139  0.23744445  1
  Te  Te154  1  0.26192460  0.08124651  0.58084317  1
  Te  Te155  1  0.27129757  0.09485532  0.91477088  1
  Te  Te156  1  0.26434069  0.43106332  0.26044140  1
  Te  Te157  1  0.24906054  0.46052516  0.59454973  1
  Te  Te158  1  0.28323851  0.44476397  0.90421476  1
  Te  Te159  1  0.27671400  0.72220321  0.26154607  1
  Te  Te160  1  0.26612092  0.70587727  0.59071943  1
  Te  Te161  1  0.24364590  0.75581486  0.91380069  1
  Te  Te162  1  0.59496490  0.07173334  0.25085634  1
  Te  Te163  1  0.55049204  0.06683096  0.59649563  1
  Te  Te164  1  0.59150437  0.08475561  0.92873281  1
  Te  Te165  1  0.57575810  0.42431821  0.24116038  1
  Te  Te166  1  0.59920065  0.46657949  0.58342639  1
  Te  Te167  1  0.60273232  0.41339588  0.91493758  1
  Te  Te168  1  0.57331113  0.73562599  0.24263211  1
  Te  Te169  1  0.54995413  0.72424357  0.58152872  1
  Te  Te170  1  0.55339602  0.72745663  0.89590406  1
  Te  Te171  1  0.91785175  0.09179834  0.25231963  1
  Te  Te172  1  0.91969505  0.08029652  0.59002995  1
  Te  Te173  1  0.88456069  0.09984268  0.92075939  1
  Te  Te174  1  0.90992501  0.41055783  0.26615532  1
  Te  Te175  1  0.91852392  0.43650671  0.57915809  1
  Te  Te176  1  0.88369369  0.41594347  0.90446078  1
  Te  Te177  1  0.92196019  0.76353705  0.25453631  1
  Te  Te178  1  0.91725276  0.74565067  0.58999247  1
  Te  Te179  1  0.93326496  0.74012284  0.93432448  1
