# generated using pymatgen
data_In2Te3
_symmetry_space_group_name_H-M   'P 1'
_cell_length_a   18.80648523
_cell_length_b   18.79725627
_cell_length_c   18.80672084
_cell_angle_alpha   90.04577753
_cell_angle_beta   90.00894073
_cell_angle_gamma   89.95631378
_symmetry_Int_Tables_number   1
_chemical_formula_structural   In2Te3
_chemical_formula_sum   'In72 Te108'
_cell_volume   6648.36581306
_cell_formula_units_Z   36
loop_
 _symmetry_equiv_pos_site_id
 _symmetry_equiv_pos_as_xyz
  1  'x, y, z'
loop_
 _atom_site_type_symbol
 _atom_site_label
 _atom_site_symmetry_multiplicity
 _atom_site_fract_x
 _atom_site_fract_y
 _atom_site_fract_z
 _atom_site_occupancy
  In  In0  1  0.49382980  0.68788821  0.15844741  1
  In  In1  1  0.35986374  0.86344056  0.50132398  1
  In  In2  1  0.80389367  0.00481919  0.83790787  1
  In  In3  1  0.54520437  0.29093856  0.82169377  1
  In  In4  1  0.32817593  0.33700820  0.01297945  1
  In  In5  1  -0.02390433  0.16301651  0.85751444  1
  In  In6  1  0.49436274  0.15323865  0.01161032  1
  In  In7  1  0.53691995  0.02567506  0.82091749  1
  In  In8  1  0.33929701  0.00250032  0.01254535  1
  In  In9  1  0.66041168  0.31971574  0.01211990  1
  In  In10  1  0.81236951  0.50506545  0.33035229  1
  In  In11  1  -0.00903038  0.67943220  0.32010468  1
  In  In12  1  -0.01788133  0.34231132  0.69046109  1
  In  In13  1  0.14971214  0.16178521  0.00978504  1
  In  In14  1  -0.00916324  0.48740167  0.17970110  1
  In  In15  1  -0.01512354  0.00311328  0.66179684  1
  In  In16  1  0.64289921  0.48968397  0.49732156  1
  In  In17  1  0.15199638  0.68830024  0.84786818  1
  In  In18  1  0.66944069  -0.01457793  0.65487874  1
  In  In19  1  0.35991239  0.15462848  0.81396641  1
  In  In20  1  0.48685495  0.67231671  0.83004658  1
  In  In21  1  0.33904347  0.15957314  0.49584431  1
  In  In22  1  0.32788668  0.68334567  0.67172259  1
  In  In23  1  0.66151415  0.66675509  -0.00602338  1
  In  In24  1  0.66919298  0.85107606  0.48388002  1
  In  In25  1  0.18089296  0.65450468  0.50330274  1
  In  In26  1  -0.00045192  0.02551746  0.33968296  1
  In  In27  1  0.33801962  0.32033812  0.64796930  1
  In  In28  1  0.82354754  0.66613275  0.18678942  1
  In  In29  1  0.16015676  0.16488368  0.31935131  1
  In  In30  1  0.16992076  -0.02130415  0.84347301  1
  In  In31  1  0.33035871  0.83469889  0.84097011  1
  In  In32  1  0.02339065  0.30526304  0.34543993  1
  In  In33  1  0.85556255  0.87668563  0.00698151  1
  In  In34  1  0.17770242  0.15556264  0.66876668  1
  In  In35  1  0.18257971  0.50680616  0.30612645  1
  In  In36  1  0.03314205  0.69995586  0.02940924  1
  In  In37  1  0.51610847  0.85035835  0.00805539  1
  In  In38  1  0.35622182  0.49271684  0.85363395  1
  In  In39  1  0.35407573  -0.02300358  0.31279301  1
  In  In40  1  0.66813337  0.14764139  0.51842308  1
  In  In41  1  0.48991820  0.17532009  0.30167594  1
  In  In42  1  0.84194703  0.68806880  0.49732990  1
  In  In43  1  0.66316024  0.67785111  0.65863970  1
  In  In44  1  0.65937546  0.34496118  0.32022502  1
  In  In45  1  0.84142366  0.84094663  0.32421395  1
  In  In46  1  0.20252578  0.82340167  0.31599860  1
  In  In47  1  0.83194515  0.16169702  0.31002249  1
  In  In48  1  0.65150013  0.00680463  0.32322937  1
  In  In49  1  0.83036287  0.48526786  0.00211803  1
  In  In50  1  0.15448664  0.52312108  0.66408407  1
  In  In51  1  0.15609240  -0.00929779  0.17088124  1
  In  In52  1  0.49104506  0.49207100  0.00086118  1
  In  In53  1  0.82658283  0.49324374  0.68543198  1
  In  In54  1  0.00136299  0.84047225  0.50943023  1
  In  In55  1  0.32407619  0.49950874  0.47152378  1
  In  In56  1  0.00447937  0.83913382  0.83591307  1
  In  In57  1  0.51123241  0.50716819  0.31779163  1
  In  In58  1  -0.00767904  0.50469857  0.82965975  1
  In  In59  1  0.17220071  0.30200576  0.49080707  1
  In  In60  1  0.80150106  0.30240701  0.83084378  1
  In  In61  1  0.50881577  0.32223221  0.51387659  1
  In  In62  1  0.50464868  0.50187334  0.65749684  1
  In  In63  1  0.65235434  0.83753312  0.15749402  1
  In  In64  1  0.81773700  0.68681168  0.82808665  1
  In  In65  1  0.82379617  0.29043686  0.16575250  1
  In  In66  1  -0.00469914  0.31886652  0.02347942  1
  In  In67  1  0.00654739  0.48972624  0.52510460  1
  In  In68  1  0.17110204  0.31672059  0.18242823  1
  In  In69  1  0.20539115  0.53349800  0.02939618  1
  In  In70  1  -0.01728775  0.15195771  0.50572889  1
  In  In71  1  0.48426608  0.69524143  0.47770778  1
  Te  Te72  1  0.06319880  0.05617718  0.06984048  1
  Te  Te73  1  0.10203096  0.08666256  0.43700505  1
  Te  Te74  1  0.08021049  0.08722118  0.76538965  1
  Te  Te75  1  0.09465659  0.41859250  0.08679184  1
  Te  Te76  1  0.09313706  0.42900095  0.41346681  1
  Te  Te77  1  0.09662902  0.41678317  0.75727882  1
  Te  Te78  1  0.13078881  0.78057679  0.10449475  1
  Te  Te79  1  0.09204634  0.74779381  0.41153680  1
  Te  Te80  1  0.09281747  0.76699933  0.74036436  1
  Te  Te81  1  0.42396031  0.07020893  0.11573905  1
  Te  Te82  1  0.42843442  0.07811990  0.40335859  1
  Te  Te83  1  0.42012565  0.04954975  0.72685137  1
  Te  Te84  1  0.41275381  0.41781257  0.10256742  1
  Te  Te85  1  0.43346282  0.41201808  0.41523779  1
  Te  Te86  1  0.42434537  0.40592481  0.74615770  1
  Te  Te87  1  0.40816590  0.77900057  0.07839860  1
  Te  Te88  1  0.39138056  0.76848542  0.38611593  1
  Te  Te89  1  0.43098789  0.77433984  0.73214823  1
  Te  Te90  1  0.77269248  0.13669054  0.12455132  1
  Te  Te91  1  0.75352088  0.07872629  0.41235701  1
  Te  Te92  1  0.73484070  0.09629967  0.73828252  1
  Te  Te93  1  0.74640848  0.41141042  0.10287573  1
  Te  Te94  1  0.74938301  0.40473540  0.42747754  1
  Te  Te95  1  0.73356894  0.41963407  0.77254498  1
  Te  Te96  1  0.75684555  0.75276881  0.07669954  1
  Te  Te97  1  0.74680838  0.74515849  0.39589328  1
  Te  Te98  1  0.73345850  0.77632511  0.74603197  1
  Te  Te99  1  0.05563446  0.22233803  0.22254026  1
  Te  Te100  1  0.07111805  0.25430153  0.59374051  1
  Te  Te101  1  0.08362198  0.25911776  0.91259581  1
  Te  Te102  1  0.08440232  0.59677789  0.23058960  1
  Te  Te103  1  0.05994280  0.61687359  0.59051951  1
  Te  Te104  1  0.07811840  0.57932373  0.93168787  1
  Te  Te105  1  0.08208269  0.91079371  0.27666688  1
  Te  Te106  1  0.08857474  0.92873645  0.58842630  1
  Te  Te107  1  0.08747016  0.90419508  0.93964031  1
  Te  Te108  1  0.37509779  0.25932731  0.26467477  1
  Te  Te109  1  0.43919480  0.21818629  0.60036603  1
  Te  Te110  1  0.42169746  0.25769115  0.91021349  1
  Te  Te111  1  0.41231185  0.59164274  0.24302601  1
  Te  Te112  1  0.41137161  0.58739110  0.57195419  1
  Te  Te113  1  0.40655871  0.60650392  0.94158780  1
  Te  Te114  1  0.45131810  0.87169012  0.26720084  1
  Te  Te115  1  0.44162154  0.95095796  0.58797454  1
  Te  Te116  1  0.43109479  0.93987061  0.90756906  1
  Te  Te117  1  0.70267151  0.21876746  0.23325077  1
  Te  Te118  1  0.71609526  0.24776680  0.61613849  1
  Te  Te119  1  0.73537788  0.21512055  0.93220825  1
  Te  Te120  1  0.71967340  0.57925798  0.24426498  1
  Te  Te121  1  0.74919849  0.58030345  0.57304633  1
  Te  Te122  1  0.74875552  0.57413101  0.90867872  1
  Te  Te123  1  0.75081961  0.92593598  0.23639716  1
  Te  Te124  1  0.77040238  0.91064097  0.57333130  1
  Te  Te125  1  0.73274789  0.92643090  0.94376129  1
  Te  Te126  1  0.25939018  0.22717396  0.09339132  1
  Te  Te127  1  0.27504982  0.25747271  0.38585516  1
  Te  Te128  1  0.25452492  0.25420054  0.75702342  1
  Te  Te129  1  0.28695597  0.59875334  0.13290631  1
  Te  Te130  1  0.26581157  0.60933409  0.38452471  1
  Te  Te131  1  0.26122376  0.57804291  0.76000216  1
  Te  Te132  1  0.24961747  0.90788084  0.08596182  1
  Te  Te133  1  0.24985784  0.92989268  0.41552206  1
  Te  Te134  1  0.25094674  0.91025478  0.74211234  1
  Te  Te135  1  0.55344925  0.26028698  0.09615966  1
  Te  Te136  1  0.58950243  0.24036091  0.41241549  1
  Te  Te137  1  0.61733982  0.20086181  0.72534170  1
  Te  Te138  1  0.58229353  0.58008606  0.08790251  1
  Te  Te139  1  0.58690958  0.60223708  0.41221089  1
  Te  Te140  1  0.58723611  0.58448904  0.75503546  1
  Te  Te141  1  0.59992201  0.95230172  0.07749786  1
  Te  Te142  1  0.56296557  0.90681062  0.39258126  1
  Te  Te143  1  0.60314536  0.90573776  0.76186039  1
  Te  Te144  1  0.89643254  0.21083483  0.05814420  1
  Te  Te145  1  0.90318517  0.24889619  0.41882699  1
  Te  Te146  1  0.89883180  0.22588264  0.74050204  1
  Te  Te147  1  0.91458646  0.58204861  0.08566889  1
  Te  Te148  1  0.92376064  0.57525891  0.41197106  1
  Te  Te149  1  0.91678954  0.60277805  0.74188890  1
  Te  Te150  1  0.94281768  0.94758747  0.10084358  1
  Te  Te151  1  0.91237290  0.93087873  0.42347256  1
  Te  Te152  1  0.90111939  0.91624131  0.75584176  1
  Te  Te153  1  0.25860302  0.07805391  0.24260674  1
  Te  Te154  1  0.25790629  0.06997352  0.58070410  1
  Te  Te155  1  0.25881769  0.09396345  0.91517652  1
  Te  Te156  1  0.27408158  0.40586614  0.24543259  1
  Te  Te157  1  0.24309971  0.42346679  0.57943690  1
  Te  Te158  1  0.24006072  0.42394101  0.92411724  1
  Te  Te159  1  0.24833024  0.73912306  0.20033590  1
  Te  Te160  1  0.25361751  0.76849667  0.57232159  1
  Te  Te161  1  0.25802895  0.74402170  0.93256000  1
  Te  Te162  1  0.55573577  0.06539614  0.22157825  1
  Te  Te163  1  0.56580237  0.04337050  0.55823573  1
  Te  Te164  1  0.60911648  0.10459726  0.92750970  1
  Te  Te165  1  0.56131762  0.40063656  0.22559218  1
  Te  Te166  1  0.60452463  0.39444019  0.61099049  1
  Te  Te167  1  0.58492721  0.41009150  0.91171407  1
  Te  Te168  1  0.57433032  0.76393298  0.26281771  1
  Te  Te169  1  0.57271975  0.76978250  0.57615643  1
  Te  Te170  1  0.58717091  0.76215306  0.90296772  1
  Te  Te171  1  0.90629260  0.05963194  0.22627962  1
  Te  Te172  1  0.88323698  0.08035236  0.58591379  1
  Te  Te173  1  0.91191813  0.05263564  0.93182825  1
  Te  Te174  1  0.90563694  0.39304096  0.26144808  1
  Te  Te175  1  0.89505182  0.40303736  0.58062195  1
  Te  Te176  1  0.91598644  0.39756795  0.90873530  1
  Te  Te177  1  0.92937416  0.77315797  0.21772958  1
  Te  Te178  1  0.90061817  0.77559300  0.59886571  1
  Te  Te179  1  0.91677195  0.74370938  0.93085122  1
