# generated using pymatgen
data_In2Te3
_symmetry_space_group_name_H-M   'P 1'
_cell_length_a   19.05832994
_cell_length_b   19.03863898
_cell_length_c   19.04719175
_cell_angle_alpha   90.04262248
_cell_angle_beta   90.00360423
_cell_angle_gamma   90.06547473
_symmetry_Int_Tables_number   1
_chemical_formula_structural   In2Te3
_chemical_formula_sum   'In72 Te108'
_cell_volume   6911.16543633
_cell_formula_units_Z   36
loop_
 _symmetry_equiv_pos_site_id
 _symmetry_equiv_pos_as_xyz
  1  'x, y, z'
loop_
 _atom_site_type_symbol
 _atom_site_label
 _atom_site_symmetry_multiplicity
 _atom_site_fract_x
 _atom_site_fract_y
 _atom_site_fract_z
 _atom_site_occupancy
  In  In0  1  0.31925451  0.17619492  0.18030677  1
  In  In1  1  -0.00303594  0.84832705  0.16133900  1
  In  In2  1  0.15810598  0.32783141  0.19607505  1
  In  In3  1  0.65640636  0.68049340  0.63805731  1
  In  In4  1  0.85062307  0.82616993  0.67625773  1
  In  In5  1  0.51063561  -0.01110976  0.16137163  1
  In  In6  1  0.68436441  0.01474269  -0.02808128  1
  In  In7  1  -0.00984298  0.01656246  0.31889549  1
  In  In8  1  0.16246169  0.64649855  0.49984412  1
  In  In9  1  0.82336772  0.83339159  0.32902278  1
  In  In10  1  0.18867228  -0.02060378  0.50185586  1
  In  In11  1  0.14789253  0.67877523  0.87249795  1
  In  In12  1  0.67253675  0.85467831  0.49144491  1
  In  In13  1  0.84697078  0.29567145  0.48131300  1
  In  In14  1  0.33585049  0.62585733  0.66212611  1
  In  In15  1  0.31437673  0.81068773  0.81551022  1
  In  In16  1  0.16771062  0.49276321  0.33318898  1
  In  In17  1  0.51394550  0.68215173  0.17234202  1
  In  In18  1  0.68857032  0.85409909  0.82191715  1
  In  In19  1  0.66425083  0.00298505  0.34023814  1
  In  In20  1  0.48677118  0.49527645  0.03140182  1
  In  In21  1  0.82753426  0.00805278  0.47959897  1
  In  In22  1  0.35855620  0.15830315  0.82555028  1
  In  In23  1  0.69412049  0.68756058  -0.00833171  1
  In  In24  1  0.83751313  0.49145845  0.66771682  1
  In  In25  1  0.16254806  0.84377157  0.66547529  1
  In  In26  1  0.51443728  0.14415848  0.61276827  1
  In  In27  1  0.31719199  0.16574419  0.49997085  1
  In  In28  1  0.67716838  0.85684472  0.14846513  1
  In  In29  1  -0.01600920  0.30448027  0.65684201  1
  In  In30  1  0.32579018  0.50218222  0.87028097  1
  In  In31  1  0.51717227  0.18814196  0.00345715  1
  In  In32  1  0.49378921  0.32129336  0.82555359  1
  In  In33  1  0.48965232  0.47500066  0.63970051  1
  In  In34  1  -0.01257644  -0.00572097  0.66742780  1
  In  In35  1  0.34104981  0.50535661  0.48494477  1
  In  In36  1  0.48998831  0.33532146  0.16807796  1
  In  In37  1  0.00257813  0.49232453  0.82387357  1
  In  In38  1  0.84827228  0.49616596  -0.00716891  1
  In  In39  1  -0.00022645  -0.00784461  -0.01402089  1
  In  In40  1  0.49878427  -0.01173795  0.79686627  1
  In  In41  1  0.82791975  0.14038203  0.67296181  1
  In  In42  1  0.49765785  0.84856779  0.35024985  1
  In  In43  1  0.18039601  0.52417260  0.04068159  1
  In  In44  1  -0.04113075  0.69638369  -0.02408771  1
  In  In45  1  0.68377001  0.16698903  0.82807569  1
  In  In46  1  0.15229293  0.13559214  0.00206774  1
  In  In47  1  0.83083541  0.52458476  0.33943094  1
  In  In48  1  0.13775668  0.32964740  0.49514574  1
  In  In49  1  0.48612592  0.52984203  0.32671205  1
  In  In50  1  0.66577852  0.50032881  0.84961039  1
  In  In51  1  0.35391614  0.83392794  0.51931035  1
  In  In52  1  0.82596582  0.34033046  0.17567841  1
  In  In53  1  0.36745516  -0.01217180  -0.00514753  1
  In  In54  1  0.16012189  0.02091826  0.18021997  1
  In  In55  1  0.52292709  0.64998008  0.82982521  1
  In  In56  1  0.66763521  0.30889658  0.32439969  1
  In  In57  1  0.00470668  0.66621668  0.35174554  1
  In  In58  1  0.68583869  0.50888663  0.17988201  1
  In  In59  1  -0.01885054  0.51743759  0.17378906  1
  In  In60  1  0.65804955  0.51092544  0.46721507  1
  In  In61  1  0.00644750  0.67587200  0.65634597  1
  In  In62  1  0.34892346  0.81688250  0.18375938  1
  In  In63  1  0.83482173  0.17161264  -0.00807647  1
  In  In64  1  0.01631092  0.31931786  -0.00690555  1
  In  In65  1  0.48864668  0.14308593  0.35403953  1
  In  In66  1  0.16056670  0.49436628  0.67726651  1
  In  In67  1  0.18090222  0.82566916  0.04684301  1
  In  In68  1  0.15821390  0.17297642  0.34276316  1
  In  In69  1  0.15268492  -0.00383900  0.82230800  1
  In  In70  1  0.66573305  0.34456033  0.66127685  1
  In  In71  1  0.31964123  0.30762925  0.66297534  1
  Te  Te72  1  0.05161642  0.08620174  0.10243532  1
  Te  Te73  1  0.08909353  0.06632376  0.42175766  1
  Te  Te74  1  0.08039612  0.08586386  0.73518058  1
  Te  Te75  1  0.07124245  0.42129970  0.09810048  1
  Te  Te76  1  0.06622578  0.42348761  0.41240897  1
  Te  Te77  1  0.08172310  0.39023829  0.74840084  1
  Te  Te78  1  0.06087282  0.73806706  0.07874253  1
  Te  Te79  1  0.09941147  0.75268754  0.42362883  1
  Te  Te80  1  0.08254935  0.75635832  0.76171957  1
  Te  Te81  1  0.41781298  0.09894537  0.09295080  1
  Te  Te82  1  0.40494274  0.06224097  0.44350318  1
  Te  Te83  1  0.41672788  0.07994486  0.70897030  1
  Te  Te84  1  0.38792848  0.40968028  0.09425213  1
  Te  Te85  1  0.42998512  0.42192860  0.40710783  1
  Te  Te86  1  0.40571079  0.42489977  0.75576969  1
  Te  Te87  1  0.43822602  0.76710672  0.08157846  1
  Te  Te88  1  0.40020796  0.75360321  0.40406434  1
  Te  Te89  1  0.41666041  0.72088338  0.74739705  1
  Te  Te90  1  0.74900499  0.08869009  0.07771374  1
  Te  Te91  1  0.71448147  0.10341507  0.44376533  1
  Te  Te92  1  0.74520465  0.05550767  0.75997728  1
  Te  Te93  1  0.74660363  0.41993609  0.07386242  1
  Te  Te94  1  0.75557795  0.40130727  0.41166223  1
  Te  Te95  1  0.75335867  0.41003172  0.76505158  1
  Te  Te96  1  0.77291358  0.76893757  0.08225544  1
  Te  Te97  1  0.74153897  0.75017466  0.41708642  1
  Te  Te98  1  0.74612704  0.73598303  0.74335682  1
  Te  Te99  1  0.05619730  0.24722514  0.26598142  1
  Te  Te100  1  0.09581719  0.23225595  0.59400213  1
  Te  Te101  1  0.06691278  0.20978045  0.90732348  1
  Te  Te102  1  0.08761946  0.59111938  0.24856479  1
  Te  Te103  1  0.06755136  0.55951575  0.57996444  1
  Te  Te104  1  0.05940476  0.57610844  0.93777078  1
  Te  Te105  1  0.09067315  0.91464770  0.26013616  1
  Te  Te106  1  0.06736975  0.90704628  0.57294930  1
  Te  Te107  1  0.10934110  0.90378213  0.93115666  1
  Te  Te108  1  0.41724704  0.24827416  0.26819998  1
  Te  Te109  1  0.42178081  0.25755752  0.56789691  1
  Te  Te110  1  0.40533250  0.26002545  0.93152303  1
  Te  Te111  1  0.40419037  0.59462936  0.22169368  1
  Te  Te112  1  0.44116781  0.59397430  0.56097886  1
  Te  Te113  1  0.42513641  0.59508593  0.93286419  1
  Te  Te114  1  0.41060217  0.93325228  0.25879333  1
  Te  Te115  1  0.45676179  0.87702544  0.61399243  1
  Te  Te116  1  0.42068012  0.89617155  0.88879493  1
  Te  Te117  1  0.77165342  0.22734980  0.25707579  1
  Te  Te118  1  0.75332536  0.24645770  0.59001558  1
  Te  Te119  1  0.72984584  0.25634097  0.93087009  1
  Te  Te120  1  0.75614858  0.61303252  0.25134894  1
  Te  Te121  1  0.74188514  0.57102199  0.57863275  1
  Te  Te122  1  0.77212036  0.59224509  0.90266411  1
  Te  Te123  1  0.76155355  0.94158197  0.24342361  1
  Te  Te124  1  0.76810004  0.92002204  0.58764981  1
  Te  Te125  1  0.78193378  0.90933974  0.92548355  1
  Te  Te126  1  0.22248313  0.24054016  0.08567406  1
  Te  Te127  1  0.24940196  0.27023800  0.41369145  1
  Te  Te128  1  0.25494175  0.24926398  0.77819460  1
  Te  Te129  1  0.27669872  0.60384417  0.11646358  1
  Te  Te130  1  0.26092104  0.59688093  0.39706848  1
  Te  Te131  1  0.22869883  0.58792407  0.77589483  1
  Te  Te132  1  0.26452342  0.94341383  0.09747422  1
  Te  Te133  1  0.25392224  0.87648994  0.41974539  1
  Te  Te134  1  0.26212278  0.92974718  0.73900427  1
  Te  Te135  1  0.59685188  0.26827256  0.09415838  1
  Te  Te136  1  0.59151787  0.22712562  0.42059112  1
  Te  Te137  1  0.57576659  0.23988053  0.72843214  1
  Te  Te138  1  0.60263471  0.59110612  0.07379349  1
  Te  Te139  1  0.58748205  0.61228321  0.39180188  1
  Te  Te140  1  0.58884625  0.55779505  0.72829049  1
  Te  Te141  1  0.58541614  0.92450959  0.04949938  1
  Te  Te142  1  0.56078403  0.95284237  0.44254702  1
  Te  Te143  1  0.58580449  0.89543841  0.72131496  1
  Te  Te144  1  0.91910295  0.25716505  0.08967801  1
  Te  Te145  1  0.95058991  0.22872957  0.39918336  1
  Te  Te146  1  0.89317419  0.24398692  0.75262845  1
  Te  Te147  1  0.89621333  0.60359750  0.08579091  1
  Te  Te148  1  0.90423618  0.60337260  0.43882879  1
  Te  Te149  1  0.91736466  0.59067813  0.74937348  1
  Te  Te150  1  0.91420002  0.94882568  0.09636910  1
  Te  Te151  1  0.92280324  0.91424252  0.40926897  1
  Te  Te152  1  0.93360465  0.90281067  0.77283318  1
  Te  Te153  1  0.25885746  0.07906921  0.27839100  1
  Te  Te154  1  0.22981773  0.08955451  0.58953573  1
  Te  Te155  1  0.26682827  0.07105669  0.91707643  1
  Te  Te156  1  0.26006824  0.41594511  0.24907792  1
  Te  Te157  1  0.25698695  0.42375791  0.58547238  1
  Te  Te158  1  0.22193252  0.42799245  0.93882245  1
  Te  Te159  1  0.22800251  0.73383093  0.18346521  1
  Te  Te160  1  0.24698394  0.73090178  0.60081316  1
  Te  Te161  1  0.26194182  0.74651904  0.94249701  1
  Te  Te162  1  0.58456140  0.08866767  0.24403017  1
  Te  Te163  1  0.62090219  0.06119181  0.55891226  1
  Te  Te164  1  0.56097430  0.08647172  0.89999428  1
  Te  Te165  1  0.58945764  0.42231328  0.25625737  1
  Te  Te166  1  0.58498387  0.40352038  0.54868975  1
  Te  Te167  1  0.56274714  0.41735107  0.92034450  1
  Te  Te168  1  0.59308309  0.78379649  0.25186995  1
  Te  Te169  1  0.56587004  0.77514513  0.56808714  1
  Te  Te170  1  0.59640611  0.75902139  0.90198765  1
  Te  Te171  1  0.88541310  0.12293032  0.31517109  1
  Te  Te172  1  0.92135987  0.08808214  0.56662110  1
  Te  Te173  1  0.93525159  0.10077911  0.90808495  1
  Te  Te174  1  0.91502820  0.42062224  0.26763726  1
  Te  Te175  1  0.91233859  0.40520349  0.57042276  1
  Te  Te176  1  0.91847700  0.39617841  0.90538026  1
  Te  Te177  1  0.92465910  0.75202489  0.25327047  1
  Te  Te178  1  0.90539504  0.73812594  0.57194734  1
  Te  Te179  1  0.89578566  0.80472303  0.90176077  1
