# generated using pymatgen
data_In2Te3
_symmetry_space_group_name_H-M   'P 1'
_cell_length_a   18.89586555
_cell_length_b   18.89525875
_cell_length_c   18.87766838
_cell_angle_alpha   90.06238563
_cell_angle_beta   89.86576163
_cell_angle_gamma   90.16072280
_symmetry_Int_Tables_number   1
_chemical_formula_structural   In2Te3
_chemical_formula_sum   'In72 Te108'
_cell_volume   6740.07658228
_cell_formula_units_Z   36
loop_
 _symmetry_equiv_pos_site_id
 _symmetry_equiv_pos_as_xyz
  1  'x, y, z'
loop_
 _atom_site_type_symbol
 _atom_site_label
 _atom_site_symmetry_multiplicity
 _atom_site_fract_x
 _atom_site_fract_y
 _atom_site_fract_z
 _atom_site_occupancy
  In  In0  1  0.17013142  0.15278786  0.00083261  1
  In  In1  1  0.83765150  0.00507100  0.16341903  1
  In  In2  1  -0.01743357  0.65843620  0.00838534  1
  In  In3  1  0.67195351  0.17301114  0.85552306  1
  In  In4  1  -0.00735655  0.65286613  0.66074612  1
  In  In5  1  -0.00003269  0.47176613  0.82897183  1
  In  In6  1  0.50440323  0.83702471  0.35578407  1
  In  In7  1  0.01700628  0.86762859  0.86055855  1
  In  In8  1  0.67595881  0.51134973  0.17085920  1
  In  In9  1  0.35318839  0.65416170  0.65280627  1
  In  In10  1  0.50129281  0.02686220  0.15534099  1
  In  In11  1  0.33851917  0.33005717  -0.01666966  1
  In  In12  1  0.65850117  0.51397259  0.50956743  1
  In  In13  1  0.17588850  0.88082345  0.31728060  1
  In  In14  1  0.83792859  0.15167521  0.67390018  1
  In  In15  1  0.66722948  0.85186488  0.84196257  1
  In  In16  1  0.81296064  0.17072971  0.32383642  1
  In  In17  1  0.84731403  0.49050738  -0.01108726  1
  In  In18  1  0.32182356  0.84493731  0.82959386  1
  In  In19  1  0.32258108  0.02252715  0.35813611  1
  In  In20  1  0.18074018  0.66959255  0.83905028  1
  In  In21  1  0.30552253  0.29227136  0.61347337  1
  In  In22  1  0.00484033  0.85674555  0.15689452  1
  In  In23  1  0.50767101  0.84845582  0.00677823  1
  In  In24  1  0.66131015  0.14947369  0.49150975  1
  In  In25  1  0.15196035  0.31999024  0.83177254  1
  In  In26  1  0.03222778  0.47676297  0.16722925  1
  In  In27  1  0.67520005  -0.03935349  0.63788589  1
  In  In28  1  0.65768509  -0.01106821  0.33714386  1
  In  In29  1  0.16451660  0.47131954  0.36691441  1
  In  In30  1  0.49926189  0.49744023  0.65906312  1
  In  In31  1  0.50454977  0.50453680  -0.01745589  1
  In  In32  1  0.83959110  0.31966501  0.52767994  1
  In  In33  1  0.49309558  0.31020664  0.83324387  1
  In  In34  1  0.03370769  0.30682612  0.33054731  1
  In  In35  1  0.17791293  0.66490264  0.50334257  1
  In  In36  1  0.81495991  0.67956733  0.83919202  1
  In  In37  1  0.83287841  0.51010961  0.31260533  1
  In  In38  1  0.84955263  0.32237098  0.14241460  1
  In  In39  1  0.34978158  0.69145374  0.33157396  1
  In  In40  1  0.66381180  0.00611494  -0.01299606  1
  In  In41  1  -0.02203580  0.69344097  0.34713437  1
  In  In42  1  0.51366341  0.02919394  0.81606846  1
  In  In43  1  0.50603567  0.28973258  0.14697663  1
  In  In44  1  0.32994225  0.01427547  0.01233698  1
  In  In45  1  0.48440622  0.15570576  0.34017314  1
  In  In46  1  -0.00177403  0.85702455  0.49591790  1
  In  In47  1  0.85320253  0.14669106  -0.00577139  1
  In  In48  1  0.16060980  0.48742979  0.02833150  1
  In  In49  1  0.83921732  0.83963624  0.35449228  1
  In  In50  1  0.50147427  0.68042296  0.18163955  1
  In  In51  1  0.62864749  0.69559290  0.65292431  1
  In  In52  1  0.13828166  0.32145386  0.16245896  1
  In  In53  1  0.30059603  0.49059435  0.16665592  1
  In  In54  1  0.34775794  -0.01571362  0.65881354  1
  In  In55  1  0.14613029  0.65587630  0.17403689  1
  In  In56  1  0.80983475  0.68136555  0.49655077  1
  In  In57  1  0.50337503  0.49342023  0.35914162  1
  In  In58  1  0.14559404  0.84636136  0.66588650  1
  In  In59  1  -0.00620084  0.31526989  0.66238148  1
  In  In60  1  0.51326412  0.68977853  0.83850771  1
  In  In61  1  0.34799511  0.51300307  0.82390544  1
  In  In62  1  -0.00677223  0.46401073  0.50201302  1
  In  In63  1  0.33235556  0.86818491  0.16534843  1
  In  In64  1  0.69211141  0.47025106  0.81818367  1
  In  In65  1  0.67305106  0.36092166  0.32954207  1
  In  In66  1  0.02161860  0.13550914  0.47478113  1
  In  In67  1  0.84819088  0.00364740  0.82886456  1
  In  In68  1  0.48681486  0.33113935  0.51140457  1
  In  In69  1  0.17764384  0.12947325  0.68261435  1
  In  In70  1  0.00148893  0.00330604  0.66927113  1
  In  In71  1  0.79680228  0.67873423  0.14026395  1
  Te  Te72  1  0.09661853  0.03916813  0.06588800  1
  Te  Te73  1  0.14351954  0.11253012  0.39331343  1
  Te  Te74  1  0.06733137  0.08451375  0.77442183  1
  Te  Te75  1  0.05187909  0.38276798  0.04957652  1
  Te  Te76  1  0.09897656  0.36267274  0.45768480  1
  Te  Te77  1  0.09462327  0.41242719  0.72495516  1
  Te  Te78  1  0.08325325  0.75144800  0.07489255  1
  Te  Te79  1  0.09598791  0.76048367  0.41400956  1
  Te  Te80  1  0.07368308  0.74487177  0.75706536  1
  Te  Te81  1  0.38428576  0.10634440  0.11543143  1
  Te  Te82  1  0.39302777  0.11602410  0.45107192  1
  Te  Te83  1  0.42098272  0.09798821  0.72515877  1
  Te  Te84  1  0.41279860  0.42538541  0.07769607  1
  Te  Te85  1  0.40120614  0.40036472  0.41069055  1
  Te  Te86  1  0.41009392  0.40398781  0.74038290  1
  Te  Te87  1  0.41120117  0.76327743  0.08802946  1
  Te  Te88  1  0.42062679  0.75221454  0.44748157  1
  Te  Te89  1  0.41559064  0.75793789  0.74611359  1
  Te  Te90  1  0.74090121  0.09370952  0.08447376  1
  Te  Te91  1  0.76401212  0.06370260  0.41955991  1
  Te  Te92  1  0.73332113  0.06346897  0.75017556  1
  Te  Te93  1  0.74564999  0.41443899  0.07711814  1
  Te  Te94  1  0.76705992  0.42412967  0.43091702  1
  Te  Te95  1  0.78105137  0.40166842  0.72654128  1
  Te  Te96  1  0.73073752  0.76681081  0.04905056  1
  Te  Te97  1  0.72245042  0.78754698  0.43716960  1
  Te  Te98  1  0.73880916  0.76402151  0.73914827  1
  Te  Te99  1  0.10545323  0.20152599  0.25103962  1
  Te  Te100  1  0.07968570  0.21080169  0.59434871  1
  Te  Te101  1  0.07555189  0.24676889  0.93253942  1
  Te  Te102  1  0.07510643  0.57192034  0.28109846  1
  Te  Te103  1  0.08437460  0.56779039  0.57442679  1
  Te  Te104  1  0.07834145  0.57391890  0.92332753  1
  Te  Te105  1  0.06531181  0.95334748  0.25448904  1
  Te  Te106  1  0.09994642  0.94725529  0.56256279  1
  Te  Te107  1  0.11175206  0.93782157  0.94866600  1
  Te  Te108  1  0.41011083  0.24425735  0.24686410  1
  Te  Te109  1  0.43650457  0.22167968  0.59796887  1
  Te  Te110  1  0.39536737  0.21967552  0.90271862  1
  Te  Te111  1  0.40640114  0.57494947  0.24590736  1
  Te  Te112  1  0.42585889  0.57113515  0.55618027  1
  Te  Te113  1  0.41220501  0.60969122  0.92157160  1
  Te  Te114  1  0.42583606  0.93707832  0.26012699  1
  Te  Te115  1  0.44197632  0.89799102  0.58389720  1
  Te  Te116  1  0.42624632  0.93138587  0.91026483  1
  Te  Te117  1  0.73758623  0.26432636  0.23125026  1
  Te  Te118  1  0.73510337  0.23452151  0.59532355  1
  Te  Te119  1  0.77644955  0.25216796  0.92134967  1
  Te  Te120  1  0.73349635  0.61322664  0.26900394  1
  Te  Te121  1  0.73982499  0.60077465  0.60500086  1
  Te  Te122  1  0.74127280  0.57434502  0.92073633  1
  Te  Te123  1  0.75421000  0.90893215  0.24954343  1
  Te  Te124  1  0.76371580  0.89166272  0.54356302  1
  Te  Te125  1  0.77354883  0.91693312  0.92992960  1
  Te  Te126  1  0.25096560  0.25647713  0.08307232  1
  Te  Te127  1  0.26503136  0.29462184  0.46661709  1
  Te  Te128  1  0.25316749  0.24323178  0.75109917  1
  Te  Te129  1  0.25040007  0.60142134  0.07544703  1
  Te  Te130  1  0.25879864  0.58532507  0.40243766  1
  Te  Te131  1  0.24441478  0.57912917  0.73462609  1
  Te  Te132  1  0.22275012  0.93194116  0.08379502  1
  Te  Te133  1  0.27062479  0.90215975  0.42496102  1
  Te  Te134  1  0.22866996  0.93581961  0.75541480  1
  Te  Te135  1  0.58246781  0.22725594  0.04288892  1
  Te  Te136  1  0.59062889  0.26095325  0.40953033  1
  Te  Te137  1  0.59446569  0.24092527  0.75199249  1
  Te  Te138  1  0.58023215  0.59063453  0.08393787  1
  Te  Te139  1  0.58615163  0.59933615  0.41546580  1
  Te  Te140  1  0.58297515  0.57900719  0.76013028  1
  Te  Te141  1  0.59901728  0.92298506  0.10001064  1
  Te  Te142  1  0.55371447  0.95254883  0.43935083  1
  Te  Te143  1  0.57081103  0.90975339  0.74237839  1
  Te  Te144  1  0.93575274  0.20745798  0.10605760  1
  Te  Te145  1  0.91701958  0.24523741  0.41968762  1
  Te  Te146  1  0.90923285  0.24668030  0.76122139  1
  Te  Te147  1  0.91512794  0.56605188  0.10998191  1
  Te  Te148  1  0.91439816  0.58178883  0.43116192  1
  Te  Te149  1  0.91255945  0.58333856  0.76940793  1
  Te  Te150  1  0.91748538  0.92990571  0.06417749  1
  Te  Te151  1  0.94810893  0.93713019  0.38192370  1
  Te  Te152  1  0.92060637  0.89904157  0.74485518  1
  Te  Te153  1  0.23420054  0.09645650  0.26609038  1
  Te  Te154  1  0.26223347  0.07263446  0.57473637  1
  Te  Te155  1  0.27273085  0.09956732  0.90566128  1
  Te  Te156  1  0.23728287  0.39054583  0.26044743  1
  Te  Te157  1  0.26450298  0.41944056  0.54794244  1
  Te  Te158  1  0.24616388  0.43087819  0.90838540  1
  Te  Te159  1  0.24262671  0.75585967  0.24175695  1
  Te  Te160  1  0.24922135  0.75808232  0.59922087  1
  Te  Te161  1  0.24942817  0.76281896  0.92767533  1
  Te  Te162  1  0.59560088  0.09829301  0.25187511  1
  Te  Te163  1  0.57935965  0.05506366  0.57248395  1
  Te  Te164  1  0.55347034  0.10585722  0.94805045  1
  Te  Te165  1  0.56915016  0.41850482  0.23347982  1
  Te  Te166  1  0.59706569  0.40270173  0.59157884  1
  Te  Te167  1  0.58958250  0.40192189  0.91107225  1
  Te  Te168  1  0.58861184  0.77350581  0.25259388  1
  Te  Te169  1  0.54107621  0.77886697  0.56966018  1
  Te  Te170  1  0.61146800  0.74693426  0.94302898  1
  Te  Te171  1  0.91786114  0.10821261  0.23884383  1
  Te  Te172  1  0.91222667  0.07275459  0.56835301  1
  Te  Te173  1  0.95142219  0.08512967  0.89784897  1
  Te  Te174  1  0.92623284  0.39873316  0.25997501  1
  Te  Te175  1  0.89035325  0.43503877  0.61774077  1
  Te  Te176  1  0.89993202  0.38578120  0.89791943  1
  Te  Te177  1  0.90836004  0.75045025  0.22759430  1
  Te  Te178  1  0.91804690  0.75524291  0.57710178  1
  Te  Te179  1  0.91835101  0.75959726  0.91707645  1
