# generated using pymatgen
data_In2Te3
_symmetry_space_group_name_H-M   'P 1'
_cell_length_a   18.97305441
_cell_length_b   18.99009946
_cell_length_c   19.00104076
_cell_angle_alpha   90.05811559
_cell_angle_beta   89.69183597
_cell_angle_gamma   89.93841711
_symmetry_Int_Tables_number   1
_chemical_formula_structural   In2Te3
_chemical_formula_sum   'In72 Te108'
_cell_volume   6845.97206801
_cell_formula_units_Z   36
loop_
 _symmetry_equiv_pos_site_id
 _symmetry_equiv_pos_as_xyz
  1  'x, y, z'
loop_
 _atom_site_type_symbol
 _atom_site_label
 _atom_site_symmetry_multiplicity
 _atom_site_fract_x
 _atom_site_fract_y
 _atom_site_fract_z
 _atom_site_occupancy
  In  In0  1  0.64971547  0.70221787  0.00323596  1
  In  In1  1  0.84522572  0.32979269  0.16546219  1
  In  In2  1  0.16684668  0.65516355  0.14694363  1
  In  In3  1  0.33352443  0.18811287  0.18534188  1
  In  In4  1  0.17913884  0.01421877  0.49328886  1
  In  In5  1  0.49284460  0.83748950  0.65182306  1
  In  In6  1  0.35882405  0.85607053  0.47899358  1
  In  In7  1  0.16333939  0.00855614  0.85729569  1
  In  In8  1  0.17858995  0.33714303  0.83727702  1
  In  In9  1  -0.02469610  0.84738180  0.49152172  1
  In  In10  1  0.87275959  0.17298058  0.67995533  1
  In  In11  1  0.19118102  0.46170279  0.31342873  1
  In  In12  1  0.14967923  0.18490772  0.30878762  1
  In  In13  1  0.17547472  0.67936251  0.49621344  1
  In  In14  1  0.15997681  0.19791047  0.68406384  1
  In  In15  1  0.31985150  0.64287957  -0.02302661  1
  In  In16  1  0.66347567  0.34123373  0.62427253  1
  In  In17  1  0.83655961  0.16072602  0.00954367  1
  In  In18  1  0.48537814  0.85400763  0.00351750  1
  In  In19  1  0.02260553  0.49686812  0.49566385  1
  In  In20  1  0.82975357  0.33703574  0.48585310  1
  In  In21  1  0.49745620  0.67602220  0.18423948  1
  In  In22  1  0.68409677  0.33379656  0.31084414  1
  In  In23  1  -0.00431817  0.48897371  0.15815263  1
  In  In24  1  0.35622102  0.14498464  0.49269021  1
  In  In25  1  0.13860217  0.87337168  0.26228555  1
  In  In26  1  -0.00499649  0.65560474  0.34444217  1
  In  In27  1  0.67865581  0.51415556  0.16342031  1
  In  In28  1  0.83263877  0.81705746  0.67933215  1
  In  In29  1  0.01180309  0.35037913  0.68905538  1
  In  In30  1  0.66580791  0.31079274  0.03261551  1
  In  In31  1  0.66876454  0.83317159  0.83138153  1
  In  In32  1  0.00675881  0.00396822  0.04259866  1
  In  In33  1  0.15054765  0.79303399  0.67344614  1
  In  In34  1  0.32224097  0.84089408  0.15996817  1
  In  In35  1  0.02101538  0.15997353  0.86488853  1
  In  In36  1  0.85446295  0.65307744  0.14263573  1
  In  In37  1  0.82697183  0.01669637  0.17158394  1
  In  In38  1  0.16021642  0.84215187  0.02613006  1
  In  In39  1  0.35508118  0.00769377  0.33110744  1
  In  In40  1  0.17889136  0.33985960  0.48843810  1
  In  In41  1  0.35167889  0.49215615  0.50664169  1
  In  In42  1  -0.01508086  -0.02881025  0.67411122  1
  In  In43  1  -0.01412546  0.16481700  0.47707310  1
  In  In44  1  0.68852183  0.49297158  0.82638569  1
  In  In45  1  -0.00516776  0.64134757  0.69669215  1
  In  In46  1  0.34206091  0.68049570  0.34978092  1
  In  In47  1  0.48893259  0.15802484  0.66322408  1
  In  In48  1  0.83723782  0.51136166  0.69168195  1
  In  In49  1  0.30892348  0.64586214  0.69322509  1
  In  In50  1  -0.00080142  0.17954996  0.13864450  1
  In  In51  1  0.33965545  0.32287661  0.02343353  1
  In  In52  1  0.66110721  0.65474071  0.31809226  1
  In  In53  1  0.33779324  0.84054799  0.84274847  1
  In  In54  1  0.50460772  0.50052587  0.67500740  1
  In  In55  1  0.80074736  0.00380369  0.46972987  1
  In  In56  1  0.83364040  0.66372254  0.84628505  1
  In  In57  1  0.59741999  0.81858185  0.44690730  1
  In  In58  1  0.52082004  -0.00952913  0.17999260  1
  In  In59  1  0.80553740  0.66330759  0.52048906  1
  In  In60  1  0.33539400  -0.00466665  0.69333591  1
  In  In61  1  0.49026899  0.49847134  0.34066884  1
  In  In62  1  0.51383660  0.16103970  0.01412161  1
  In  In63  1  0.81832904  0.82765839  -0.00356680  1
  In  In64  1  0.66346576  0.15147504  0.83510763  1
  In  In65  1  0.47704886  0.48245793  0.00145460  1
  In  In66  1  0.66226601  0.17472379  0.47338781  1
  In  In67  1  0.67361673  -0.00591484  0.67507013  1
  In  In68  1  0.32608943  0.32659088  0.65716323  1
  In  In69  1  0.50476564  0.34719990  0.82326790  1
  In  In70  1  0.15889602  0.48974754  0.00271789  1
  In  In71  1  0.82862232  0.83307644  0.31077622  1
  Te  Te72  1  0.10998329  0.11181314  0.06311258  1
  Te  Te73  1  0.07994864  0.07612761  0.39785243  1
  Te  Te74  1  0.07772299  0.08145460  0.73934991  1
  Te  Te75  1  0.10501485  0.39987400  0.10790298  1
  Te  Te76  1  0.07659759  0.39753220  0.39432620  1
  Te  Te77  1  0.11700082  0.43644096  0.74632853  1
  Te  Te78  1  0.06972390  0.74261896  0.08482102  1
  Te  Te79  1  0.07859264  0.76255293  0.41434452  1
  Te  Te80  1  0.04835976  0.75643344  0.77033784  1
  Te  Te81  1  0.42523084  0.08540800  0.11349967  1
  Te  Te82  1  0.45932420  0.08107916  0.40675328  1
  Te  Te83  1  0.42829406  0.07870283  0.77288703  1
  Te  Te84  1  0.41853979  0.40852298  0.11295529  1
  Te  Te85  1  0.39386537  0.39799662  0.39935288  1
  Te  Te86  1  0.39629419  0.42352459  0.75000858  1
  Te  Te87  1  0.40299165  0.74065616  0.07708459  1
  Te  Te88  1  0.45188457  0.75403532  0.42040797  1
  Te  Te89  1  0.40737802  0.74806419  0.74553598  1
  Te  Te90  1  0.73238390  0.10381152  0.09783772  1
  Te  Te91  1  0.77971231  0.12825340  0.39425823  1
  Te  Te92  1  0.77231462  0.08201208  0.75052238  1
  Te  Te93  1  0.75915507  0.42196695  0.07691186  1
  Te  Te94  1  0.73118918  0.42056674  0.42055310  1
  Te  Te95  1  0.76495161  0.37748511  0.73400111  1
  Te  Te96  1  0.74398502  0.75237507  0.10820442  1
  Te  Te97  1  0.74979995  0.76254703  0.42048062  1
  Te  Te98  1  0.73562350  0.72452425  0.74811655  1
  Te  Te99  1  0.08264434  0.27801892  0.21608352  1
  Te  Te100  1  0.06976654  0.25388234  0.57421974  1
  Te  Te101  1  0.11702689  0.24474856  0.93570905  1
  Te  Te102  1  0.09468018  0.57467618  0.26312322  1
  Te  Te103  1  0.09413600  0.59152190  0.58851904  1
  Te  Te104  1  0.13940680  0.60571611  0.91528008  1
  Te  Te105  1  0.04605961  0.95571285  0.18556546  1
  Te  Te106  1  0.08983882  0.91665617  0.57337586  1
  Te  Te107  1  0.07040114  0.91783804  0.92857546  1
  Te  Te108  1  0.39048422  0.27174534  0.29286314  1
  Te  Te109  1  0.42616794  0.25727813  0.56713538  1
  Te  Te110  1  0.43659474  0.25668475  0.92245773  1
  Te  Te111  1  0.39912177  0.58171100  0.25053003  1
  Te  Te112  1  0.41158198  0.59942246  0.59078016  1
  Te  Te113  1  0.42177738  0.57147808  0.89993277  1
  Te  Te114  1  0.42406406  0.89597418  0.25557390  1
  Te  Te115  1  0.42377812  0.95006940  0.57639675  1
  Te  Te116  1  0.38223323  0.94362677  0.94058828  1
  Te  Te117  1  0.73836448  0.23582513  0.20999973  1
  Te  Te118  1  0.76922860  0.23072097  0.58481041  1
  Te  Te119  1  0.74576791  0.24419532  0.91997863  1
  Te  Te120  1  0.77735155  0.58108850  0.25615575  1
  Te  Te121  1  0.73605382  0.56343864  0.60024023  1
  Te  Te122  1  0.73218024  0.59642922  0.93621097  1
  Te  Te123  1  0.73419447  0.93883979  0.26334732  1
  Te  Te124  1  0.75927241  0.90996453  0.58238550  1
  Te  Te125  1  0.73294840  0.92392773  0.92545381  1
  Te  Te126  1  0.25060833  0.21026677  0.06390449  1
  Te  Te127  1  0.24409855  0.22245657  0.42254725  1
  Te  Te128  1  0.27593502  0.23949086  0.76997727  1
  Te  Te129  1  0.26676817  0.55917667  0.09181266  1
  Te  Te130  1  0.24705177  0.57130139  0.41531360  1
  Te  Te131  1  0.20688179  0.58493774  0.77650384  1
  Te  Te132  1  0.25486925  0.94132749  0.07875282  1
  Te  Te133  1  0.24481402  0.91500361  0.39835095  1
  Te  Te134  1  0.22505901  0.90373868  0.74899090  1
  Te  Te135  1  0.56877685  0.24586651  0.12163084  1
  Te  Te136  1  0.58190811  0.25996239  0.38845203  1
  Te  Te137  1  0.58837341  0.25259622  0.73574912  1
  Te  Te138  1  0.57027771  0.58924036  0.08061567  1
  Te  Te139  1  0.57944393  0.58566631  0.41654258  1
  Te  Te140  1  0.58509842  0.57849757  0.76772581  1
  Te  Te141  1  0.59459537  0.90995353  0.08067656  1
  Te  Te142  1  0.58166839  0.96032417  0.41642020  1
  Te  Te143  1  0.56854187  0.91971939  0.75439803  1
  Te  Te144  1  0.92533197  0.27678882  0.04685281  1
  Te  Te145  1  0.90501349  0.25130632  0.39028414  1
  Te  Te146  1  0.93750166  0.26084826  0.78581001  1
  Te  Te147  1  0.93104524  0.56687737  0.05292507  1
  Te  Te148  1  0.90780591  0.57816761  0.43962728  1
  Te  Te149  1  0.93752934  0.54819489  0.80120417  1
  Te  Te150  1  0.90199928  0.90559486  0.09806009  1
  Te  Te151  1  0.91276188  0.93496972  0.38832259  1
  Te  Te152  1  0.90001196  0.90653107  0.77225874  1
  Te  Te153  1  0.24843856  0.08111552  0.25387604  1
  Te  Te154  1  0.25025055  0.09475474  0.60296916  1
  Te  Te155  1  0.29407222  0.06722032  0.87896563  1
  Te  Te156  1  0.27552459  0.36271413  0.24510954  1
  Te  Te157  1  0.23924874  0.43179661  0.59007402  1
  Te  Te158  1  0.26911402  0.41696820  0.92668796  1
  Te  Te159  1  0.24321207  0.74515553  0.25415525  1
  Te  Te160  1  0.26697266  0.77179225  0.57374261  1
  Te  Te161  1  0.23859556  0.75717158  0.92023161  1
  Te  Te162  1  0.61424076  0.03826750  0.28666320  1
  Te  Te163  1  0.59685264  0.08701784  0.58447815  1
  Te  Te164  1  0.58089556  0.06844637  0.92097415  1
  Te  Te165  1  0.58220472  0.42902838  0.24010717  1
  Te  Te166  1  0.55651147  0.41784733  0.56472285  1
  Te  Te167  1  0.59611255  0.40578853  0.92885893  1
  Te  Te168  1  0.59210415  0.76482995  0.25082408  1
  Te  Te169  1  0.59331041  0.75974913  0.57981939  1
  Te  Te170  1  0.55377883  0.76049724  0.90405833  1
  Te  Te171  1  0.93344298  0.09348618  0.23862112  1
  Te  Te172  1  0.91523305  0.06560458  0.57194487  1
  Te  Te173  1  0.92092075  0.06761845  0.92602830  1
  Te  Te174  1  0.90323718  0.43019128  0.25478601  1
  Te  Te175  1  0.92420258  0.42022909  0.58737338  1
  Te  Te176  1  0.82126827  0.43636659  0.86159524  1
  Te  Te177  1  0.93091912  0.74525190  0.24189874  1
  Te  Te178  1  0.93013199  0.73689631  0.58572685  1
  Te  Te179  1  0.92070387  0.74485113  0.92992874  1
