# generated using pymatgen
data_In2Te3
_symmetry_space_group_name_H-M   'P 1'
_cell_length_a   18.78590209
_cell_length_b   18.78532592
_cell_length_c   18.78360977
_cell_angle_alpha   90.01593292
_cell_angle_beta   90.01991668
_cell_angle_gamma   89.96994896
_symmetry_Int_Tables_number   1
_chemical_formula_structural   In2Te3
_chemical_formula_sum   'In72 Te108'
_cell_volume   6628.72104852
_cell_formula_units_Z   36
loop_
 _symmetry_equiv_pos_site_id
 _symmetry_equiv_pos_as_xyz
  1  'x, y, z'
loop_
 _atom_site_type_symbol
 _atom_site_label
 _atom_site_symmetry_multiplicity
 _atom_site_fract_x
 _atom_site_fract_y
 _atom_site_fract_z
 _atom_site_occupancy
  In  In0  1  0.33537881  0.17057694  0.51082570  1
  In  In1  1  0.81837606  0.50289113  0.33305548  1
  In  In2  1  0.51184945  0.83377227  -0.00215808  1
  In  In3  1  0.18209712  0.34292067  0.83234940  1
  In  In4  1  0.32601486  0.49731403  0.50658352  1
  In  In5  1  0.81789121  0.82134686  -0.01210882  1
  In  In6  1  0.51664440  0.70414722  0.18243596  1
  In  In7  1  0.17506593  0.00048160  0.85328388  1
  In  In8  1  0.66805579  0.32857332  0.01655388  1
  In  In9  1  0.35933108  0.17015509  0.15198343  1
  In  In10  1  0.84285547  0.83017135  0.67534830  1
  In  In11  1  0.15816619  -0.01315793  0.47456419  1
  In  In12  1  0.83400959  0.17542778  0.02168826  1
  In  In13  1  0.17763652  0.16274030  0.31612619  1
  In  In14  1  0.84771753  0.16355305  0.66658221  1
  In  In15  1  0.50889002  0.31591652  0.16595105  1
  In  In16  1  0.00885575  0.17300718  0.84163094  1
  In  In17  1  0.81746887  0.00686851  0.18188640  1
  In  In18  1  0.82449780  0.80221862  0.32960012  1
  In  In19  1  0.13763697  0.37412884  0.15230715  1
  In  In20  1  0.83343835  0.19105330  0.31274933  1
  In  In21  1  0.14818444  0.53360223  0.30159505  1
  In  In22  1  0.16713589  0.33849927  0.51393181  1
  In  In23  1  -0.00388831  0.82985942  0.17387848  1
  In  In24  1  -0.00523407  0.80549728  0.49949147  1
  In  In25  1  0.50584039  0.50147483  -0.00765940  1
  In  In26  1  0.49933753  0.16098333  0.33249507  1
  In  In27  1  0.31507074  0.50663832  0.16071563  1
  In  In28  1  0.34683760  0.82860729  0.83643458  1
  In  In29  1  0.84624948  0.67342823  0.15617947  1
  In  In30  1  0.64804187  0.85360595  0.83690453  1
  In  In31  1  0.67196621  0.50273659  0.15834990  1
  In  In32  1  0.16207010  0.81372707  0.66026029  1
  In  In33  1  -0.00137714  0.67495682  -0.00062281  1
  In  In34  1  0.35310802  0.00308074  0.65869018  1
  In  In35  1  0.49696682  0.66591124  0.50243347  1
  In  In36  1  0.45903410  0.34877203  0.81188243  1
  In  In37  1  0.32525535  0.66224412  0.32849467  1
  In  In38  1  0.51186085  0.33693490  0.50871898  1
  In  In39  1  0.65523810  0.35892297  0.67059912  1
  In  In40  1  0.68501146  0.51451742  0.84546347  1
  In  In41  1  0.84591721  0.36588206  0.49238425  1
  In  In42  1  0.49747131  0.66359451  0.83429470  1
  In  In43  1  0.49766314  -0.01486448  0.16599773  1
  In  In44  1  0.50746026  0.50572373  0.35251677  1
  In  In45  1  0.16735221  0.16432169  -0.00179385  1
  In  In46  1  0.15886645  0.82603512  0.32161926  1
  In  In47  1  0.00202757  0.50261883  0.83213786  1
  In  In48  1  0.66096441  -0.02182687  0.69783106  1
  In  In49  1  0.68171754  0.65003280  0.64860254  1
  In  In50  1  0.67725097  0.16970299  0.49055981  1
  In  In51  1  -0.00309323  0.32659145  0.34338774  1
  In  In52  1  0.16499476  0.19101129  0.67835197  1
  In  In53  1  0.51220770  -0.03196244  0.50401364  1
  In  In54  1  0.31845585  0.65865523  0.65724887  1
  In  In55  1  0.15872790  0.50986043  0.66017574  1
  In  In56  1  0.00484142  0.51418833  0.51877236  1
  In  In57  1  0.02064151  -0.00982209  0.00174691  1
  In  In58  1  0.85238531  0.01079400  0.51979650  1
  In  In59  1  0.84588301  0.34283643  0.16577174  1
  In  In60  1  0.49908473  0.16088153  0.68146124  1
  In  In61  1  0.83224086  0.35755997  0.84177885  1
  In  In62  1  0.66051377  0.82397878  0.48200522  1
  In  In63  1  0.62909375  0.13636662  0.86924131  1
  In  In64  1  -0.00016954  0.00658443  0.33238648  1
  In  In65  1  0.32961550  -0.01565590  0.31417687  1
  In  In66  1  0.84383948  0.65335486  0.83923436  1
  In  In67  1  0.16484538  0.68635291  0.82556044  1
  In  In68  1  0.32786501  0.32280387  -0.01763472  1
  In  In69  1  0.32180525  0.65440318  0.01152454  1
  In  In70  1  0.83757657  -0.02695156  0.82952390  1
  In  In71  1  0.65716967  -0.01561083  0.33087820  1
  Te  Te72  1  0.08398576  0.08602823  0.09273797  1
  Te  Te73  1  0.07872566  0.10480850  0.41829157  1
  Te  Te74  1  0.08941027  0.07887721  0.75363351  1
  Te  Te75  1  0.03535403  0.43853214  0.06729026  1
  Te  Te76  1  0.09071260  0.42672618  0.41248612  1
  Te  Te77  1  0.07899724  0.40680537  0.73949305  1
  Te  Te78  1  0.09422312  0.76775437  0.07652010  1
  Te  Te79  1  0.08752354  0.73134683  0.41177250  1
  Te  Te80  1  0.06043968  0.72749848  0.72796150  1
  Te  Te81  1  0.43151471  0.07493962  0.06226715  1
  Te  Te82  1  0.41535956  0.07093563  0.42416349  1
  Te  Te83  1  0.40246980  0.08967544  0.76693907  1
  Te  Te84  1  0.41956599  0.41630459  0.08680802  1
  Te  Te85  1  0.40946322  0.40745654  0.41595858  1
  Te  Te86  1  0.40905467  0.44104668  0.71295864  1
  Te  Te87  1  0.41073815  0.75612738  0.08434904  1
  Te  Te88  1  0.41011908  0.74736644  0.41430482  1
  Te  Te89  1  0.42094439  0.74649195  0.73237530  1
  Te  Te90  1  0.73688145  0.08535641  0.08640383  1
  Te  Te91  1  0.75969067  0.07109743  0.40492826  1
  Te  Te92  1  0.74888555  0.08555034  0.75875629  1
  Te  Te93  1  0.76926455  0.43201980  0.06498225  1
  Te  Te94  1  0.73143685  0.41277354  0.41363204  1
  Te  Te95  1  0.76520806  0.44407854  0.73482563  1
  Te  Te96  1  0.73778758  0.74137619  0.08224064  1
  Te  Te97  1  0.75431316  0.71803971  0.43239332  1
  Te  Te98  1  0.74116058  0.75121742  0.76046876  1
  Te  Te99  1  0.08332647  0.25611735  0.23964664  1
  Te  Te100  1  0.06947239  0.25658858  0.58731591  1
  Te  Te101  1  0.08445508  0.27112099  0.92875277  1
  Te  Te102  1  0.05174642  0.61026892  0.22026806  1
  Te  Te103  1  0.08964275  0.61813983  0.58587054  1
  Te  Te104  1  0.09541343  0.58703883  0.91941293  1
  Te  Te105  1  0.09749943  0.94138638  0.23494452  1
  Te  Te106  1  0.07425186  0.91099672  0.57676870  1
  Te  Te107  1  0.08904119  0.89514255  0.91342773  1
  Te  Te108  1  0.40557674  0.26088561  0.26619867  1
  Te  Te109  1  0.41595594  0.26196883  0.60162135  1
  Te  Te110  1  0.44014784  0.25119852  0.91937380  1
  Te  Te111  1  0.42693348  0.58171349  0.23933784  1
  Te  Te112  1  0.43016898  0.56116751  0.59928462  1
  Te  Te113  1  0.40020589  0.57144454  0.90714489  1
  Te  Te114  1  0.40397552  0.88889522  0.23052423  1
  Te  Te115  1  0.40996162  0.89380858  0.57801009  1
  Te  Te116  1  0.42108399  0.92851957  0.92143369  1
  Te  Te117  1  0.73747078  0.26509441  0.23139453  1
  Te  Te118  1  0.75055072  0.25730328  0.59144597  1
  Te  Te119  1  0.75003898  0.24667326  0.90803598  1
  Te  Te120  1  0.74163718  0.60439896  0.24693377  1
  Te  Te121  1  0.78735829  0.60330969  0.55356537  1
  Te  Te122  1  0.76638235  0.58618330  0.94570152  1
  Te  Te123  1  0.73571445  0.88875920  0.23965670  1
  Te  Te124  1  0.74286695  0.92041743  0.57924906  1
  Te  Te125  1  0.73345578  0.93716297  0.93358252  1
  Te  Te126  1  0.24725672  0.26672871  0.09989816  1
  Te  Te127  1  0.25137440  0.25410068  0.41573061  1
  Te  Te128  1  0.26846336  0.23819380  0.77130445  1
  Te  Te129  1  0.21454829  0.58760872  0.08987562  1
  Te  Te130  1  0.23384028  0.58285998  0.42119234  1
  Te  Te131  1  0.25048282  0.57527972  0.76435072  1
  Te  Te132  1  0.20191160  0.86305950  0.13687327  1
  Te  Te133  1  0.26303923  0.89409914  0.41761853  1
  Te  Te134  1  0.25080015  0.90940680  0.74420306  1
  Te  Te135  1  0.57370765  0.22705266  0.06739873  1
  Te  Te136  1  0.59358262  0.25974199  0.40161661  1
  Te  Te137  1  0.59583895  0.24914020  0.75931881  1
  Te  Te138  1  0.57833203  0.59760798  0.08338478  1
  Te  Te139  1  0.60096464  0.59450123  0.42314930  1
  Te  Te140  1  0.58677795  0.57571191  0.74591818  1
  Te  Te141  1  0.60049542  0.91244374  0.08651986  1
  Te  Te142  1  0.55133392  0.88128340  0.37821687  1
  Te  Te143  1  0.54094783  0.91706656  0.75509438  1
  Te  Te144  1  0.93761654  0.25551194  0.08736362  1
  Te  Te145  1  0.91142860  0.23839643  0.43428119  1
  Te  Te146  1  0.92053056  0.26368721  0.75603022  1
  Te  Te147  1  0.94586248  0.57042080  0.09931027  1
  Te  Te148  1  0.90706325  0.58140770  0.42653680  1
  Te  Te149  1  0.92494143  0.58621433  0.73638241  1
  Te  Te150  1  0.90353305  0.91489087  0.08527646  1
  Te  Te151  1  0.90925532  0.90969896  0.40722618  1
  Te  Te152  1  0.93962846  0.92315044  0.73682829  1
  Te  Te153  1  0.25669380  0.07649704  0.21741018  1
  Te  Te154  1  0.23621717  0.07593556  0.57837483  1
  Te  Te155  1  0.26939182  0.08159760  0.93224762  1
  Te  Te156  1  0.24136634  0.41900658  0.26036217  1
  Te  Te157  1  0.26424677  0.40430086  0.61248287  1
  Te  Te158  1  0.24518559  0.43296783  0.93216347  1
  Te  Te159  1  0.24376414  0.74143063  0.22686700  1
  Te  Te160  1  0.24719634  0.74404904  0.56090841  1
  Te  Te161  1  0.24786233  0.76275162  0.92966378  1
  Te  Te162  1  0.59381456  0.08875580  0.23987820  1
  Te  Te163  1  0.58638801  0.08231417  0.57812982  1
  Te  Te164  1  0.54131157  0.03837830  0.93541697  1
  Te  Te165  1  0.58539483  0.41801292  0.24964564  1
  Te  Te166  1  0.60363646  0.44230195  0.55983995  1
  Te  Te167  1  0.58750819  0.40833862  0.90345996  1
  Te  Te168  1  0.60307667  0.76661090  0.28272763  1
  Te  Te169  1  0.58537734  0.75690066  0.59585382  1
  Te  Te170  1  0.59921330  0.73345618  0.92114312  1
  Te  Te171  1  0.92779670  0.09893046  0.23491911  1
  Te  Te172  1  0.95235914  0.08371540  0.59816167  1
  Te  Te173  1  0.91427941  0.07862078  0.91748059  1
  Te  Te174  1  0.93051759  0.43223600  0.25630247  1
  Te  Te175  1  0.92726247  0.41949251  0.60206835  1
  Te  Te176  1  0.93052163  0.41972466  0.93618160  1
  Te  Te177  1  0.94717264  0.71994316  0.27253686  1
  Te  Te178  1  0.89559433  0.72583906  0.58165414  1
  Te  Te179  1  0.92859262  0.76714321  0.89901547  1
