# generated using pymatgen
data_In2Te3
_symmetry_space_group_name_H-M   'P 1'
_cell_length_a   18.96710890
_cell_length_b   18.97741231
_cell_length_c   18.95046813
_cell_angle_alpha   89.97031107
_cell_angle_beta   90.06256286
_cell_angle_gamma   90.02880025
_symmetry_Int_Tables_number   1
_chemical_formula_structural   In2Te3
_chemical_formula_sum   'In72 Te108'
_cell_volume   6821.15160199
_cell_formula_units_Z   36
loop_
 _symmetry_equiv_pos_site_id
 _symmetry_equiv_pos_as_xyz
  1  'x, y, z'
loop_
 _atom_site_type_symbol
 _atom_site_label
 _atom_site_symmetry_multiplicity
 _atom_site_fract_x
 _atom_site_fract_y
 _atom_site_fract_z
 _atom_site_occupancy
  In  In0  1  0.33319655  0.51649488  0.48919578  1
  In  In1  1  0.33369426  0.14877178  0.84647587  1
  In  In2  1  0.82636723  0.63493739  0.86649561  1
  In  In3  1  0.50440096  0.66689273  0.82542319  1
  In  In4  1  0.15530696  0.18985149  0.01246978  1
  In  In5  1  0.17090117  0.50235165  0.02102987  1
  In  In6  1  0.34763553  0.83131117  0.18551547  1
  In  In7  1  0.65634624  0.17035728  0.84587496  1
  In  In8  1  0.51191526  0.61753445  0.15503127  1
  In  In9  1  0.01730050  0.81827149  0.15468598  1
  In  In10  1  0.17344281  0.00996503  0.83499078  1
  In  In11  1  0.17412719  0.67359659  0.16932189  1
  In  In12  1  -0.00023228  -0.00422104  -0.01554475  1
  In  In13  1  0.85202992  0.35023483  0.48107747  1
  In  In14  1  0.31613256  0.64750680  0.01516666  1
  In  In15  1  0.18469723  0.13139085  0.67026272  1
  In  In16  1  0.49932899  0.50390236  0.67427458  1
  In  In17  1  0.02812269  0.67181990  0.67550861  1
  In  In18  1  0.68307335  0.19614280  0.19260099  1
  In  In19  1  0.49133554  0.13892716  0.00096968  1
  In  In20  1  0.63674739  -0.01036777  0.33423167  1
  In  In21  1  0.49300753  0.32565318  0.52179016  1
  In  In22  1  -0.00362243  0.19888333  0.48801757  1
  In  In23  1  0.67510633  0.33888216  0.01910015  1
  In  In24  1  0.47044814  0.86225807  0.64160222  1
  In  In25  1  0.53242674  0.48824120  0.33713554  1
  In  In26  1  0.81848471  0.49986680  0.03969430  1
  In  In27  1  0.63702028  0.80444778  0.46573062  1
  In  In28  1  0.65949891  0.81894891  0.83545906  1
  In  In29  1  0.31541168  0.49362383  0.85900471  1
  In  In30  1  0.35422163  0.31704076  0.68724611  1
  In  In31  1  0.45630013  0.67539237  0.36473936  1
  In  In32  1  0.46728075  0.84467781  -0.01615925  1
  In  In33  1  0.80509910  0.00129481  0.16125437  1
  In  In34  1  0.67338057  -0.00981097  0.66288894  1
  In  In35  1  0.82733231  -0.01767815  0.83250964  1
  In  In36  1  0.21443584  0.69214009  0.47968324  1
  In  In37  1  0.67545796  0.33330598  0.68748674  1
  In  In38  1  0.52824986  0.31839552  0.86776554  1
  In  In39  1  0.61997374  0.82852671  0.16379869  1
  In  In40  1  0.01073300  0.32732515  0.67075696  1
  In  In41  1  0.48819175  0.12276136  0.65296594  1
  In  In42  1  0.69146171  0.67547165  0.66309394  1
  In  In43  1  0.17840574  -0.00641833  0.47761205  1
  In  In44  1  0.82745331  0.50119168  0.33051893  1
  In  In45  1  -0.00007627  0.81752517  0.83232137  1
  In  In46  1  0.82766639  0.68566748  0.48604332  1
  In  In47  1  0.83451344  0.17532106  0.01796481  1
  In  In48  1  0.33313697  0.16227493  0.15795484  1
  In  In49  1  0.33874463  -0.00170501  0.33268430  1
  In  In50  1  -0.00363729  0.65912978  0.31689921  1
  In  In51  1  0.00711989  0.34797949  0.01288628  1
  In  In52  1  0.66852292  0.17879629  0.47988419  1
  In  In53  1  0.30631935  0.36675956  0.30453030  1
  In  In54  1  0.01866348  0.84996032  0.48581972  1
  In  In55  1  0.49657081  0.37355059  0.13956410  1
  In  In56  1  0.83764455  0.85478809  0.65804105  1
  In  In57  1  0.00198501  0.18107409  0.18763477  1
  In  In58  1  0.47246353  0.16267755  0.32360697  1
  In  In59  1  0.18229826  -0.00758706  0.17020635  1
  In  In60  1  0.82768422  0.48507370  0.66178259  1
  In  In61  1  0.84137631  0.01753515  0.50026597  1
  In  In62  1  0.00174030  -0.00218791  0.32985379  1
  In  In63  1  -0.00172912  0.49313032  0.84527560  1
  In  In64  1  0.83786277  0.66363779  0.16916194  1
  In  In65  1  0.18076001  0.34581402  0.47676382  1
  In  In66  1  0.81263096  0.82210133  -0.00235301  1
  In  In67  1  0.18340770  0.66213926  0.83099313  1
  In  In68  1  0.16459343  0.49769400  0.65974973  1
  In  In69  1  0.00665460  0.36245292  0.33454476  1
  In  In70  1  0.86268223  0.17940298  0.66274563  1
  In  In71  1  0.33223077  0.68994211  0.63747380  1
  Te  Te72  1  0.06882478  0.07430760  0.09523226  1
  Te  Te73  1  0.08069487  0.09528299  0.41226140  1
  Te  Te74  1  0.07988374  0.09934520  0.76579017  1
  Te  Te75  1  0.10906302  0.39750690  0.11254524  1
  Te  Te76  1  0.08142717  0.44168365  0.43312688  1
  Te  Te77  1  0.09846485  0.41217972  0.76476229  1
  Te  Te78  1  0.10909331  0.75126408  0.06421611  1
  Te  Te79  1  0.08691306  0.74631184  0.40319929  1
  Te  Te80  1  0.11738789  0.77109227  0.74592024  1
  Te  Te81  1  0.40806288  0.05684987  0.09036192  1
  Te  Te82  1  0.42275836  0.07390812  0.43127458  1
  Te  Te83  1  0.40952401  0.05016433  0.76133170  1
  Te  Te84  1  0.38906863  0.42588898  0.05523987  1
  Te  Te85  1  0.41490628  0.40781513  0.41966248  1
  Te  Te86  1  0.43159793  0.41325627  0.77672058  1
  Te  Te87  1  0.42115316  0.72948539  0.08993239  1
  Te  Te88  1  0.34990827  0.75872721  0.42592915  1
  Te  Te89  1  0.41715811  0.75882906  0.74499412  1
  Te  Te90  1  0.72189019  0.09483274  0.07727461  1
  Te  Te91  1  0.74513417  0.07689791  0.39838532  1
  Te  Te92  1  0.75673734  0.09027738  0.73964018  1
  Te  Te93  1  0.74185383  0.41030996  0.13096441  1
  Te  Te94  1  0.73961711  0.39921772  0.39824701  1
  Te  Te95  1  0.74552355  0.43119207  0.76994766  1
  Te  Te96  1  0.72973479  0.74624450  0.09568810  1
  Te  Te97  1  0.73635481  0.73664992  0.38156302  1
  Te  Te98  1  0.77920107  0.75580035  0.76395987  1
  Te  Te99  1  0.08704501  0.25118187  0.28343760  1
  Te  Te100  1  0.10916479  0.24809130  0.58353121  1
  Te  Te101  1  0.05648122  0.24544136  0.92136304  1
  Te  Te102  1  0.08626197  0.57361960  0.23404495  1
  Te  Te103  1  0.10667453  0.60160466  0.57015356  1
  Te  Te104  1  0.08777292  0.58786837  0.92198185  1
  Te  Te105  1  0.09399203  0.90316268  0.25505163  1
  Te  Te106  1  0.09104055  0.93300268  0.58112159  1
  Te  Te107  1  0.09391484  0.90132587  0.91765809  1
  Te  Te108  1  0.41629464  0.27757789  0.23592792  1
  Te  Te109  1  0.39863005  0.22064033  0.57896837  1
  Te  Te110  1  0.41150265  0.25010057  0.93177151  1
  Te  Te111  1  0.42171342  0.56062781  0.26263971  1
  Te  Te112  1  0.43338276  0.59547365  0.57238666  1
  Te  Te113  1  0.41939059  0.58096857  0.92041504  1
  Te  Te114  1  0.44219533  0.91308307  0.26646081  1
  Te  Te115  1  0.40066684  0.96007095  0.55638094  1
  Te  Te116  1  0.39823128  0.93014059  0.88503241  1
  Te  Te117  1  0.76428191  0.26529882  0.29490053  1
  Te  Te118  1  0.76009108  0.25553588  0.57662707  1
  Te  Te119  1  0.75462005  0.25787357  0.91640576  1
  Te  Te120  1  0.74318904  0.60642875  0.26789806  1
  Te  Te121  1  0.75300291  0.57666791  0.56710814  1
  Te  Te122  1  0.72294479  0.58961029  0.96255812  1
  Te  Te123  1  0.72721636  0.90531782  0.24656946  1
  Te  Te124  1  0.74209384  0.90524299  0.55258676  1
  Te  Te125  1  0.72551531  0.92437935  0.92589421  1
  Te  Te126  1  0.24436176  0.26432782  0.10157555  1
  Te  Te127  1  0.26560553  0.25916791  0.39701763  1
  Te  Te128  1  0.24816532  0.24122957  0.76147644  1
  Te  Te129  1  0.29430459  0.52710399  0.11304118  1
  Te  Te130  1  0.24601773  0.57893944  0.39080637  1
  Te  Te131  1  0.27406676  0.57816327  0.73263956  1
  Te  Te132  1  0.26804046  0.90797369  0.08854382  1
  Te  Te133  1  0.25785861  0.89278804  0.40044027  1
  Te  Te134  1  0.29107577  0.94202760  0.77279615  1
  Te  Te135  1  0.57477948  0.24405254  0.08590150  1
  Te  Te136  1  0.56377377  0.25748724  0.40640332  1
  Te  Te137  1  0.56573946  0.23635675  0.73178040  1
  Te  Te138  1  0.60165380  0.55359834  0.05722637  1
  Te  Te139  1  0.56401685  0.59664455  0.43007629  1
  Te  Te140  1  0.60623158  0.58447340  0.75037248  1
  Te  Te141  1  0.55931500  0.92217799  0.06907135  1
  Te  Te142  1  0.54166903  0.89726862  0.40228869  1
  Te  Te143  1  0.57761244  0.91088883  0.74659150  1
  Te  Te144  1  0.90961266  0.26930523  0.10663305  1
  Te  Te145  1  0.88477384  0.23216877  0.39044647  1
  Te  Te146  1  0.90605511  0.27843156  0.76019088  1
  Te  Te147  1  0.92897884  0.58338786  0.08763196  1
  Te  Te148  1  0.91958207  0.58393277  0.42324263  1
  Te  Te149  1  0.92459676  0.58526772  0.74555804  1
  Te  Te150  1  0.90761703  0.91514794  0.08051733  1
  Te  Te151  1  0.90369941  0.91205621  0.40985886  1
  Te  Te152  1  0.93814397  0.92738835  0.74547559  1
  Te  Te153  1  0.24453675  0.09448033  0.26187324  1
  Te  Te154  1  0.27257931  0.04334983  0.58687239  1
  Te  Te155  1  0.24312867  0.08370645  0.94816086  1
  Te  Te156  1  0.19807811  0.44228602  0.23768673  1
  Te  Te157  1  0.27468061  0.41120101  0.59555437  1
  Te  Te158  1  0.23069476  0.40002882  0.93098002  1
  Te  Te159  1  0.27182078  0.72933144  0.26306696  1
  Te  Te160  1  0.24062811  0.79105597  0.58696116  1
  Te  Te161  1  0.27590603  0.74233972  0.91069257  1
  Te  Te162  1  0.57897119  0.09469339  0.24050798  1
  Te  Te163  1  0.59581720  0.06995321  0.55991664  1
  Te  Te164  1  0.56706829  0.06852535  0.89582795  1
  Te  Te165  1  0.60770154  0.41668343  0.23084168  1
  Te  Te166  1  0.59208794  0.41757331  0.59025252  1
  Te  Te167  1  0.58712710  0.43253186  0.94097936  1
  Te  Te168  1  0.55290719  0.72553332  0.25509374  1
  Te  Te169  1  0.58320677  0.75917256  0.59801385  1
  Te  Te170  1  0.57602954  0.74360891  0.93431658  1
  Te  Te171  1  0.90348812  0.07879537  0.24635219  1
  Te  Te172  1  0.94827632  0.08583564  0.58139056  1
  Te  Te173  1  0.90301048  0.08676953  0.91269146  1
  Te  Te174  1  0.92736432  0.44180167  0.24079660  1
  Te  Te175  1  0.94025198  0.42524803  0.57908329  1
  Te  Te176  1  0.90069717  0.42238350  0.93306177  1
  Te  Te177  1  0.91398941  0.76764714  0.25205279  1
  Te  Te178  1  0.92721905  0.75267717  0.58797678  1
  Te  Te179  1  0.91934526  0.73566449  0.93329348  1
