# generated using pymatgen
data_In2Te3
_symmetry_space_group_name_H-M   'P 1'
_cell_length_a   18.96374723
_cell_length_b   18.95779146
_cell_length_c   18.97045830
_cell_angle_alpha   90.01705771
_cell_angle_beta   90.09814431
_cell_angle_gamma   89.99733943
_symmetry_Int_Tables_number   1
_chemical_formula_structural   In2Te3
_chemical_formula_sum   'In72 Te108'
_cell_volume   6820.07366644
_cell_formula_units_Z   36
loop_
 _symmetry_equiv_pos_site_id
 _symmetry_equiv_pos_as_xyz
  1  'x, y, z'
loop_
 _atom_site_type_symbol
 _atom_site_label
 _atom_site_symmetry_multiplicity
 _atom_site_fract_x
 _atom_site_fract_y
 _atom_site_fract_z
 _atom_site_occupancy
  In  In0  1  0.18221539  0.82712889  -0.00990911  1
  In  In1  1  0.01092819  0.31295208  0.66520898  1
  In  In2  1  0.34422317  0.62484450  -0.01100384  1
  In  In3  1  0.50143888  0.68477189  0.17925172  1
  In  In4  1  0.64128124  0.34502685  0.71340964  1
  In  In5  1  0.18371972  0.62468160  0.81716922  1
  In  In6  1  0.13838035  0.53821202  0.33793142  1
  In  In7  1  0.63750107  0.15554892  0.50223574  1
  In  In8  1  0.32349603  0.83885575  0.18386537  1
  In  In9  1  0.34434517  0.16833612  0.50588910  1
  In  In10  1  -0.00315089  0.67608369  0.66333326  1
  In  In11  1  0.34847233  0.68691599  0.35875764  1
  In  In12  1  0.84097924  0.51692472  0.01335694  1
  In  In13  1  0.81146255  0.15498966  0.00662038  1
  In  In14  1  -0.00875539  0.67576154  0.01739969  1
  In  In15  1  0.64190338  -0.00638130  0.32787901  1
  In  In16  1  0.82596065  0.83622742  0.34339859  1
  In  In17  1  0.17328875  0.84603691  0.33923922  1
  In  In18  1  0.62684434  0.83931587  0.50196441  1
  In  In19  1  0.67238287  0.65992047  0.64337272  1
  In  In20  1  0.16297131  -0.02367171  0.49699066  1
  In  In21  1  0.65304284  0.00513344  0.00087889  1
  In  In22  1  0.69108084  0.84051143  0.15159425  1
  In  In23  1  0.47871773  0.83470366  -0.03073337  1
  In  In24  1  0.84350166  0.84324735  0.66576892  1
  In  In25  1  0.49924612  0.16863771  -0.00237048  1
  In  In26  1  -0.00400308  0.00583871  0.30671203  1
  In  In27  1  0.03220272  0.31866349  0.35688034  1
  In  In28  1  0.20287350  0.47689679  0.64204563  1
  In  In29  1  0.33589756  0.49497329  0.78855932  1
  In  In30  1  0.85953031  0.50669131  0.33296442  1
  In  In31  1  0.65197063  0.50080447  0.52284028  1
  In  In32  1  0.20181141  0.17506313  0.26679947  1
  In  In33  1  0.18611173  0.15631111  0.66008918  1
  In  In34  1  0.85753991  0.67635669  0.85349827  1
  In  In35  1  0.18198205  0.68202486  0.49690480  1
  In  In36  1  0.32931970  0.47703961  0.17892790  1
  In  In37  1  0.83413408  0.35293110  0.16241077  1
  In  In38  1  0.00390637  0.33988634  -0.00291464  1
  In  In39  1  0.85325426  0.16150430  0.31045310  1
  In  In40  1  0.35318974  0.80682220  0.78808189  1
  In  In41  1  0.81886719  0.16068827  0.68803732  1
  In  In42  1  0.15865904  0.81629799  0.65473217  1
  In  In43  1  0.59246899  0.00093803  0.63958282  1
  In  In44  1  0.35163115  0.15682368  0.81050816  1
  In  In45  1  0.50005164  0.49278588  0.65752117  1
  In  In46  1  0.02167919  0.86522926  0.83326014  1
  In  In47  1  0.51008096  0.49205451  0.35456014  1
  In  In48  1  0.66843400  0.68880866  0.01877319  1
  In  In49  1  0.65681977  0.49559262  0.17085005  1
  In  In50  1  0.64923766  0.31282441  0.35269986  1
  In  In51  1  0.89473765  0.65569301  0.18018421  1
  In  In52  1  0.14437194  0.32437629  0.84732820  1
  In  In53  1  0.67441708  0.64465448  0.35534628  1
  In  In54  1  -0.00009486  0.85661494  0.14907923  1
  In  In55  1  0.18491423  0.02312972  0.82974479  1
  In  In56  1  0.50942106  0.82334657  0.36332225  1
  In  In57  1  -0.01808928  0.15729126  0.84607118  1
  In  In58  1  0.00976000  0.16839122  0.51193572  1
  In  In59  1  0.17105631  0.47444399  0.02770421  1
  In  In60  1  0.50677690  0.45122105  -0.06350592  1
  In  In61  1  0.48847196  0.01781900  0.16379079  1
  In  In62  1  0.82481711  0.01050315  0.50255780  1
  In  In63  1  0.33692277  0.32817450  0.33588943  1
  In  In64  1  -0.00197897  0.51078425  0.84056474  1
  In  In65  1  0.66076869  0.83950205  0.82926885  1
  In  In66  1  -0.01191616  0.50282011  0.50491403  1
  In  In67  1  0.46566314  0.30620274  0.14449271  1
  In  In68  1  0.65278311  0.14888013  0.84354971  1
  In  In69  1  0.31719810  0.31251804  -0.00881798  1
  In  In70  1  0.81623338  0.00977762  0.85768828  1
  In  In71  1  0.80738206  0.34921190  0.50192054  1
  Te  Te72  1  0.17109629  0.12547464  0.12408795  1
  Te  Te73  1  0.07805450  0.07588159  0.41641950  1
  Te  Te74  1  0.07719562  0.09285999  0.74716852  1
  Te  Te75  1  0.10680635  0.36576055  0.10375333  1
  Te  Te76  1  0.09953124  0.42529106  0.43880026  1
  Te  Te77  1  0.08487154  0.42699329  0.74589024  1
  Te  Te78  1  0.09878731  0.75067966  0.09125408  1
  Te  Te79  1  0.08717233  0.75293702  0.41237919  1
  Te  Te80  1  0.07893363  0.73467140  0.78000358  1
  Te  Te81  1  0.39671578  0.09243486  0.07564200  1
  Te  Te82  1  0.45127652  0.09396464  0.43498974  1
  Te  Te83  1  0.38925253  0.06404920  0.70061079  1
  Te  Te84  1  0.41201234  0.42838577  0.05914398  1
  Te  Te85  1  0.41731078  0.40968050  0.43375507  1
  Te  Te86  1  0.41347845  0.38771752  0.72173142  1
  Te  Te87  1  0.40627450  0.73992086  0.07457770  1
  Te  Te88  1  0.40347247  0.78187836  0.45821719  1
  Te  Te89  1  0.44261506  0.71534665  0.71454183  1
  Te  Te90  1  0.70958452  0.09899809  0.09881020  1
  Te  Te91  1  0.74478587  0.09434259  0.40365134  1
  Te  Te92  1  0.72504204  0.05503547  0.74334136  1
  Te  Te93  1  0.73560656  0.41895865  0.06680763  1
  Te  Te94  1  0.73393694  0.43350080  0.39675357  1
  Te  Te95  1  0.71649043  0.47031384  0.73621937  1
  Te  Te96  1  0.78839922  0.74027469  0.09578543  1
  Te  Te97  1  0.73864637  0.75486740  0.43668463  1
  Te  Te98  1  0.76026233  0.74783231  0.75210213  1
  Te  Te99  1  0.05944178  0.21934604  0.25344692  1
  Te  Te100  1  0.11578033  0.25959128  0.57124806  1
  Te  Te101  1  0.08458936  0.22133333  0.93843554  1
  Te  Te102  1  0.04325484  0.58631763  0.23712670  1
  Te  Te103  1  0.09291744  0.58265278  0.59144974  1
  Te  Te104  1  0.09055238  0.58062833  0.93844508  1
  Te  Te105  1  0.10257006  0.93271819  0.23033317  1
  Te  Te106  1  0.06934687  0.91176021  0.59065936  1
  Te  Te107  1  0.09999537  0.94375019  0.93497140  1
  Te  Te108  1  0.41113141  0.22950771  0.25460765  1
  Te  Te109  1  0.36916770  0.27797154  0.60439791  1
  Te  Te110  1  0.42383306  0.26147156  0.90155161  1
  Te  Te111  1  0.42249149  0.58128775  0.25750478  1
  Te  Te112  1  0.41372553  0.60301419  0.61014338  1
  Te  Te113  1  0.43472662  0.57226680  0.87926777  1
  Te  Te114  1  0.43806721  0.90614730  0.25489746  1
  Te  Te115  1  0.45370281  0.93979494  0.63260344  1
  Te  Te116  1  0.38506321  0.91099447  0.88765442  1
  Te  Te117  1  0.75310412  0.26085386  0.25308203  1
  Te  Te118  1  0.74172479  0.23769590  0.58181674  1
  Te  Te119  1  0.75503444  0.23726562  0.89931498  1
  Te  Te120  1  0.75987854  0.58864337  0.23455624  1
  Te  Te121  1  0.76705293  0.58224066  0.56277161  1
  Te  Te122  1  0.74908496  0.59724842  0.92415677  1
  Te  Te123  1  0.75903987  0.93449187  0.24934132  1
  Te  Te124  1  0.73259836  0.92031919  0.58262206  1
  Te  Te125  1  0.74605204  0.90210218  0.93828113  1
  Te  Te126  1  0.24163042  0.26592831  0.10777512  1
  Te  Te127  1  0.24662869  0.22678157  0.40646242  1
  Te  Te128  1  0.24404827  0.25737003  0.75740670  1
  Te  Te129  1  0.24958227  0.58195468  0.10061977  1
  Te  Te130  1  0.26432074  0.57958620  0.42297568  1
  Te  Te131  1  0.27423721  0.60595543  0.69578845  1
  Te  Te132  1  0.26468394  0.91576126  0.07418170  1
  Te  Te133  1  0.26468035  0.94475589  0.39617522  1
  Te  Te134  1  0.23705401  0.90244975  0.75158123  1
  Te  Te135  1  0.58183433  0.26935821  0.06534143  1
  Te  Te136  1  0.54256233  0.22373252  0.40641119  1
  Te  Te137  1  0.56306405  0.22252197  0.74896041  1
  Te  Te138  1  0.57274067  0.58848315  0.08410366  1
  Te  Te139  1  0.56138666  0.60278073  0.44420352  1
  Te  Te140  1  0.60166260  0.57045384  0.74222044  1
  Te  Te141  1  0.56833636  0.89860338  0.08237966  1
  Te  Te142  1  0.54514127  0.95918342  0.43921120  1
  Te  Te143  1  0.55401432  0.91555843  0.75857871  1
  Te  Te144  1  0.90823812  0.25316289  0.07698550  1
  Te  Te145  1  0.90553208  0.25033824  0.43077417  1
  Te  Te146  1  0.90704455  0.26052282  0.76286422  1
  Te  Te147  1  0.96241488  0.54203514  0.10240952  1
  Te  Te148  1  0.91721918  0.60326893  0.42501494  1
  Te  Te149  1  0.90678462  0.58275686  0.74385099  1
  Te  Te150  1  0.89161520  0.94729704  0.11440248  1
  Te  Te151  1  0.92001449  0.93019337  0.41709084  1
  Te  Te152  1  0.91244598  0.93951889  0.75984022  1
  Te  Te153  1  0.28090538  0.06453515  0.20597877  1
  Te  Te154  1  0.26607857  0.05375532  0.58409278  1
  Te  Te155  1  0.26561510  0.10702871  0.91901719  1
  Te  Te156  1  0.23072425  0.42668980  0.27798413  1
  Te  Te157  1  0.29927355  0.40590642  0.55574882  1
  Te  Te158  1  0.24984255  0.42801552  0.90444617  1
  Te  Te159  1  0.24690959  0.73317383  0.25816548  1
  Te  Te160  1  0.26904651  0.78433293  0.56167673  1
  Te  Te161  1  0.26679576  0.72316767  0.90124690  1
  Te  Te162  1  0.59664296  0.09470438  0.22944912  1
  Te  Te163  1  0.53961625  0.13940290  0.61545551  1
  Te  Te164  1  0.54871741  0.05678121  0.90574246  1
  Te  Te165  1  0.56668465  0.39985520  0.24691697  1
  Te  Te166  1  0.57929088  0.38325067  0.57723312  1
  Te  Te167  1  0.61910857  0.39883075  0.85834728  1
  Te  Te168  1  0.60955348  0.75506779  0.26131830  1
  Te  Te169  1  0.56429414  0.75732038  0.60987597  1
  Te  Te170  1  0.57667689  0.73812018  0.90601053  1
  Te  Te171  1  0.91168451  0.07512219  0.20141151  1
  Te  Te172  1  0.91660237  0.08525749  0.59805141  1
  Te  Te173  1  0.92260396  0.06516425  0.95069235  1
  Te  Te174  1  0.93731391  0.39944260  0.26407371  1
  Te  Te175  1  0.91119890  0.40776565  0.59571848  1
  Te  Te176  1  0.90260451  0.41985474  0.91266784  1
  Te  Te177  1  0.93807749  0.77306423  0.26327787  1
  Te  Te178  1  0.92914428  0.76965339  0.57376162  1
  Te  Te179  1  0.93112599  0.78436815  0.93024778  1
