# generated using pymatgen
data_In2Te3
_symmetry_space_group_name_H-M   'P 1'
_cell_length_a   18.77679608
_cell_length_b   18.77068419
_cell_length_c   18.76454555
_cell_angle_alpha   89.92495390
_cell_angle_beta   89.89990299
_cell_angle_gamma   90.05736244
_symmetry_Int_Tables_number   1
_chemical_formula_structural   In2Te3
_chemical_formula_sum   'In72 Te108'
_cell_volume   6613.60708022
_cell_formula_units_Z   36
loop_
 _symmetry_equiv_pos_site_id
 _symmetry_equiv_pos_as_xyz
  1  'x, y, z'
loop_
 _atom_site_type_symbol
 _atom_site_label
 _atom_site_symmetry_multiplicity
 _atom_site_fract_x
 _atom_site_fract_y
 _atom_site_fract_z
 _atom_site_occupancy
  In  In0  1  0.48321290  0.51980238  -0.02547469  1
  In  In1  1  0.31256124  0.18555537  0.16551125  1
  In  In2  1  0.68799736  0.15419948  0.15652631  1
  In  In3  1  0.48775759  0.50976790  0.34808170  1
  In  In4  1  0.85918466  0.48503563  -0.01353297  1
  In  In5  1  0.00884404  0.65081537  0.31826593  1
  In  In6  1  0.67634083  0.32878621  0.65957679  1
  In  In7  1  0.52291017  -0.01891809  0.83438730  1
  In  In8  1  0.32971652  0.66193161  0.34865613  1
  In  In9  1  0.16027628  0.80438966  0.64923501  1
  In  In10  1  0.84358358  0.34948867  0.18661471  1
  In  In11  1  0.50095957  -0.01729878  0.51628792  1
  In  In12  1  0.67855457  -0.00764790  0.66769654  1
  In  In13  1  0.15311261  -0.02230655  0.17093619  1
  In  In14  1  0.85421494  0.50648584  0.66813136  1
  In  In15  1  0.66842681  0.67420706  0.66888072  1
  In  In16  1  0.48656891  -0.02930455  0.16113743  1
  In  In17  1  0.49625360  0.16810399  -0.04212087  1
  In  In18  1  0.52277264  0.16301619  0.68104939  1
  In  In19  1  0.33082869  0.35340227  0.66763656  1
  In  In20  1  0.66479144  0.51037939  0.18943476  1
  In  In21  1  0.17752770  0.83079993  0.33918737  1
  In  In22  1  0.82966939  0.83042901  -0.02143710  1
  In  In23  1  0.36997489  0.00305442  -0.00692254  1
  In  In24  1  0.65220856  0.84455089  0.16805807  1
  In  In25  1  0.01752824  0.00041416  0.00684881  1
  In  In26  1  -0.00309683  0.18538581  0.49857953  1
  In  In27  1  0.16479975  0.17448467  0.00548809  1
  In  In28  1  0.83572180  0.66415429  0.82312344  1
  In  In29  1  0.32101934  0.18040857  0.47931338  1
  In  In30  1  0.82762653  0.67264222  0.50288466  1
  In  In31  1  0.33081095  -0.00810831  0.65174930  1
  In  In32  1  0.83489306  0.64249957  0.17744956  1
  In  In33  1  0.82743098  0.00104760  0.50695699  1
  In  In34  1  -0.00585563  0.32617424  0.00222696  1
  In  In35  1  0.49931998  0.66877777  0.50991856  1
  In  In36  1  0.34722727  0.18017830  0.84659548  1
  In  In37  1  0.32283368  -0.00884438  0.35797642  1
  In  In38  1  0.33814970  0.82510518  0.17171090  1
  In  In39  1  -0.03520990  0.19875184  0.80012752  1
  In  In40  1  0.65903767  0.52158623  0.81124280  1
  In  In41  1  -0.00608488  0.65796984  0.65146740  1
  In  In42  1  0.00007906  0.48940375  0.16962236  1
  In  In43  1  0.16370800  -0.01510898  0.82204271  1
  In  In44  1  0.16188922  0.63545413  0.83581959  1
  In  In45  1  0.14176424  0.17740798  0.34045795  1
  In  In46  1  0.85130349  0.17112972  0.34196401  1
  In  In47  1  0.29040259  0.52328630  0.14422328  1
  In  In48  1  0.49980358  0.69028667  0.15331438  1
  In  In49  1  0.16562142  0.33074224  0.17304452  1
  In  In50  1  -0.01867367  -0.01046730  0.66827017  1
  In  In51  1  0.00768706  0.81703920  0.16743111  1
  In  In52  1  0.82818540  0.17651058  -0.00754128  1
  In  In53  1  0.17917016  0.66013362  0.51153593  1
  In  In54  1  0.32843330  0.50884476  0.51743348  1
  In  In55  1  -0.02119015  0.84157521  0.50520798  1
  In  In56  1  0.16011014  0.37419273  0.81935404  1
  In  In57  1  0.65295199  0.69416921  -0.01998497  1
  In  In58  1  0.68815740  0.66122261  0.33984014  1
  In  In59  1  0.50095568  0.34548395  0.51904245  1
  In  In60  1  0.49830765  0.80533166  -0.02623167  1
  In  In61  1  0.83175199  0.02484966  0.17778093  1
  In  In62  1  0.66654890  -0.00695254  0.35165778  1
  In  In63  1  0.17054100  0.81838796  -0.01721145  1
  In  In64  1  0.51633817  0.18969311  0.32499309  1
  In  In65  1  0.02337004  0.48218499  0.50899702  1
  In  In66  1  0.33134741  0.50479144  0.81384267  1
  In  In67  1  0.15911229  0.17187502  0.64566184  1
  In  In68  1  0.69316009  0.35391381  0.37845999  1
  In  In69  1  0.82458709  -0.00236808  0.82608150  1
  In  In70  1  0.67675030  0.32484917  -0.02072040  1
  In  In71  1  0.48383902  0.33209186  0.16352372  1
  Te  Te72  1  0.08006652  0.09775304  0.10682578  1
  Te  Te73  1  0.07910896  0.08034109  0.43146846  1
  Te  Te74  1  0.07686251  0.08886936  0.75026164  1
  Te  Te75  1  0.09277211  0.42003555  0.06800889  1
  Te  Te76  1  0.12286172  0.40044726  0.43432803  1
  Te  Te77  1  0.03849540  0.43462721  0.76396789  1
  Te  Te78  1  0.10574964  0.73720962  0.08997264  1
  Te  Te79  1  0.07673619  0.74265597  0.43044668  1
  Te  Te80  1  0.07083464  0.74084291  0.75303965  1
  Te  Te81  1  0.42443492  0.10401269  0.09502501  1
  Te  Te82  1  0.42944329  0.09066141  0.41185954  1
  Te  Te83  1  0.41145598  0.07485396  0.75531372  1
  Te  Te84  1  0.41089683  0.44016042  0.08444570  1
  Te  Te85  1  0.40174341  0.40921874  0.42272192  1
  Te  Te86  1  0.43333772  0.41573685  0.75069695  1
  Te  Te87  1  0.38935059  0.73523324  0.05991165  1
  Te  Te88  1  0.41916002  0.75422755  0.41714135  1
  Te  Te89  1  0.43930848  0.73780859  0.79853684  1
  Te  Te90  1  0.74811005  0.05914732  0.05442709  1
  Te  Te91  1  0.74313198  0.10210177  0.42472183  1
  Te  Te92  1  0.75569787  0.09775067  0.73999946  1
  Te  Te93  1  0.74914610  0.42076616  0.08726080  1
  Te  Te94  1  0.75911993  0.46726186  0.43951002  1
  Te  Te95  1  0.76054698  0.42388511  0.75690155  1
  Te  Te96  1  0.74714013  0.74225269  0.09832496  1
  Te  Te97  1  0.75199664  0.76800025  0.41886486  1
  Te  Te98  1  0.74278114  0.76374018  0.76488136  1
  Te  Te99  1  0.05918283  0.26283063  0.25161720  1
  Te  Te100  1  0.07183307  0.27739594  0.59194746  1
  Te  Te101  1  0.08297007  0.24794144  0.90019803  1
  Te  Te102  1  0.10398245  0.56617352  0.24479024  1
  Te  Te103  1  0.10721851  0.56411262  0.60997154  1
  Te  Te104  1  0.09647100  0.56153310  0.94682272  1
  Te  Te105  1  0.06501494  0.91271633  0.27575780  1
  Te  Te106  1  0.08592941  0.92126546  0.58086078  1
  Te  Te107  1  0.06630457  0.89919179  0.90366551  1
  Te  Te108  1  0.39409630  0.26439023  0.26888729  1
  Te  Te109  1  0.40966697  0.23468826  0.59097317  1
  Te  Te110  1  0.41822997  0.28644119  0.92038731  1
  Te  Te111  1  0.41761761  0.58742583  0.23652157  1
  Te  Te112  1  0.41779696  0.58692124  0.60612936  1
  Te  Te113  1  0.40480292  0.62025863  0.89191792  1
  Te  Te114  1  0.41948029  0.89928402  0.27689621  1
  Te  Te115  1  0.42577793  0.88661588  0.60415849  1
  Te  Te116  1  0.40290696  0.89943561  0.89093242  1
  Te  Te117  1  0.73714905  0.25896590  0.25682966  1
  Te  Te118  1  0.77614854  0.23064039  0.60724083  1
  Te  Te119  1  0.75811569  0.24756245  0.88374287  1
  Te  Te120  1  0.78138243  0.54530020  0.28496476  1
  Te  Te121  1  0.74482601  0.56780130  0.57898168  1
  Te  Te122  1  0.74996749  0.57863272  0.92969018  1
  Te  Te123  1  0.75636882  0.91531660  0.25430226  1
  Te  Te124  1  0.75081569  0.89703421  0.57967659  1
  Te  Te125  1  0.73156063  0.90029867  0.89374983  1
  Te  Te126  1  0.26333730  0.27730103  0.05634783  1
  Te  Te127  1  0.22069126  0.27749500  0.42273305  1
  Te  Te128  1  0.24465078  0.24612934  0.75351595  1
  Te  Te129  1  0.21617316  0.59523035  0.03714404  1
  Te  Te130  1  0.23176593  0.56266601  0.40646216  1
  Te  Te131  1  0.24418382  0.58455115  0.72145897  1
  Te  Te132  1  0.26162416  0.92393686  0.07798744  1
  Te  Te133  1  0.25401279  0.89612331  0.44670952  1
  Te  Te134  1  0.25095668  0.89368773  0.74051586  1
  Te  Te135  1  0.58725295  0.24952895  0.08510438  1
  Te  Te136  1  0.59579090  0.25394116  0.43950091  1
  Te  Te137  1  0.58815814  0.26426050  0.76346980  1
  Te  Te138  1  0.58480985  0.58340147  0.07968730  1
  Te  Te139  1  0.59471160  0.57659013  0.42956534  1
  Te  Te140  1  0.55618309  0.59484883  0.73227865  1
  Te  Te141  1  0.57813502  0.91477414  0.05424207  1
  Te  Te142  1  0.58289637  0.89794142  0.42663432  1
  Te  Te143  1  0.56010595  0.90693995  0.71018840  1
  Te  Te144  1  0.91268409  0.24222265  0.10069736  1
  Te  Te145  1  0.91300905  0.28151680  0.41855966  1
  Te  Te146  1  0.89868632  0.27552937  0.68585738  1
  Te  Te147  1  0.93174246  0.58877223  0.07362855  1
  Te  Te148  1  0.93634273  0.58582359  0.43614846  1
  Te  Te149  1  0.95080941  0.56638818  0.77444220  1
  Te  Te150  1  0.91723120  0.91350014  0.08618986  1
  Te  Te151  1  0.91538442  0.93255778  0.40811948  1
  Te  Te152  1  0.91503270  0.89900847  0.76309566  1
  Te  Te153  1  0.24816720  0.07505796  0.25198621  1
  Te  Te154  1  0.24148155  0.07585017  0.55996647  1
  Te  Te155  1  0.24469144  0.07109343  0.92277893  1
  Te  Te156  1  0.25288698  0.42488889  0.24676237  1
  Te  Te157  1  0.22934742  0.40945182  0.57551233  1
  Te  Te158  1  0.25197563  0.43258363  0.91829395  1
  Te  Te159  1  0.24031113  0.73201617  0.24229418  1
  Te  Te160  1  0.27856485  0.72793154  0.59920446  1
  Te  Te161  1  0.25498409  0.74200606  0.88822062  1
  Te  Te162  1  0.58122054  0.07479029  0.24238360  1
  Te  Te163  1  0.59541784  0.08850901  0.57204669  1
  Te  Te164  1  0.60252535  0.08825299  0.89776199  1
  Te  Te165  1  0.57769686  0.40908602  0.26527652  1
  Te  Te166  1  0.58531585  0.43182857  0.60154544  1
  Te  Te167  1  0.58460858  0.42628858  0.90938174  1
  Te  Te168  1  0.58214842  0.74921238  0.26489594  1
  Te  Te169  1  0.58815673  0.76523907  0.58250915  1
  Te  Te170  1  0.58289503  0.74989382  0.85815145  1
  Te  Te171  1  0.93764532  0.08437520  0.25968047  1
  Te  Te172  1  0.90538956  0.09911688  0.59508725  1
  Te  Te173  1  0.93091012  0.08806999  0.91607532  1
  Te  Te174  1  0.94615779  0.40288706  0.28098655  1
  Te  Te175  1  0.91643828  0.40049166  0.57978788  1
  Te  Te176  1  0.92570779  0.39521846  0.88680145  1
  Te  Te177  1  0.90599433  0.74854221  0.26235402  1
  Te  Te178  1  0.89392403  0.76380147  0.60717073  1
  Te  Te179  1  0.92275414  0.73110045  0.92494578  1
