# generated using pymatgen
data_In2Te3
_symmetry_space_group_name_H-M   'P 1'
_cell_length_a   18.79642918
_cell_length_b   18.79895857
_cell_length_c   18.79002055
_cell_angle_alpha   90.02545282
_cell_angle_beta   89.99760293
_cell_angle_gamma   90.06749024
_symmetry_Int_Tables_number   1
_chemical_formula_structural   In2Te3
_chemical_formula_sum   'In72 Te108'
_cell_volume   6639.51037815
_cell_formula_units_Z   36
loop_
 _symmetry_equiv_pos_site_id
 _symmetry_equiv_pos_as_xyz
  1  'x, y, z'
loop_
 _atom_site_type_symbol
 _atom_site_label
 _atom_site_symmetry_multiplicity
 _atom_site_fract_x
 _atom_site_fract_y
 _atom_site_fract_z
 _atom_site_occupancy
  In  In0  1  0.67409911  -0.02641126  -0.01619383  1
  In  In1  1  0.81957691  0.13507869  -0.00249458  1
  In  In2  1  0.01425611  0.66063283  -0.01046437  1
  In  In3  1  0.17262097  0.34121531  0.82779329  1
  In  In4  1  0.20299068  0.13281129  0.63576807  1
  In  In5  1  0.67131780  0.00477996  0.33978056  1
  In  In6  1  0.49013188  0.16467249  0.66469480  1
  In  In7  1  0.35518314  0.33383404  0.66901632  1
  In  In8  1  0.63959395  0.81779669  0.14642023  1
  In  In9  1  0.35274117  0.33439639  -0.00320435  1
  In  In10  1  0.63743391  0.35929771  -0.00779834  1
  In  In11  1  0.49000769  0.34104105  0.17071714  1
  In  In12  1  0.63774765  0.54512704  0.14817150  1
  In  In13  1  -0.01769373  0.15530558  0.49271464  1
  In  In14  1  0.18811630  0.15399272  0.01693810  1
  In  In15  1  0.81347765  0.32888401  0.17503727  1
  In  In16  1  0.35258998  -0.00328919  0.33760771  1
  In  In17  1  0.82247784  0.51177957  0.68594661  1
  In  In18  1  0.51187389  -0.02112124  0.80781494  1
  In  In19  1  0.32941448  0.81250823  0.81960273  1
  In  In20  1  0.17539794  0.32677671  0.49063553  1
  In  In21  1  0.49507618  0.66521014  0.51715228  1
  In  In22  1  0.49394375  -0.00451235  0.50967301  1
  In  In23  1  0.18193368  -0.02773912  0.14536540  1
  In  In24  1  0.66832492  0.31917154  0.34201132  1
  In  In25  1  0.00662114  0.33091051  0.67524808  1
  In  In26  1  0.82783434  0.49511016  -0.03136584  1
  In  In27  1  0.84326804  0.01281935  0.16649326  1
  In  In28  1  0.33580156  0.17089090  0.17407478  1
  In  In29  1  0.49659306  0.18528319  0.00148647  1
  In  In30  1  0.19208160  0.52084852  -0.01167281  1
  In  In31  1  0.64249485  0.50232574  0.83357403  1
  In  In32  1  0.67174126  0.69889142  0.67477370  1
  In  In33  1  0.48530893  0.50575226  0.33013220  1
  In  In34  1  0.65288350  0.16423296  0.49410073  1
  In  In35  1  0.34124186  0.51168059  0.50315151  1
  In  In36  1  0.00541880  0.83826392  0.82772606  1
  In  In37  1  -0.00430662  0.34591162  0.02429182  1
  In  In38  1  0.17466919  0.66386347  0.17217190  1
  In  In39  1  0.33473154  0.51717360  0.15387910  1
  In  In40  1  0.82664831  0.84152095  0.34596996  1
  In  In41  1  0.62258669  0.47256032  0.53425960  1
  In  In42  1  0.34760796  0.83062830  0.51590163  1
  In  In43  1  0.01707937  0.47670969  0.49566207  1
  In  In44  1  0.79300740  0.68060842  0.14777106  1
  In  In45  1  0.00837830  0.67891536  0.34574316  1
  In  In46  1  0.79963681  0.15340743  0.66252235  1
  In  In47  1  0.00376184  0.16559888  0.19830124  1
  In  In48  1  0.50959424  -0.00275156  0.19262288  1
  In  In49  1  0.82232198  0.82386525  0.68270171  1
  In  In50  1  0.32589150  -0.01885268  -0.01127991  1
  In  In51  1  0.81986970  0.68835550  0.49836335  1
  In  In52  1  0.81076791  0.69593990  0.80688271  1
  In  In53  1  0.15533956  0.85809264  0.63662325  1
  In  In54  1  0.83137579  0.31115863  0.48779088  1
  In  In55  1  0.83214607  0.49760734  0.31699397  1
  In  In56  1  0.01842414  0.15204312  0.83769551  1
  In  In57  1  0.65489600  0.16506037  0.81412736  1
  In  In58  1  0.32785454  0.33883961  0.34278221  1
  In  In59  1  0.00092784  0.50697722  0.16554380  1
  In  In60  1  0.17740466  0.84215419  0.32968720  1
  In  In61  1  0.49016964  0.83200300  0.32655424  1
  In  In62  1  0.00209561  0.67473700  0.66503873  1
  In  In63  1  0.15007831  0.15796243  0.35336959  1
  In  In64  1  0.20616694  0.53499594  0.69428112  1
  In  In65  1  0.19366675  0.66521962  0.48558300  1
  In  In66  1  -0.00795468  -0.01514772  -0.01655697  1
  In  In67  1  0.82739171  -0.02090051  0.51256784  1
  In  In68  1  0.17076082  0.00421511  0.83689115  1
  In  In69  1  -0.00332258  0.84252917  0.17333774  1
  In  In70  1  0.83587994  0.33997221  0.84721773  1
  In  In71  1  0.49778996  0.68133453  0.84316497  1
  Te  Te72  1  0.07148313  0.07641612  0.07890634  1
  Te  Te73  1  0.09117268  0.05868292  0.44963758  1
  Te  Te74  1  0.08939866  0.07454169  0.72865321  1
  Te  Te75  1  0.10583290  0.43123743  0.08474104  1
  Te  Te76  1  0.09808141  0.40825472  0.39470919  1
  Te  Te77  1  0.09088160  0.43756153  0.74203408  1
  Te  Te78  1  0.08642200  0.75500313  0.08592901  1
  Te  Te79  1  0.09199686  0.76795465  0.43448934  1
  Te  Te80  1  0.10272356  0.75619341  0.74377439  1
  Te  Te81  1  0.41317982  0.07831651  0.08099822  1
  Te  Te82  1  0.44474998  0.08937518  0.40549288  1
  Te  Te83  1  0.41281552  0.07356123  0.75394909  1
  Te  Te84  1  0.43643191  0.44005646  0.06918492  1
  Te  Te85  1  0.42957553  0.40776111  0.43450324  1
  Te  Te86  1  0.43501555  0.44009035  0.73699906  1
  Te  Te87  1  0.49077100  0.71315132  0.11236523  1
  Te  Te88  1  0.40619059  0.73665548  0.41253217  1
  Te  Te89  1  0.43992862  0.76426280  0.73311234  1
  Te  Te90  1  0.72187252  0.07340236  0.09575835  1
  Te  Te91  1  0.76622033  0.08975053  0.42433688  1
  Te  Te92  1  0.74168506  0.05985941  0.75999654  1
  Te  Te93  1  0.74572004  0.43314330  0.08537990  1
  Te  Te94  1  0.75016065  0.42792290  0.42683576  1
  Te  Te95  1  0.73571153  0.40745869  0.75368861  1
  Te  Te96  1  0.73254683  0.76322397  0.04030353  1
  Te  Te97  1  0.72581392  0.75324041  0.40662721  1
  Te  Te98  1  0.68657451  0.79865531  0.80960865  1
  Te  Te99  1  0.11090394  0.25250710  0.24704629  1
  Te  Te100  1  0.08655428  0.23879635  0.58409471  1
  Te  Te101  1  0.08921565  0.25285779  0.92877929  1
  Te  Te102  1  0.09079180  0.57787872  0.26692377  1
  Te  Te103  1  0.09080503  0.58404928  0.57740142  1
  Te  Te104  1  0.09591018  0.58378966  0.89465883  1
  Te  Te105  1  0.08125829  0.93634511  0.25763568  1
  Te  Te106  1  0.07017793  0.93543878  0.54541880  1
  Te  Te107  1  0.10611728  0.90121998  0.92815877  1
  Te  Te108  1  0.42748699  0.24454987  0.26986579  1
  Te  Te109  1  0.40273080  0.23756682  0.56847549  1
  Te  Te110  1  0.41627084  0.24800500  0.89554737  1
  Te  Te111  1  0.42467600  0.60480445  0.23720627  1
  Te  Te112  1  0.40898142  0.58746336  0.61047380  1
  Te  Te113  1  0.39266626  0.59678708  0.90583271  1
  Te  Te114  1  0.39593994  0.90012159  0.22737238  1
  Te  Te115  1  0.40198269  0.93437234  0.61278789  1
  Te  Te116  1  0.42425902  0.89923824  0.90685508  1
  Te  Te117  1  0.75283532  0.22811982  0.26255545  1
  Te  Te118  1  0.72956346  0.26523031  0.59045870  1
  Te  Te119  1  0.74144912  0.25320055  0.93116474  1
  Te  Te120  1  0.73233447  0.59773411  0.26100968  1
  Te  Te121  1  0.73866635  0.58651696  0.58316974  1
  Te  Te122  1  0.73790290  0.59811632  0.90522258  1
  Te  Te123  1  0.74012425  0.90836963  0.23598372  1
  Te  Te124  1  0.72938010  0.89849121  0.59181937  1
  Te  Te125  1  0.76717063  0.88630646  0.90988570  1
  Te  Te126  1  0.25234518  0.26957808  0.09271535  1
  Te  Te127  1  0.26686004  0.22244366  0.42676961  1
  Te  Te128  1  0.24515693  0.24293678  0.73854656  1
  Te  Te129  1  0.27629513  0.62814105  0.06143350  1
  Te  Te130  1  0.25898675  0.56979128  0.39493807  1
  Te  Te131  1  0.28870924  0.61882175  0.79703696  1
  Te  Te132  1  0.26676368  0.87554010  0.07369168  1
  Te  Te133  1  0.25747564  0.93060120  0.43857019  1
  Te  Te134  1  0.25030900  0.92047108  0.74000971  1
  Te  Te135  1  0.59339343  0.25506607  0.09692532  1
  Te  Te136  1  0.56815138  0.27205706  0.43944299  1
  Te  Te137  1  0.57495484  0.26524853  0.74107052  1
  Te  Te138  1  0.55956848  0.60129931  0.03329806  1
  Te  Te139  1  0.58105859  0.57532245  0.42765200  1
  Te  Te140  1  0.57612182  0.59704154  0.73519898  1
  Te  Te141  1  0.55649838  0.92130105  0.07029868  1
  Te  Te142  1  0.58342291  0.90879777  0.41970559  1
  Te  Te143  1  0.60909118  0.90092114  0.72491461  1
  Te  Te144  1  0.90766508  0.23419157  0.08066798  1
  Te  Te145  1  0.93690720  0.26024407  0.39970809  1
  Te  Te146  1  0.91192985  0.24111012  0.75611716  1
  Te  Te147  1  0.90140134  0.58430854  0.08006012  1
  Te  Te148  1  0.91560157  0.58223870  0.42389462  1
  Te  Te149  1  0.92187769  0.59238248  0.76528173  1
  Te  Te150  1  0.89908561  0.90451325  0.07371083  1
  Te  Te151  1  0.92908494  0.91251250  0.42472726  1
  Te  Te152  1  0.92249034  0.91859443  0.73669682  1
  Te  Te153  1  0.24284525  0.07302127  0.24643212  1
  Te  Te154  1  0.28371766  0.03223124  0.56298917  1
  Te  Te155  1  0.27087972  0.09899530  0.90399615  1
  Te  Te156  1  0.26149576  0.42499166  0.24398177  1
  Te  Te157  1  0.24087479  0.42216876  0.59164263  1
  Te  Te158  1  0.27649492  0.42569366  0.89910924  1
  Te  Te159  1  0.26286420  0.74665902  0.25814246  1
  Te  Te160  1  0.25572292  0.74303288  0.60002067  1
  Te  Te161  1  0.24733164  0.72108771  0.90306575  1
  Te  Te162  1  0.57858914  0.09981445  0.27204973  1
  Te  Te163  1  0.59406465  0.07122045  0.59732970  1
  Te  Te164  1  0.57744325  0.08153906  0.91843612  1
  Te  Te165  1  0.59461772  0.42431276  0.24709237  1
  Te  Te166  1  0.53466038  0.39474648  0.63629508  1
  Te  Te167  1  0.53920580  0.41360974  0.89584563  1
  Te  Te168  1  0.57589397  0.73142730  0.25258309  1
  Te  Te169  1  0.57597849  0.77098942  0.58658327  1
  Te  Te170  1  0.56334904  0.74387016  0.96634137  1
  Te  Te171  1  0.92251888  0.07132970  0.27589562  1
  Te  Te172  1  0.91280743  0.07391200  0.60112451  1
  Te  Te173  1  0.90278577  0.06524600  0.88947802  1
  Te  Te174  1  0.92831812  0.40059748  0.24871357  1
  Te  Te175  1  0.90694002  0.41737697  0.59432037  1
  Te  Te176  1  0.94854168  0.42696577  0.90366326  1
  Te  Te177  1  0.91018988  0.73580439  0.24324585  1
  Te  Te178  1  0.92185124  0.76864957  0.57736590  1
  Te  Te179  1  0.91577326  0.74773140  0.91193669  1
