# generated using pymatgen
data_In2Te3
_symmetry_space_group_name_H-M   'P 1'
_cell_length_a   18.76145457
_cell_length_b   18.75622756
_cell_length_c   18.75862634
_cell_angle_alpha   90.00098311
_cell_angle_beta   89.94586819
_cell_angle_gamma   89.98114135
_symmetry_Int_Tables_number   1
_chemical_formula_structural   In2Te3
_chemical_formula_sum   'In72 Te108'
_cell_volume   6601.04684014
_cell_formula_units_Z   36
loop_
 _symmetry_equiv_pos_site_id
 _symmetry_equiv_pos_as_xyz
  1  'x, y, z'
loop_
 _atom_site_type_symbol
 _atom_site_label
 _atom_site_symmetry_multiplicity
 _atom_site_fract_x
 _atom_site_fract_y
 _atom_site_fract_z
 _atom_site_occupancy
  In  In0  1  0.32183205  0.65293220  0.33729570  1
  In  In1  1  -0.01738891  0.63548001  0.67840569  1
  In  In2  1  0.66083900  0.49094919  0.18514010  1
  In  In3  1  0.14849010  0.50366155  -0.00349807  1
  In  In4  1  0.80989246  0.34045187  0.81055832  1
  In  In5  1  0.15687346  0.82852976  0.37372255  1
  In  In6  1  0.68479176  0.65870323  -0.00650748  1
  In  In7  1  0.01470953  0.67189147  -0.00578177  1
  In  In8  1  0.65745711  0.84420769  0.50783795  1
  In  In9  1  0.49103339  0.01059829  0.17974395  1
  In  In10  1  0.83989112  0.82434879  -0.00184576  1
  In  In11  1  0.35306751  0.85390038  0.16226989  1
  In  In12  1  0.33806111  0.49775077  0.83062540  1
  In  In13  1  0.01181700  0.31774727  0.65085453  1
  In  In14  1  0.49015689  0.16117066  0.00058593  1
  In  In15  1  0.00198926  0.84226325  0.19744503  1
  In  In16  1  0.00489764  0.00209001  0.63703478  1
  In  In17  1  0.50025821  0.68792705  0.17556681  1
  In  In18  1  0.18110053  0.16977673  0.00624079  1
  In  In19  1  0.46849992  0.32365177  0.51599366  1
  In  In20  1  0.17386794  0.32247442  0.50667719  1
  In  In21  1  0.16879169  0.85694368  0.65796453  1
  In  In22  1  0.84302819  0.32502570  0.51303262  1
  In  In23  1  0.50364390  0.67799286  0.82322968  1
  In  In24  1  -0.00415290  0.15988475  0.82898128  1
  In  In25  1  0.84785962  0.67613686  0.51227975  1
  In  In26  1  0.81288801  0.00680694  0.82344704  1
  In  In27  1  0.50096205  0.01819707  0.50508047  1
  In  In28  1  0.82588949  0.31147600  0.18466464  1
  In  In29  1  0.03482860  0.49312175  0.17272672  1
  In  In30  1  0.16097694  0.48712167  0.65016817  1
  In  In31  1  0.46852712  0.17867641  0.30800077  1
  In  In32  1  0.62427866  0.87016606  0.80393380  1
  In  In33  1  0.50740394  0.47957705  0.35909076  1
  In  In34  1  0.51029037  0.84300184  0.32809345  1
  In  In35  1  0.65526149  0.00349041  0.01890735  1
  In  In36  1  0.49218959  0.48941180  0.65551699  1
  In  In37  1  0.31780281  0.15909484  0.52074771  1
  In  In38  1  -0.00047783  0.30929501  0.35847522  1
  In  In39  1  0.00314194  0.34797361  0.01585878  1
  In  In40  1  0.66726479  0.31386859  0.33705876  1
  In  In41  1  0.63753850  0.31688323  -0.00190357  1
  In  In42  1  0.49955892  0.48900147  -0.01933868  1
  In  In43  1  0.82231183  0.85321759  0.33682076  1
  In  In44  1  0.18099257  0.65327809  0.17497201  1
  In  In45  1  0.48302428  0.86694533  -0.02130598  1
  In  In46  1  0.18859695  0.14329455  0.32127618  1
  In  In47  1  0.83369716  0.00508649  0.50304178  1
  In  In48  1  0.17418637  0.67893214  0.85770816  1
  In  In49  1  0.82754990  0.49020225  -0.02104921  1
  In  In50  1  0.81741489  0.01093020  0.16167844  1
  In  In51  1  0.50489198  0.66601607  0.51170398  1
  In  In52  1  0.02116961  0.00497281  0.35562719  1
  In  In53  1  0.32373037  0.49348967  0.15058361  1
  In  In54  1  0.17495469  0.48444958  0.33815452  1
  In  In55  1  0.85185067  0.51478259  0.34643585  1
  In  In56  1  0.67878611  0.66743421  0.65137785  1
  In  In57  1  0.01162507  0.01623492  -0.01554340  1
  In  In58  1  0.00058136  0.17007333  0.18432560  1
  In  In59  1  0.32644653  0.31529108  0.00449494  1
  In  In60  1  0.34275873  0.68357487  0.66022164  1
  In  In61  1  0.18999248  0.29442831  0.79316116  1
  In  In62  1  0.50599810  0.33765214  0.83161466  1
  In  In63  1  0.20852781  0.83958375  0.01208770  1
  In  In64  1  0.82491140  0.82680295  0.65814006  1
  In  In65  1  0.66584467  0.16567169  0.82760477  1
  In  In66  1  0.84347982  0.67211031  0.15612528  1
  In  In67  1  0.32575291  0.85607627  0.50245975  1
  In  In68  1  0.64809030  0.50539575  0.50619008  1
  In  In69  1  0.67487147  0.16108523  0.51343791  1
  In  In70  1  -0.00498470  0.82034126  0.83908411  1
  In  In71  1  0.18891703  0.00940335  0.82305918  1
  Te  Te72  1  0.09115204  0.08168835  0.09607466  1
  Te  Te73  1  0.08938520  0.11445079  0.43302741  1
  Te  Te74  1  0.09207293  0.08790077  0.73434708  1
  Te  Te75  1  0.12323744  0.39306753  0.10035508  1
  Te  Te76  1  0.07445978  0.41727436  0.43369704  1
  Te  Te77  1  0.08817718  0.40294306  0.75430349  1
  Te  Te78  1  0.09104493  0.76142776  0.09105797  1
  Te  Te79  1  0.06681251  0.71638714  0.39579200  1
  Te  Te80  1  0.09172656  0.74874968  0.74576404  1
  Te  Te81  1  0.39742116  0.07380744  0.08121806  1
  Te  Te82  1  0.40083904  0.08628965  0.41246530  1
  Te  Te83  1  0.40885813  0.03113399  0.77840762  1
  Te  Te84  1  0.42719642  0.40234943  0.08136744  1
  Te  Te85  1  0.39397803  0.41475521  0.42554210  1
  Te  Te86  1  0.40004085  0.39694547  0.73557002  1
  Te  Te87  1  0.41614444  0.75284455  0.06764153  1
  Te  Te88  1  0.41797030  0.75254018  0.41732140  1
  Te  Te89  1  0.41254641  0.77316502  0.75557311  1
  Te  Te90  1  0.74685582  0.10548806  0.07367550  1
  Te  Te91  1  0.74334603  0.07852041  0.41059088  1
  Te  Te92  1  0.74690965  0.09235857  0.72488357  1
  Te  Te93  1  0.74805134  0.41037008  0.08592314  1
  Te  Te94  1  0.74407507  0.42329930  0.41141034  1
  Te  Te95  1  0.76950007  0.45385567  0.72507934  1
  Te  Te96  1  0.73775949  0.76319359  0.09421039  1
  Te  Te97  1  0.74606229  0.75024689  0.42583405  1
  Te  Te98  1  0.73216863  0.76375963  0.75886770  1
  Te  Te99  1  0.09981300  0.25817949  0.25687032  1
  Te  Te100  1  0.07745707  0.21803873  0.55824954  1
  Te  Te101  1  0.08350742  0.25190497  0.91628151  1
  Te  Te102  1  0.07736088  0.60066328  0.27212284  1
  Te  Te103  1  0.08574535  0.59300536  0.58097589  1
  Te  Te104  1  0.06575112  0.57281853  0.88896124  1
  Te  Te105  1  0.11005078  0.92699203  0.25761760  1
  Te  Te106  1  0.09837558  0.92719642  0.54643894  1
  Te  Te107  1  0.09652439  0.90842795  0.91424561  1
  Te  Te108  1  0.37502809  0.26694814  0.23362624  1
  Te  Te109  1  0.42208130  0.21897050  0.61356637  1
  Te  Te110  1  0.40742854  0.24110588  0.89749588  1
  Te  Te111  1  0.42070783  0.57547908  0.24610636  1
  Te  Te112  1  0.39911951  0.57232247  0.56794234  1
  Te  Te113  1  0.41330505  0.59729402  0.91854828  1
  Te  Te114  1  0.40004616  0.93736059  0.28147644  1
  Te  Te115  1  0.42408622  0.92234333  0.59093191  1
  Te  Te116  1  0.38888356  0.96194666  0.91083458  1
  Te  Te117  1  0.74386747  0.21336521  0.25798204  1
  Te  Te118  1  0.73995605  0.26337200  0.59959348  1
  Te  Te119  1  0.75279091  0.25135500  0.92254529  1
  Te  Te120  1  0.75466416  0.59008113  0.25316958  1
  Te  Te121  1  0.76875773  0.56189646  0.58158771  1
  Te  Te122  1  0.74940351  0.57707417  0.88613666  1
  Te  Te123  1  0.73331201  0.91801390  0.23896769  1
  Te  Te124  1  0.73578721  0.93524202  0.60207605  1
  Te  Te125  1  0.74080666  0.91054626  0.91897029  1
  Te  Te126  1  0.27599012  0.22656714  0.11659392  1
  Te  Te127  1  0.26317012  0.24756104  0.40744701  1
  Te  Te128  1  0.27420614  0.20786864  0.69548153  1
  Te  Te129  1  0.25613202  0.59546447  0.05599007  1
  Te  Te130  1  0.24169851  0.57633354  0.43338396  1
  Te  Te131  1  0.24862556  0.58997966  0.74815643  1
  Te  Te132  1  0.26389575  0.95628365  0.09164161  1
  Te  Te133  1  0.23087255  0.94512758  0.42932464  1
  Te  Te134  1  0.27729947  0.92027714  0.73971466  1
  Te  Te135  1  0.57596606  0.23151729  0.10095058  1
  Te  Te136  1  0.56371212  0.24081627  0.42500383  1
  Te  Te137  1  0.58711041  0.25624667  0.73925852  1
  Te  Te138  1  0.58407489  0.57858011  0.08038690  1
  Te  Te139  1  0.58979645  0.60101199  0.40204073  1
  Te  Te140  1  0.58330736  0.58014942  0.73740712  1
  Te  Te141  1  0.57042516  0.90577079  0.09898006  1
  Te  Te142  1  0.59512295  0.94162622  0.40848832  1
  Te  Te143  1  0.54169552  0.97120298  0.72630400  1
  Te  Te144  1  0.91446951  0.24132825  0.07953484  1
  Te  Te145  1  0.89405075  0.22476317  0.41518257  1
  Te  Te146  1  0.90826406  0.24349897  0.73786968  1
  Te  Te147  1  0.92880721  0.56827209  0.08141572  1
  Te  Te148  1  0.94533823  0.59475260  0.43102272  1
  Te  Te149  1  0.87623731  0.56514180  0.75400853  1
  Te  Te150  1  0.92928676  0.91755286  0.07943894  1
  Te  Te151  1  0.92910983  0.90813141  0.43089330  1
  Te  Te152  1  0.92440981  0.92388379  0.75207697  1
  Te  Te153  1  0.25626619  0.06122380  0.21842797  1
  Te  Te154  1  0.24176375  0.08028862  0.62303639  1
  Te  Te155  1  0.27198129  0.09936702  0.90838323  1
  Te  Te156  1  0.27143972  0.40180362  0.25734304  1
  Te  Te157  1  0.26561818  0.39860753  0.59544888  1
  Te  Te158  1  0.24236887  0.40878997  0.91095453  1
  Te  Te159  1  0.25729471  0.76327490  0.24935515  1
  Te  Te160  1  0.23870382  0.74943168  0.56975454  1
  Te  Te161  1  0.27928507  0.77405749  0.89978289  1
  Te  Te162  1  0.58399332  0.10500917  0.24753147  1
  Te  Te163  1  0.58107962  0.09031055  0.61000808  1
  Te  Te164  1  0.57514340  0.07215127  0.90906676  1
  Te  Te165  1  0.56586088  0.39066167  0.24849207  1
  Te  Te166  1  0.58939139  0.39298000  0.58807353  1
  Te  Te167  1  0.61000442  0.42970978  0.89604777  1
  Te  Te168  1  0.60295275  0.74892824  0.26058286  1
  Te  Te169  1  0.56837216  0.76685049  0.60518186  1
  Te  Te170  1  0.58893043  0.75943804  0.92352528  1
  Te  Te171  1  0.91764465  0.07049757  0.26350993  1
  Te  Te172  1  0.91376934  0.10354869  0.58135929  1
  Te  Te173  1  0.89533377  0.09168939  0.92304030  1
  Te  Te174  1  0.92391015  0.41342895  0.24807872  1
  Te  Te175  1  0.93507053  0.42075619  0.57698831  1
  Te  Te176  1  0.92500391  0.40499352  0.89894100  1
  Te  Te177  1  0.91359418  0.74450029  0.27122235  1
  Te  Te178  1  0.94464897  0.76269009  0.59352169  1
  Te  Te179  1  0.89948723  0.72080167  0.90315399  1
