# generated using pymatgen
data_In2Te3
_symmetry_space_group_name_H-M   'P 1'
_cell_length_a   18.75808857
_cell_length_b   18.75159386
_cell_length_c   18.75125621
_cell_angle_alpha   89.97764596
_cell_angle_beta   89.96916619
_cell_angle_gamma   89.97891738
_symmetry_Int_Tables_number   1
_chemical_formula_structural   In2Te3
_chemical_formula_sum   'In72 Te108'
_cell_volume   6595.64105526
_cell_formula_units_Z   36
loop_
 _symmetry_equiv_pos_site_id
 _symmetry_equiv_pos_as_xyz
  1  'x, y, z'
loop_
 _atom_site_type_symbol
 _atom_site_label
 _atom_site_symmetry_multiplicity
 _atom_site_fract_x
 _atom_site_fract_y
 _atom_site_fract_z
 _atom_site_occupancy
  In  In0  1  0.34729172  0.17014097  0.49625131  1
  In  In1  1  0.00131662  0.49207536  0.18595795  1
  In  In2  1  0.30613838  0.49619811  0.83733037  1
  In  In3  1  0.33873562  0.35225928  0.02436066  1
  In  In4  1  0.66068698  0.32489605  0.64488970  1
  In  In5  1  0.65601144  0.82909289  0.48207845  1
  In  In6  1  0.32585898  0.16010803  0.16799209  1
  In  In7  1  0.14343659  0.66557139  0.50127640  1
  In  In8  1  0.47999757  0.16848026  0.66635807  1
  In  In9  1  0.67971594  0.66910690  0.32241363  1
  In  In10  1  0.49387636  0.67250982  0.85487117  1
  In  In11  1  0.14106920  0.35309121  0.48538060  1
  In  In12  1  0.66245396  0.65422127  0.00049692  1
  In  In13  1  0.85483831  0.18629258  0.35450025  1
  In  In14  1  0.15881533  0.65777387  0.16560371  1
  In  In15  1  0.52171562  0.48681757  0.67133227  1
  In  In16  1  0.33386753  0.67350070  0.34338216  1
  In  In17  1  0.16497147  0.50160703  -0.01519996  1
  In  In18  1  0.49204085  0.67206765  0.16348990  1
  In  In19  1  0.67037785  0.34539192  0.35826870  1
  In  In20  1  0.67859685  0.14698498  0.84639630  1
  In  In21  1  0.33627692  0.86135757  0.82523063  1
  In  In22  1  0.17204633  0.83895230  0.01515213  1
  In  In23  1  0.51473460  0.85640984  0.67412412  1
  In  In24  1  0.30361795  0.64647691  0.69085290  1
  In  In25  1  0.86500648  0.33877532  0.82058426  1
  In  In26  1  0.86124953  0.46893154  -0.01383254  1
  In  In27  1  0.64940788  -0.00490327  0.00284775  1
  In  In28  1  0.00528905  0.63214778  0.66619998  1
  In  In29  1  0.00587222  0.83316895  0.84882004  1
  In  In30  1  0.85206460  0.62356444  0.48258243  1
  In  In31  1  0.65815038  0.30831688  0.02375883  1
  In  In32  1  0.35929491  0.85126463  0.19671146  1
  In  In33  1  0.83032551  -0.01364725  0.17055375  1
  In  In34  1  0.00654241  0.82990588  0.49148371  1
  In  In35  1  0.03664211  0.15557189  0.14436179  1
  In  In36  1  0.16393215  0.65299406  0.82717840  1
  In  In37  1  0.00480985  0.00709504  0.32867525  1
  In  In38  1  0.48183377  0.66356264  0.48036593  1
  In  In39  1  0.65866036  0.51612790  0.18313623  1
  In  In40  1  0.84529613  0.65849982  0.19028301  1
  In  In41  1  0.70153075  0.66666272  0.65469157  1
  In  In42  1  0.84865379  0.02038043  0.85181899  1
  In  In43  1  0.84133957  0.33937852  0.18127633  1
  In  In44  1  0.86478812  0.50155901  0.64612578  1
  In  In45  1  0.33479660  0.01371833  -0.00722239  1
  In  In46  1  0.32800538  0.01366299  0.66872709  1
  In  In47  1  0.33721394  0.33625231  0.31348233  1
  In  In48  1  0.65789988  0.16264220  0.48200043  1
  In  In49  1  0.31879680  0.49069538  0.50401492  1
  In  In50  1  0.66650615  0.48174496  0.84269974  1
  In  In51  1  0.82249119  0.83158326  0.65722311  1
  In  In52  1  -0.00141366  0.83310640  0.17027997  1
  In  In53  1  0.85911330  0.16299568  -0.00003618  1
  In  In54  1  0.17190721  0.32673932  0.18324434  1
  In  In55  1  0.65902226  0.82497144  0.81161328  1
  In  In56  1  0.63451604  0.14798202  0.18762051  1
  In  In57  1  0.82261172  0.00102617  0.50233661  1
  In  In58  1  0.32107457  0.66148704  0.01727927  1
  In  In59  1  0.50279488  0.49614017  0.32499988  1
  In  In60  1  0.83552777  0.18770719  0.66229625  1
  In  In61  1  0.84450500  0.82945773  0.01705156  1
  In  In62  1  0.19048095  0.84070339  0.65568949  1
  In  In63  1  0.48063423  0.33077825  0.83640570  1
  In  In64  1  0.31257401  0.16564628  0.83941776  1
  In  In65  1  0.15556593  0.15775867  0.32616301  1
  In  In66  1  0.01750266  0.35183606  0.66691665  1
  In  In67  1  0.01295904  0.01279768  0.66263225  1
  In  In68  1  0.29807118  0.86644363  0.45636928  1
  In  In69  1  0.49356901  0.00999338  0.49042303  1
  In  In70  1  0.65444828  0.85931741  0.17023944  1
  In  In71  1  0.18059161  0.16768925  0.65842295  1
  Te  Te72  1  0.12341196  0.07239493  0.06098987  1
  Te  Te73  1  0.06662750  0.09647634  0.42831775  1
  Te  Te74  1  0.09836770  0.08858353  0.75589916  1
  Te  Te75  1  0.08771053  0.41458651  0.08790886  1
  Te  Te76  1  0.05868470  0.43754692  0.39451945  1
  Te  Te77  1  0.09261450  0.42449716  0.77125465  1
  Te  Te78  1  0.07040638  0.73920634  0.07122386  1
  Te  Te79  1  0.08886682  0.75378454  0.39493001  1
  Te  Te80  1  0.08780829  0.75513446  0.73107073  1
  Te  Te81  1  0.42732972  0.08317527  0.08787710  1
  Te  Te82  1  0.40660727  0.08078462  0.39068897  1
  Te  Te83  1  0.42064639  0.07647469  0.77216045  1
  Te  Te84  1  0.43251234  0.45102813  0.07641630  1
  Te  Te85  1  0.41963833  0.41079053  0.42081652  1
  Te  Te86  1  0.40298617  0.42074596  0.74160722  1
  Te  Te87  1  0.41445824  0.76694461  0.07302841  1
  Te  Te88  1  0.42153058  0.78140485  0.40769202  1
  Te  Te89  1  0.41644438  0.74830071  0.74540306  1
  Te  Te90  1  0.74686151  0.09185337  0.08376528  1
  Te  Te91  1  0.75116724  0.08011048  0.39220064  1
  Te  Te92  1  0.76126330  0.07684626  0.73851801  1
  Te  Te93  1  0.74770056  0.42485321  0.08550806  1
  Te  Te94  1  0.75609722  0.45578771  0.40476338  1
  Te  Te95  1  0.75239537  0.41198497  0.73657830  1
  Te  Te96  1  0.74127328  0.73976488  0.10142200  1
  Te  Te97  1  0.76732967  0.74143721  0.42515947  1
  Te  Te98  1  0.77541600  0.73492586  0.76808775  1
  Te  Te99  1  0.06021437  0.25560622  0.25874642  1
  Te  Te100  1  0.07760554  0.24468731  0.57449917  1
  Te  Te101  1  0.01576634  0.24213326  0.94707302  1
  Te  Te102  1  0.06501949  0.60161533  0.26830936  1
  Te  Te103  1  0.06756150  0.54850461  0.55874989  1
  Te  Te104  1  0.06782255  0.59505912  0.92253610  1
  Te  Te105  1  0.09514781  0.92387787  0.24233624  1
  Te  Te106  1  0.09861198  0.92540650  0.56749250  1
  Te  Te107  1  0.09086812  0.92597170  0.92564968  1
  Te  Te108  1  0.42675116  0.24608418  0.23782183  1
  Te  Te109  1  0.41433397  0.26943488  0.58299517  1
  Te  Te110  1  0.40583858  0.24413442  0.93444113  1
  Te  Te111  1  0.40272228  0.57842000  0.24463376  1
  Te  Te112  1  0.41685844  0.58204577  0.59261361  1
  Te  Te113  1  0.40795276  0.56908825  0.92736073  1
  Te  Te114  1  0.43736103  0.95408909  0.27306987  1
  Te  Te115  1  0.40633723  0.91216298  0.58199100  1
  Te  Te116  1  0.42929938  0.92237628  0.91954349  1
  Te  Te117  1  0.74236788  0.24564877  0.24969142  1
  Te  Te118  1  0.75913548  0.25812904  0.54945492  1
  Te  Te119  1  0.76515053  0.26159357  0.91572293  1
  Te  Te120  1  0.77713180  0.54641415  0.27981354  1
  Te  Te121  1  0.74106286  0.55140114  0.56701605  1
  Te  Te122  1  0.76247084  0.57259245  0.91976553  1
  Te  Te123  1  0.75700211  0.90333549  0.26711328  1
  Te  Te124  1  0.72205684  0.92145287  0.58670948  1
  Te  Te125  1  0.75883745  0.91495941  0.91909940  1
  Te  Te126  1  0.23864956  0.24462261  0.07427979  1
  Te  Te127  1  0.24382620  0.25503058  0.40932583  1
  Te  Te128  1  0.25417966  0.26351526  0.74488132  1
  Te  Te129  1  0.25158884  0.55496794  0.10030365  1
  Te  Te130  1  0.23682992  0.57698990  0.40992861  1
  Te  Te131  1  0.19832415  0.53330742  0.72618092  1
  Te  Te132  1  0.26371506  0.92470651  0.09967096  1
  Te  Te133  1  0.21905189  0.94477117  0.35909791  1
  Te  Te134  1  0.22565759  0.94456543  0.76239435  1
  Te  Te135  1  0.55160471  0.23054990  0.09321856  1
  Te  Te136  1  0.56770745  0.24956440  0.40462695  1
  Te  Te137  1  0.58982387  0.25003027  0.75992621  1
  Te  Te138  1  0.55882992  0.56531857  0.07296755  1
  Te  Te139  1  0.59199275  0.58208825  0.41515363  1
  Te  Te140  1  0.59126037  0.59511478  0.76140039  1
  Te  Te141  1  0.55060882  0.93995637  0.10114140  1
  Te  Te142  1  0.58560070  0.93150347  0.39855906  1
  Te  Te143  1  0.58681694  0.94501067  0.76630373  1
  Te  Te144  1  0.93543147  0.27411230  0.07877870  1
  Te  Te145  1  0.92022120  0.28752183  0.43728234  1
  Te  Te146  1  0.94909737  0.23388357  0.75073355  1
  Te  Te147  1  0.91741187  0.57496917  0.08525920  1
  Te  Te148  1  0.97287609  0.56890020  0.41334163  1
  Te  Te149  1  0.91594462  0.57029867  0.76588493  1
  Te  Te150  1  0.93675178  0.93775915  0.07270447  1
  Te  Te151  1  0.90942724  0.91587420  0.40996238  1
  Te  Te152  1  0.91448708  0.91824776  0.74462353  1
  Te  Te153  1  0.25039188  0.06236946  0.25825891  1
  Te  Te154  1  0.24562192  0.07186462  0.55522447  1
  Te  Te155  1  0.21731770  0.09419413  0.93562144  1
  Te  Te156  1  0.23928262  0.43375364  0.26019146  1
  Te  Te157  1  0.24312785  0.39372824  0.58572942  1
  Te  Te158  1  0.23190842  0.38522044  0.91152468  1
  Te  Te159  1  0.24868031  0.75418755  0.24529038  1
  Te  Te160  1  0.26481437  0.74100196  0.56728477  1
  Te  Te161  1  0.25384858  0.75081493  0.90461666  1
  Te  Te162  1  0.56707216  0.04369925  0.27055126  1
  Te  Te163  1  0.58298489  0.08390833  0.59138786  1
  Te  Te164  1  0.57126564  0.10223548  0.93524847  1
  Te  Te165  1  0.58135909  0.39815563  0.23894691  1
  Te  Te166  1  0.57373902  0.40753001  0.55862176  1
  Te  Te167  1  0.57364128  0.40438278  0.93442951  1
  Te  Te168  1  0.57308665  0.75745900  0.25963422  1
  Te  Te169  1  0.58338320  0.73798368  0.58810710  1
  Te  Te170  1  0.58369802  0.76781371  0.93421179  1
  Te  Te171  1  0.91434932  0.10028657  0.23332674  1
  Te  Te172  1  0.92003975  0.09469509  0.57151771  1
  Te  Te173  1  0.96460901  0.09663153  0.91397843  1
  Te  Te174  1  0.92870460  0.40325983  0.28657206  1
  Te  Te175  1  0.91444842  0.38912553  0.55898425  1
  Te  Te176  1  0.97270962  0.40588980  0.90351788  1
  Te  Te177  1  0.92087945  0.75572192  0.27057607  1
  Te  Te178  1  0.91784311  0.73831264  0.58180893  1
  Te  Te179  1  0.91842061  0.74132726  0.92414489  1
