# generated using pymatgen
data_In2Te3
_symmetry_space_group_name_H-M   'P 1'
_cell_length_a   18.97953837
_cell_length_b   18.97714117
_cell_length_c   18.97496286
_cell_angle_alpha   89.96078218
_cell_angle_beta   90.19698965
_cell_angle_gamma   90.08531650
_symmetry_Int_Tables_number   1
_chemical_formula_structural   In2Te3
_chemical_formula_sum   'In72 Te108'
_cell_volume   6834.30284283
_cell_formula_units_Z   36
loop_
 _symmetry_equiv_pos_site_id
 _symmetry_equiv_pos_as_xyz
  1  'x, y, z'
loop_
 _atom_site_type_symbol
 _atom_site_label
 _atom_site_symmetry_multiplicity
 _atom_site_fract_x
 _atom_site_fract_y
 _atom_site_fract_z
 _atom_site_occupancy
  In  In0  1  0.86862021  0.19621236  0.35413783  1
  In  In1  1  0.18738002  0.84920829  0.64982705  1
  In  In2  1  0.49458187  -0.01933039  0.17126023  1
  In  In3  1  0.12824425  -0.01067702  0.84874849  1
  In  In4  1  0.85343347  0.01265931  0.83129851  1
  In  In5  1  0.18176024  0.66633520  0.48139446  1
  In  In6  1  0.02534611  0.49845802  0.84683106  1
  In  In7  1  0.31693451  0.00631651  -0.00171493  1
  In  In8  1  0.13831448  0.79687390  0.01777037  1
  In  In9  1  0.17134032  0.65963693  0.82155544  1
  In  In10  1  0.67874873  0.66953765  0.31577883  1
  In  In11  1  0.47817322  0.17039281  0.32087353  1
  In  In12  1  -0.01016710  0.19581035  0.82189261  1
  In  In13  1  0.81706545  0.48324511  0.00491334  1
  In  In14  1  0.51482839  0.00049007  0.83487535  1
  In  In15  1  0.66167263  0.63390388  0.69520100  1
  In  In16  1  -0.01631795  0.19063522  0.51355206  1
  In  In17  1  -0.01705626  0.16677241  0.15143527  1
  In  In18  1  0.30935513  0.50477202  0.17007386  1
  In  In19  1  0.36237179  0.34836430  0.71583326  1
  In  In20  1  0.49988326  0.66266262  0.15537093  1
  In  In21  1  -0.02764583  0.80862485  0.86413887  1
  In  In22  1  0.32117838  0.18996134  0.48046377  1
  In  In23  1  0.00655095  0.34299172  0.01240903  1
  In  In24  1  0.33687055  -0.01421652  0.33792498  1
  In  In25  1  0.66094108  -0.02666725  0.34646459  1
  In  In26  1  0.84498694  -0.00984601  0.48154863  1
  In  In27  1  0.66212493  0.31992109  0.32846959  1
  In  In28  1  0.52068292  0.18464537  0.67968926  1
  In  In29  1  0.35573591  0.59332363  0.00726436  1
  In  In30  1  0.65150554  0.81249860  0.84787572  1
  In  In31  1  0.66908144  0.33583911  0.74963303  1
  In  In32  1  0.31195499  0.33684621  0.32549607  1
  In  In33  1  0.67434730  0.48865871  0.52774957  1
  In  In34  1  0.32803655  0.68782725  0.33000772  1
  In  In35  1  0.34212943  0.64199600  0.69698150  1
  In  In36  1  0.14778139  0.82268245  0.29177406  1
  In  In37  1  0.14443757  0.18069768  0.30887102  1
  In  In38  1  0.18399838  0.00594592  0.49110950  1
  In  In39  1  0.83227025  0.19513624  0.66540481  1
  In  In40  1  0.84374475  0.82154327  0.27957409  1
  In  In41  1  0.33598430  0.37296137  -0.02195480  1
  In  In42  1  0.33864657  0.83894498  0.82186734  1
  In  In43  1  0.36260802  -0.02926047  0.64055290  1
  In  In44  1  0.64110890  0.80962870  0.47777318  1
  In  In45  1  0.81078626  0.83570600  0.67841034  1
  In  In46  1  -0.00800521  0.68824254  0.68428984  1
  In  In47  1  0.02929719  -0.00318719  0.31470595  1
  In  In48  1  0.66967215  -0.01336301  0.68478427  1
  In  In49  1  0.85031723  0.50023636  0.29753384  1
  In  In50  1  0.51394935  0.35151090  0.52096975  1
  In  In51  1  0.71038861  -0.02228816  0.01963794  1
  In  In52  1  0.65707228  0.64877191  -0.01149966  1
  In  In53  1  0.49036089  0.65404739  0.51980130  1
  In  In54  1  0.50917543  0.13441013  0.00164975  1
  In  In55  1  0.00133719  0.49496329  0.15037323  1
  In  In56  1  0.85285967  0.50731540  0.67671905  1
  In  In57  1  0.67213886  0.15512933  0.52129256  1
  In  In58  1  0.02175995  0.83388575  0.50759965  1
  In  In59  1  0.16887440  0.18018523  0.68294754  1
  In  In60  1  0.33357606  0.17726681  0.83709753  1
  In  In61  1  0.67202726  0.81349176  0.15994307  1
  In  In62  1  0.82619793  0.64585349  0.14875117  1
  In  In63  1  0.30799087  0.51657923  0.50570206  1
  In  In64  1  0.84808274  0.35322883  0.49272972  1
  In  In65  1  0.17072022  0.51564812  0.66544015  1
  In  In66  1  0.16677223  0.20107453  0.02677407  1
  In  In67  1  0.17024080  -0.00643550  0.17082854  1
  In  In68  1  0.65702393  0.34136647  -0.02138596  1
  In  In69  1  0.87074171  0.62415172  0.45530995  1
  In  In70  1  0.51387158  0.48667806  0.34402882  1
  In  In71  1  0.67947286  0.15501991  0.15461422  1
  Te  Te72  1  0.08857993  0.08210128  0.07966913  1
  Te  Te73  1  0.07388597  0.09009522  0.42708429  1
  Te  Te74  1  0.06887775  0.08522855  0.74656964  1
  Te  Te75  1  0.10571373  0.44356300  0.05970393  1
  Te  Te76  1  0.16879752  0.47349148  0.47004148  1
  Te  Te77  1  0.06547786  0.43151776  0.72238246  1
  Te  Te78  1  0.04032860  0.76371586  0.12327675  1
  Te  Te79  1  0.07694333  0.74290541  0.40150218  1
  Te  Te80  1  0.09397791  0.77788439  0.75424940  1
  Te  Te81  1  0.40553038  0.07951130  0.09795696  1
  Te  Te82  1  0.41442748  0.08332359  0.42729876  1
  Te  Te83  1  0.41679400  0.08346016  0.75153368  1
  Te  Te84  1  0.41492778  0.46149330  0.07301037  1
  Te  Te85  1  0.40820245  0.41103525  0.42994393  1
  Te  Te86  1  0.45925784  0.41816847  0.80295606  1
  Te  Te87  1  0.41282306  0.72325287  0.05497128  1
  Te  Te88  1  0.40803527  0.75253795  0.44168679  1
  Te  Te89  1  0.42735216  0.74899110  0.74866252  1
  Te  Te90  1  0.78423648  0.11150236  0.05470211  1
  Te  Te91  1  0.75364276  0.09133476  0.41070836  1
  Te  Te92  1  0.75342405  0.09356116  0.74795958  1
  Te  Te93  1  0.74825569  0.38372610  0.08946443  1
  Te  Te94  1  0.74670075  0.42666133  0.40165577  1
  Te  Te95  1  0.74572059  0.46344834  0.77108503  1
  Te  Te96  1  0.76717603  0.75348515  0.05895163  1
  Te  Te97  1  0.76512899  0.76019269  0.40085524  1
  Te  Te98  1  0.75353033  0.72995764  0.76924416  1
  Te  Te99  1  0.08067301  0.26338984  0.20752415  1
  Te  Te100  1  0.08463664  0.26002830  0.59339567  1
  Te  Te101  1  0.09254830  0.26591955  0.91344465  1
  Te  Te102  1  0.04380898  0.59462905  0.25059493  1
  Te  Te103  1  0.08336562  0.61644984  0.58988031  1
  Te  Te104  1  0.08698553  0.60535192  0.92785887  1
  Te  Te105  1  0.04227025  0.90077506  0.19527968  1
  Te  Te106  1  0.08331994  0.94377948  0.58907508  1
  Te  Te107  1  0.05235653  0.90618121  0.94956561  1
  Te  Te108  1  0.41034113  0.26920058  0.23822585  1
  Te  Te109  1  0.41463619  0.25310234  0.59367040  1
  Te  Te110  1  0.41913501  0.24287138  0.94035826  1
  Te  Te111  1  0.42294411  0.58278744  0.26964197  1
  Te  Te112  1  0.42267301  0.55225913  0.60575696  1
  Te  Te113  1  0.45402644  0.55356837  0.89573040  1
  Te  Te114  1  0.40207570  0.89538554  0.24414014  1
  Te  Te115  1  0.40224650  0.87225268  0.54514035  1
  Te  Te116  1  0.41778808  0.92303959  0.92224622  1
  Te  Te117  1  0.76418159  0.24012951  0.25173003  1
  Te  Te118  1  0.74221322  0.27780797  0.57531996  1
  Te  Te119  1  0.73512266  0.27579461  0.87251597  1
  Te  Te120  1  0.72407454  0.56007967  0.22499078  1
  Te  Te121  1  0.76607448  0.59776040  0.57687159  1
  Te  Te122  1  0.74305489  0.56300157  0.90262078  1
  Te  Te123  1  0.75088455  0.93182685  0.23201526  1
  Te  Te124  1  0.73977661  0.91697524  0.56454736  1
  Te  Te125  1  0.76108202  0.90793608  0.89401381  1
  Te  Te126  1  0.28361312  0.27242081  0.07598963  1
  Te  Te127  1  0.20787339  0.26512971  0.41904385  1
  Te  Te128  1  0.23928713  0.28001394  0.77646021  1
  Te  Te129  1  0.22345846  0.57962261  0.07479033  1
  Te  Te130  1  0.22922330  0.57173775  0.37110820  1
  Te  Te131  1  0.26810615  0.54075875  0.79237173  1
  Te  Te132  1  0.24060026  0.90091345  0.07486852  1
  Te  Te133  1  0.23082038  0.89650240  0.40173058  1
  Te  Te134  1  0.24579099  0.94355088  0.75691693  1
  Te  Te135  1  0.58367103  0.24205153  0.07877873  1
  Te  Te136  1  0.57306419  0.24107993  0.43278257  1
  Te  Te137  1  0.57853372  0.23207769  0.80587730  1
  Te  Te138  1  0.60120590  0.57155730  0.10094330  1
  Te  Te139  1  0.59871282  0.58468740  0.42692705  1
  Te  Te140  1  0.55977189  0.58398173  0.78732666  1
  Te  Te141  1  0.58488443  0.90560985  0.07802764  1
  Te  Te142  1  0.55481984  0.91724976  0.42856792  1
  Te  Te143  1  0.56907868  0.89177064  0.74446482  1
  Te  Te144  1  0.90659291  0.23611021  0.04465219  1
  Te  Te145  1  0.96222998  0.30170235  0.40429632  1
  Te  Te146  1  0.91801191  0.28997639  0.73477367  1
  Te  Te147  1  0.92410527  0.59180047  0.04480807  1
  Te  Te148  1  0.96703413  0.53422894  0.38506737  1
  Te  Te149  1  0.92238249  0.59720958  0.77834256  1
  Te  Te150  1  0.84533209  0.97420999  0.08081295  1
  Te  Te151  1  0.93148253  0.90229202  0.39409434  1
  Te  Te152  1  0.92439071  0.90330430  0.75200529  1
  Te  Te153  1  0.25081422  0.08780503  0.25858396  1
  Te  Te154  1  0.26090116  0.09297003  0.58820154  1
  Te  Te155  1  0.22692176  0.09260389  0.91122928  1
  Te  Te156  1  0.21973372  0.41100186  0.23963895  1
  Te  Te157  1  0.26856182  0.40832258  0.61206891  1
  Te  Te158  1  0.23424811  0.42728937  0.88803567  1
  Te  Te159  1  0.24354773  0.73840211  0.22182016  1
  Te  Te160  1  0.25819043  0.72760339  0.59845944  1
  Te  Te161  1  0.24384681  0.76100151  0.90964841  1
  Te  Te162  1  0.58440371  0.08215633  0.25630950  1
  Te  Te163  1  0.57365307  0.06909599  0.59653109  1
  Te  Te164  1  0.61675327  0.06563673  0.92290996  1
  Te  Te165  1  0.56086723  0.38754758  0.24715373  1
  Te  Te166  1  0.59295255  0.41625783  0.63007588  1
  Te  Te167  1  0.57173139  0.44612059  0.90899164  1
  Te  Te168  1  0.57232871  0.75798234  0.25932632  1
  Te  Te169  1  0.59302664  0.73434294  0.59796410  1
  Te  Te170  1  0.55931100  0.74983062  0.94343908  1
  Te  Te171  1  0.91803368  0.08591986  0.26237937  1
  Te  Te172  1  0.90270543  0.08354802  0.58515907  1
  Te  Te173  1  0.94239415  0.09238928  0.91589861  1
  Te  Te174  1  0.88929796  0.40552309  0.19223756  1
  Te  Te175  1  0.93229253  0.44541753  0.57054735  1
  Te  Te176  1  0.91651852  0.41414248  0.91293303  1
  Te  Te177  1  0.93244104  0.70368623  0.24391747  1
  Te  Te178  1  0.90852849  0.76497305  0.58074478  1
  Te  Te179  1  0.90826328  0.72932998  0.96897271  1
