# generated using pymatgen
data_In2Te3
_symmetry_space_group_name_H-M   'P 1'
_cell_length_a   19.01992251
_cell_length_b   19.02541102
_cell_length_c   19.02112726
_cell_angle_alpha   89.93202975
_cell_angle_beta   89.86920791
_cell_angle_gamma   89.71388671
_symmetry_Int_Tables_number   1
_chemical_formula_structural   In2Te3
_chemical_formula_sum   'In72 Te108'
_cell_volume   6882.91166814
_cell_formula_units_Z   36
loop_
 _symmetry_equiv_pos_site_id
 _symmetry_equiv_pos_as_xyz
  1  'x, y, z'
loop_
 _atom_site_type_symbol
 _atom_site_label
 _atom_site_symmetry_multiplicity
 _atom_site_fract_x
 _atom_site_fract_y
 _atom_site_fract_z
 _atom_site_occupancy
  In  In0  1  0.81809158  0.81345908  0.34625244  1
  In  In1  1  0.65932520  0.83218234  0.15640354  1
  In  In2  1  0.18280325  0.30926945  0.49289812  1
  In  In3  1  0.01767374  0.33204054  0.01935699  1
  In  In4  1  -0.00061530  0.66179035  -0.01495863  1
  In  In5  1  0.80485986  0.36720527  0.84723745  1
  In  In6  1  0.83346140  0.35321753  0.51408374  1
  In  In7  1  0.44378349  0.04285748  0.84013561  1
  In  In8  1  0.02153917  0.01749812  0.33125416  1
  In  In9  1  0.34830867  0.82585016  0.50347258  1
  In  In10  1  0.48807423  0.00384403  0.49863269  1
  In  In11  1  0.66346765  0.01727622  -0.00617042  1
  In  In12  1  0.84134785  0.65525819  0.18934537  1
  In  In13  1  0.49261302  0.04645598  0.16370717  1
  In  In14  1  0.33056907  0.18975858  0.13638324  1
  In  In15  1  0.83931593  0.17220059  0.67709433  1
  In  In16  1  0.82139079  0.50161455  0.35189738  1
  In  In17  1  0.49242949  0.32088897  0.51181909  1
  In  In18  1  0.51184421  0.48736482  -0.00334861  1
  In  In19  1  0.23683034  0.04292112  0.83300314  1
  In  In20  1  0.02375584  0.00995733  0.67599332  1
  In  In21  1  0.46644736  0.30076377  0.83619609  1
  In  In22  1  0.36022129  0.64852115  0.02272290  1
  In  In23  1  0.02094752  0.17710222  0.47675531  1
  In  In24  1  0.80971827  -0.01369627  0.86169242  1
  In  In25  1  0.18781934  0.18245696  0.66382242  1
  In  In26  1  0.34847344  0.01128782  0.34513701  1
  In  In27  1  0.02231336  0.32073390  0.31072612  1
  In  In28  1  0.00618018  0.83581437  0.83888991  1
  In  In29  1  0.48068833  0.50680274  0.67286402  1
  In  In30  1  0.00029627  0.49972699  0.48130858  1
  In  In31  1  0.14707334  0.65390419  0.83961783  1
  In  In32  1  0.66147064  0.51421138  0.50481157  1
  In  In33  1  0.84663697  -0.01106133  0.17343991  1
  In  In34  1  0.17044391  0.02442578  0.15096763  1
  In  In35  1  0.81823064  0.86375625  -0.00033361  1
  In  In36  1  0.31214705  0.45742767  0.86400490  1
  In  In37  1  0.34543597  0.45619240  0.16822522  1
  In  In38  1  0.19172970  0.65082535  0.48699313  1
  In  In39  1  0.66559671  0.65597298  0.66542397  1
  In  In40  1  0.66788474  0.66174965  0.33834581  1
  In  In41  1  0.51993944  0.46507968  0.27648754  1
  In  In42  1  0.83289482  -0.01684067  0.52597081  1
  In  In43  1  0.17517875  0.65087275  0.15035270  1
  In  In44  1  0.50229448  0.66947876  0.50875347  1
  In  In45  1  0.64684294  0.23133312  0.14810542  1
  In  In46  1  0.81996607  0.18113891  0.30711612  1
  In  In47  1  0.67912245  0.17302036  0.50581573  1
  In  In48  1  -0.00358484  0.50064717  0.15995499  1
  In  In49  1  0.80570745  0.58511497  0.82142223  1
  In  In50  1  0.52133589  0.67454119  0.85751797  1
  In  In51  1  0.14800528  0.02923143  0.49624271  1
  In  In52  1  0.62910446  0.15867428  0.81030793  1
  In  In53  1  0.30766610  0.45732451  0.43041660  1
  In  In54  1  -0.01875836  0.83047466  0.50766282  1
  In  In55  1  0.15948806  0.47349323  0.65306105  1
  In  In56  1  0.02864497  0.02752294  -0.00604028  1
  In  In57  1  0.35153881  0.83989555  0.14160183  1
  In  In58  1  0.01122141  0.47609084  0.83442077  1
  In  In59  1  -0.01230629  0.20028591  0.83992757  1
  In  In60  1  0.32442678  0.65871907  0.67847969  1
  In  In61  1  0.33548677  0.83440639  0.83767076  1
  In  In62  1  0.64391449  0.00708001  0.35788476  1
  In  In63  1  -0.00578422  0.67103113  0.33773781  1
  In  In64  1  0.18527504  0.83214657  0.31299554  1
  In  In65  1  0.83223294  0.81304881  0.69330838  1
  In  In66  1  0.15947388  0.82382817  -0.01433765  1
  In  In67  1  0.63701437  -0.02428926  0.68440722  1
  In  In68  1  0.51205326  0.82189822  0.33654409  1
  In  In69  1  0.83075244  0.19800965  0.01338655  1
  In  In70  1  0.64695620  0.33043389  -0.01041900  1
  In  In71  1  0.48733582  0.17349547  0.32654118  1
  Te  Te72  1  0.07525190  0.12106067  0.09502932  1
  Te  Te73  1  0.12046648  0.12099074  0.37814461  1
  Te  Te74  1  0.09171214  0.10749148  0.76633893  1
  Te  Te75  1  0.10561539  0.40689835  0.11721207  1
  Te  Te76  1  0.09527692  0.40596109  0.41028961  1
  Te  Te77  1  0.10824246  0.39125040  0.76205468  1
  Te  Te78  1  0.07652363  0.74628138  0.08501893  1
  Te  Te79  1  0.09232454  0.75819453  0.41400084  1
  Te  Te80  1  0.08828224  0.75351563  0.75122969  1
  Te  Te81  1  0.38839178  0.07267533  0.06247530  1
  Te  Te82  1  0.39359093  0.12050619  0.44172999  1
  Te  Te83  1  0.40231187  0.12332429  0.72073441  1
  Te  Te84  1  0.43201592  0.38437710  0.06656390  1
  Te  Te85  1  0.44270665  0.40282185  0.39430403  1
  Te  Te86  1  0.39447232  0.40706882  0.74790543  1
  Te  Te87  1  0.44992930  0.75745480  0.06642527  1
  Te  Te88  1  0.40887251  0.73393707  0.40108911  1
  Te  Te89  1  0.42321068  0.73934668  0.75629776  1
  Te  Te90  1  0.76131681  0.08325816  0.08817716  1
  Te  Te91  1  0.76929664  0.08109884  0.41712078  1
  Te  Te92  1  0.74585824  0.07306247  0.74379944  1
  Te  Te93  1  0.72077838  0.44274251  0.04750232  1
  Te  Te94  1  0.72735052  0.40611078  0.41959334  1
  Te  Te95  1  0.76592636  0.46353552  0.74322100  1
  Te  Te96  1  0.76981909  0.75325364  0.09288823  1
  Te  Te97  1  0.73632117  0.74037019  0.43991875  1
  Te  Te98  1  0.74527275  0.72396386  0.77537800  1
  Te  Te99  1  0.12286909  0.27125321  0.21524131  1
  Te  Te100  1  0.07578345  0.25669541  0.59019246  1
  Te  Te101  1  0.09660556  0.25794715  0.91831996  1
  Te  Te102  1  0.08242801  0.58426084  0.25221618  1
  Te  Te103  1  0.09008339  0.58330626  0.57481283  1
  Te  Te104  1  0.09599864  0.55553303  0.94050302  1
  Te  Te105  1  0.09098015  0.92210728  0.23655446  1
  Te  Te106  1  0.08559400  0.91370850  0.57858395  1
  Te  Te107  1  0.10404944  0.93633664  0.89831150  1
  Te  Te108  1  0.41344023  0.25903747  0.23557218  1
  Te  Te109  1  0.43728521  0.23198516  0.61480810  1
  Te  Te110  1  0.35084586  0.23469702  0.91366639  1
  Te  Te111  1  0.43700316  0.56363278  0.21069232  1
  Te  Te112  1  0.39602896  0.57987156  0.57035831  1
  Te  Te113  1  0.41231371  0.56808896  0.90237544  1
  Te  Te114  1  0.43171598  0.92194648  0.25346158  1
  Te  Te115  1  0.41365513  0.92042147  0.59131740  1
  Te  Te116  1  0.42946921  0.91513520  0.91693458  1
  Te  Te117  1  0.75445273  0.29141054  0.23519784  1
  Te  Te118  1  0.74496762  0.26580759  0.60421911  1
  Te  Te119  1  0.73690478  0.23275798  0.89905571  1
  Te  Te120  1  0.73491693  0.56334776  0.24368750  1
  Te  Te121  1  0.76186306  0.56429265  0.59915673  1
  Te  Te122  1  0.72144794  0.55380302  0.94336627  1
  Te  Te123  1  0.73648948  0.91976107  0.26291515  1
  Te  Te124  1  0.74074150  0.89537756  0.60203838  1
  Te  Te125  1  0.69865171  0.89569664  0.90893460  1
  Te  Te126  1  0.22457278  0.28958016  0.09785661  1
  Te  Te127  1  0.28450630  0.23101100  0.42739563  1
  Te  Te128  1  0.28960905  0.21952293  0.76776716  1
  Te  Te129  1  0.25957923  0.55106268  0.07678324  1
  Te  Te130  1  0.25463716  0.58337012  0.37221353  1
  Te  Te131  1  0.24075853  0.56140662  0.76017644  1
  Te  Te132  1  0.24519673  0.91603262  0.06858776  1
  Te  Te133  1  0.24877579  0.92214808  0.41720795  1
  Te  Te134  1  0.25648063  0.92466797  0.75202492  1
  Te  Te135  1  0.53446882  0.25591796  0.05350293  1
  Te  Te136  1  0.58880740  0.24774957  0.41351655  1
  Te  Te137  1  0.56164228  0.25877001  0.72582453  1
  Te  Te138  1  0.61072745  0.58502136  0.05367529  1
  Te  Te139  1  0.56244084  0.57283973  0.40402296  1
  Te  Te140  1  0.58147313  0.57337800  0.76217057  1
  Te  Te141  1  0.57562908  0.93941594  0.09106935  1
  Te  Te142  1  0.58694439  0.89796999  0.44249428  1
  Te  Te143  1  0.53242615  0.93448430  0.77811236  1
  Te  Te144  1  0.90651481  0.28207976  0.10305289  1
  Te  Te145  1  0.90951568  0.25665039  0.41256665  1
  Te  Te146  1  0.90133830  0.28575226  0.75263595  1
  Te  Te147  1  0.90403124  0.58108201  0.07236757  1
  Te  Te148  1  0.89844750  0.60311983  0.43127279  1
  Te  Te149  1  0.94381819  0.59101608  0.77412205  1
  Te  Te150  1  0.93686360  0.92817095  0.06833058  1
  Te  Te151  1  0.92193792  0.92981125  0.40599472  1
  Te  Te152  1  0.91662155  0.93464061  0.75208394  1
  Te  Te153  1  0.27318353  0.08870665  0.24069411  1
  Te  Te154  1  0.24987322  0.07437411  0.58780186  1
  Te  Te155  1  0.26354960  0.11039032  0.95884128  1
  Te  Te156  1  0.26041283  0.43266272  0.28832852  1
  Te  Te157  1  0.26710685  0.40756443  0.57151796  1
  Te  Te158  1  0.25158662  0.35485757  0.95116661  1
  Te  Te159  1  0.27097105  0.74319842  0.22570980  1
  Te  Te160  1  0.24600077  0.75061637  0.58707437  1
  Te  Te161  1  0.25878880  0.72543424  0.92713067  1
  Te  Te162  1  0.60786124  0.10506773  0.24727232  1
  Te  Te163  1  0.58945274  0.07895495  0.58302769  1
  Te  Te164  1  0.55754498  0.10247987  0.92826047  1
  Te  Te165  1  0.60584728  0.36651825  0.21146956  1
  Te  Te166  1  0.57568349  0.42289385  0.58944180  1
  Te  Te167  1  0.56910360  0.40276914  0.88209115  1
  Te  Te168  1  0.57931019  0.73197879  0.23567183  1
  Te  Te169  1  0.57019648  0.75091596  0.60655287  1
  Te  Te170  1  0.58882622  0.71915001  0.97943052  1
  Te  Te171  1  0.92839494  0.09765054  0.24076812  1
  Te  Te172  1  0.92748169  0.09222898  0.57786966  1
  Te  Te173  1  0.90910964  0.09322939  0.91631121  1
  Te  Te174  1  0.92032180  0.42379169  0.26521310  1
  Te  Te175  1  0.93686976  0.42271804  0.58747965  1
  Te  Te176  1  0.91610941  0.41420374  0.93491623  1
  Te  Te177  1  0.92348618  0.76990696  0.24725889  1
  Te  Te178  1  0.91457931  0.73923155  0.59774345  1
  Te  Te179  1  0.90546321  0.76271230  0.92112309  1
