# generated using pymatgen
data_In2Te3
_symmetry_space_group_name_H-M   'P 1'
_cell_length_a   18.92962504
_cell_length_b   18.92434509
_cell_length_c   18.94666182
_cell_angle_alpha   90.00068722
_cell_angle_beta   90.00439104
_cell_angle_gamma   89.94867007
_symmetry_Int_Tables_number   1
_chemical_formula_structural   In2Te3
_chemical_formula_sum   'In72 Te108'
_cell_volume   6787.27425779
_cell_formula_units_Z   36
loop_
 _symmetry_equiv_pos_site_id
 _symmetry_equiv_pos_as_xyz
  1  'x, y, z'
loop_
 _atom_site_type_symbol
 _atom_site_label
 _atom_site_symmetry_multiplicity
 _atom_site_fract_x
 _atom_site_fract_y
 _atom_site_fract_z
 _atom_site_occupancy
  In  In0  1  -0.02764282  -0.01559521  0.32223569  1
  In  In1  1  0.14690654  0.18243131  0.32671599  1
  In  In2  1  0.51888817  -0.00588184  0.49666138  1
  In  In3  1  0.82603441  0.20092779  -0.00118051  1
  In  In4  1  0.70311693  0.37664053  0.65919478  1
  In  In5  1  0.34369397  0.85519808  0.84822395  1
  In  In6  1  0.00239732  0.33920498  0.67221179  1
  In  In7  1  0.80932323  -0.02163727  0.15616707  1
  In  In8  1  0.14856146  0.66387055  0.18132769  1
  In  In9  1  0.51771123  0.53725429  0.02030216  1
  In  In10  1  0.66256651  -0.00375232  0.64905236  1
  In  In11  1  0.48827564  0.35312073  0.17544541  1
  In  In12  1  0.81053860  0.48952920  -0.01935753  1
  In  In13  1  0.52612329  0.50355022  0.36368138  1
  In  In14  1  0.85889067  0.35828655  0.46889036  1
  In  In15  1  0.66485353  -0.03881893  0.01143445  1
  In  In16  1  0.14624410  0.82134854  0.68456893  1
  In  In17  1  0.15743155  0.16609447  0.66104781  1
  In  In18  1  0.36566713  0.19987112  0.52793154  1
  In  In19  1  0.33701708  0.52177885  0.48610151  1
  In  In20  1  0.52534114  0.35613785  0.79493707  1
  In  In21  1  0.13188184  0.34053399  0.84982099  1
  In  In22  1  0.83481784  -0.00039182  0.49506234  1
  In  In23  1  0.16926863  -0.02192143  0.18445420  1
  In  In24  1  0.16766894  -0.00257804  0.45903062  1
  In  In25  1  0.34899282  -0.01341881  0.32761703  1
  In  In26  1  -0.04701650  0.62957537  0.66590149  1
  In  In27  1  0.33424224  -0.00728027  0.65415380  1
  In  In28  1  0.32931248  0.34730888  0.32721962  1
  In  In29  1  0.51955576  0.68344698  0.83092007  1
  In  In30  1  0.51897869  0.50589526  0.61140877  1
  In  In31  1  0.18801010  0.17624423  0.01289080  1
  In  In32  1  0.67981836  0.16158557  0.49921601  1
  In  In33  1  0.52228153  0.64384007  0.18005322  1
  In  In34  1  0.51641371  0.81919216  0.36923964  1
  In  In35  1  0.52843755  0.80420509  0.64276506  1
  In  In36  1  0.84439824  0.35323715  0.24266677  1
  In  In37  1  0.18111639  0.82293175  0.33101797  1
  In  In38  1  0.00191715  0.51816232  0.47907572  1
  In  In39  1  0.31772503  0.18933093  0.80611439  1
  In  In40  1  0.68195943  0.19582207  0.17136556  1
  In  In41  1  0.35005404  0.64215280  0.65699826  1
  In  In42  1  0.67404593  0.83761874  0.83877254  1
  In  In43  1  0.51629250  -0.01249666  0.15971105  1
  In  In44  1  0.48292059  0.15224845  -0.00391647  1
  In  In45  1  -0.02758726  0.65480077  -0.00008832  1
  In  In46  1  0.14009326  0.01484837  0.85260627  1
  In  In47  1  -0.01756811  0.00705433  -0.01663857  1
  In  In48  1  0.67642796  0.15688775  0.82512364  1
  In  In49  1  0.33043545  -0.02244883  0.01497051  1
  In  In50  1  0.00089393  0.17529872  0.81133751  1
  In  In51  1  0.00047923  0.16074536  0.15869527  1
  In  In52  1  0.64994825  0.37110745  0.00893491  1
  In  In53  1  0.85426611  0.84876586  0.67461259  1
  In  In54  1  0.32542189  0.49807648  0.16224154  1
  In  In55  1  0.20575508  0.66581915  0.48945025  1
  In  In56  1  0.14271578  0.84813146  0.00516109  1
  In  In57  1  0.34143271  0.48321881  0.83164170  1
  In  In58  1  0.82343507  0.80851558  0.01398297  1
  In  In59  1  0.83896017  0.16222345  0.66400676  1
  In  In60  1  0.69099459  0.64317323  0.64955756  1
  In  In61  1  0.33574884  0.67577778  0.01955820  1
  In  In62  1  0.16358027  0.50383111  0.67502191  1
  In  In63  1  0.52317156  0.16994957  0.34351885  1
  In  In64  1  0.32830028  0.30219512  -0.00929604  1
  In  In65  1  0.00786550  0.80807706  0.51845452  1
  In  In66  1  0.14889088  0.34489273  0.49440512  1
  In  In67  1  -0.05377100  0.66757075  0.30604328  1
  In  In68  1  0.46676126  -0.00822282  0.83761478  1
  In  In69  1  0.13016879  0.66457423  0.85831253  1
  In  In70  1  0.69416015  0.51922741  0.21515425  1
  In  In71  1  -0.03167720  0.42567955  0.08031998  1
  Te  Te72  1  0.09623368  0.06122445  0.07915454  1
  Te  Te73  1  0.05817238  0.08576154  0.40265562  1
  Te  Te74  1  0.06439857  0.06470930  0.72808449  1
  Te  Te75  1  0.10153300  0.37095017  0.10129735  1
  Te  Te76  1  0.06088039  0.40939925  0.39217081  1
  Te  Te77  1  0.05854978  0.44573264  0.76728181  1
  Te  Te78  1  0.06448000  0.74750401  0.08400513  1
  Te  Te79  1  0.08911303  0.73411513  0.41387413  1
  Te  Te80  1  0.04863827  0.72266346  0.74556062  1
  Te  Te81  1  0.40504823  0.07762599  0.10239361  1
  Te  Te82  1  0.41436245  0.08804433  0.42274190  1
  Te  Te83  1  0.41410958  0.09300588  0.73660506  1
  Te  Te84  1  0.41809673  0.42119739  0.05785911  1
  Te  Te85  1  0.42209066  0.40927684  0.42890965  1
  Te  Te86  1  0.41608891  0.42801774  0.71186405  1
  Te  Te87  1  0.44533823  0.73637498  0.09374375  1
  Te  Te88  1  0.41648442  0.72948127  0.42497219  1
  Te  Te89  1  0.41242001  0.75915234  0.74976751  1
  Te  Te90  1  0.73932851  0.09149858  0.06615054  1
  Te  Te91  1  0.73703619  0.06458858  0.40463079  1
  Te  Te92  1  0.76126374  0.05902744  0.74547217  1
  Te  Te93  1  0.74476881  0.40896370  0.11854946  1
  Te  Te94  1  0.75822574  0.45739224  0.41906644  1
  Te  Te95  1  0.74939787  0.45996742  0.77317347  1
  Te  Te96  1  0.70791298  0.75610324  0.08848748  1
  Te  Te97  1  0.74381844  0.74475912  0.33170439  1
  Te  Te98  1  0.75172155  0.75630167  0.73951562  1
  Te  Te99  1  0.08809493  0.26976863  0.21804450  1
  Te  Te100  1  0.06269221  0.24415996  0.56962256  1
  Te  Te101  1  0.07034616  0.23314494  0.93616738  1
  Te  Te102  1  0.04489757  0.57185389  0.24034686  1
  Te  Te103  1  0.09104388  0.59791703  0.58111487  1
  Te  Te104  1  0.07173734  0.56076857  0.94127643  1
  Te  Te105  1  0.06724198  0.89005432  0.25075288  1
  Te  Te106  1  0.10236810  0.91453596  0.57070772  1
  Te  Te107  1  0.04687672  0.89686570  0.89061246  1
  Te  Te108  1  0.41961006  0.24615254  0.25705776  1
  Te  Te109  1  0.40348366  0.27560279  0.64330877  1
  Te  Te110  1  0.43844588  0.25749662  0.88551989  1
  Te  Te111  1  0.42530750  0.55862066  0.25922307  1
  Te  Te112  1  0.44687089  0.62691780  0.53598172  1
  Te  Te113  1  0.41053623  0.59615208  0.90957631  1
  Te  Te114  1  0.43711860  0.89485723  0.25006598  1
  Te  Te115  1  0.42955056  0.90149225  0.57783424  1
  Te  Te116  1  0.44496636  0.89619376  0.95503379  1
  Te  Te117  1  0.74620524  0.25094199  0.29269037  1
  Te  Te118  1  0.77901117  0.26420359  0.56685836  1
  Te  Te119  1  0.72234290  0.27216877  0.91472356  1
  Te  Te120  1  0.80583620  0.61253670  0.25358694  1
  Te  Te121  1  0.73896043  0.53516444  0.55575441  1
  Te  Te122  1  0.75294949  0.58002089  0.87846941  1
  Te  Te123  1  0.77594618  0.88462241  0.26737338  1
  Te  Te124  1  0.74734953  0.90112645  0.57195765  1
  Te  Te125  1  0.77263695  0.92267983  0.91506426  1
  Te  Te126  1  0.25971130  0.25751718  0.11242861  1
  Te  Te127  1  0.24765775  0.24843687  0.42241139  1
  Te  Te128  1  0.21975935  0.28175159  0.73843541  1
  Te  Te129  1  0.23311117  0.58226485  0.07539540  1
  Te  Te130  1  0.23258840  0.56045614  0.38835205  1
  Te  Te131  1  0.24701130  0.59376082  0.76625407  1
  Te  Te132  1  0.25526618  0.88139618  0.10452819  1
  Te  Te133  1  0.27563414  0.89649904  0.42549569  1
  Te  Te134  1  0.23872810  0.92943328  0.75747115  1
  Te  Te135  1  0.56634318  0.25175453  0.07743929  1
  Te  Te136  1  0.58603688  0.26220037  0.44025030  1
  Te  Te137  1  0.62125731  0.26003105  0.72805017  1
  Te  Te138  1  0.64051584  0.59267812  0.08882648  1
  Te  Te139  1  0.64470411  0.56552774  0.43221086  1
  Te  Te140  1  0.57501729  0.58369772  0.72970717  1
  Te  Te141  1  0.61687513  0.87740310  0.12584832  1
  Te  Te142  1  0.60740756  0.93290082  0.39770937  1
  Te  Te143  1  0.56935930  0.91615372  0.74821590  1
  Te  Te144  1  0.90013764  0.26525830  0.11159658  1
  Te  Te145  1  0.90253340  0.26912937  0.35850889  1
  Te  Te146  1  0.89636768  0.27093593  0.75724540  1
  Te  Te147  1  0.89019252  0.56253279  0.08625924  1
  Te  Te148  1  0.89833080  0.61529193  0.43662165  1
  Te  Te149  1  0.86674681  0.56556612  0.76805259  1
  Te  Te150  1  0.92246857  0.91117982  0.08139179  1
  Te  Te151  1  0.91694708  0.88882224  0.42553605  1
  Te  Te152  1  0.95643780  0.91703010  0.75097503  1
  Te  Te153  1  0.24580786  0.08003422  0.26397158  1
  Te  Te154  1  0.24752288  0.08562114  0.56793253  1
  Te  Te155  1  0.26926275  0.08185567  0.91361933  1
  Te  Te156  1  0.23297861  0.43909628  0.26265583  1
  Te  Te157  1  0.24622237  0.42999224  0.57258879  1
  Te  Te158  1  0.24472481  0.41141261  0.92414722  1
  Te  Te159  1  0.25954046  0.72958131  0.25024902  1
  Te  Te160  1  0.25688839  0.75262152  0.60370219  1
  Te  Te161  1  0.23799690  0.76418674  0.91510987  1
  Te  Te162  1  0.59875644  0.08712558  0.24019898  1
  Te  Te163  1  0.57110501  0.10099919  0.59070205  1
  Te  Te164  1  0.58226293  0.07060238  0.91180797  1
  Te  Te165  1  0.59449031  0.40999640  0.26393832  1
  Te  Te166  1  0.59031488  0.38596867  0.56270060  1
  Te  Te167  1  0.57402298  0.45046811  0.90409488  1
  Te  Te168  1  0.59709524  0.71432407  0.29111425  1
  Te  Te169  1  0.62981697  0.74435344  0.55730348  1
  Te  Te170  1  0.60843487  0.74260105  0.93141673  1
  Te  Te171  1  0.89512502  0.08013141  0.23353632  1
  Te  Te172  1  0.92441234  0.08530187  0.57379068  1
  Te  Te173  1  0.90033310  0.10575443  0.90486732  1
  Te  Te174  1  0.95363036  0.44962341  0.27769515  1
  Te  Te175  1  0.92573123  0.43464685  0.58436423  1
  Te  Te176  1  0.91944280  0.39899720  0.94420959  1
  Te  Te177  1  0.87231835  0.76920584  0.22474333  1
  Te  Te178  1  0.88893694  0.72937668  0.57360956  1
  Te  Te179  1  0.88940336  0.73307879  0.90710676  1
