# generated using pymatgen
data_In2Te3
_symmetry_space_group_name_H-M   'P 1'
_cell_length_a   18.79241871
_cell_length_b   18.78900576
_cell_length_c   18.78452120
_cell_angle_alpha   90.00630388
_cell_angle_beta   90.00543280
_cell_angle_gamma   90.02627203
_symmetry_Int_Tables_number   1
_chemical_formula_structural   In2Te3
_chemical_formula_sum   'In72 Te108'
_cell_volume   6632.64203919
_cell_formula_units_Z   36
loop_
 _symmetry_equiv_pos_site_id
 _symmetry_equiv_pos_as_xyz
  1  'x, y, z'
loop_
 _atom_site_type_symbol
 _atom_site_label
 _atom_site_symmetry_multiplicity
 _atom_site_fract_x
 _atom_site_fract_y
 _atom_site_fract_z
 _atom_site_occupancy
  In  In0  1  0.85004037  0.17402201  0.00112095  1
  In  In1  1  0.67611189  0.15292333  0.83759727  1
  In  In2  1  0.69263797  0.01272668  0.35497972  1
  In  In3  1  0.67801316  0.18928949  0.16989912  1
  In  In4  1  0.50377218  0.16245442  0.65446129  1
  In  In5  1  -0.00573549  0.00332459  0.34473803  1
  In  In6  1  0.33224863  0.68060874  0.67557389  1
  In  In7  1  0.12869730  0.65492191  0.18611265  1
  In  In8  1  0.83804927  0.66178906  0.17889176  1
  In  In9  1  0.83472175  0.32654544  0.84845419  1
  In  In10  1  0.83212527  0.32064520  0.49853359  1
  In  In11  1  0.35132737  0.83829083  0.84713810  1
  In  In12  1  0.64823712  0.00619417  -0.00167867  1
  In  In13  1  0.34404661  0.49824139  0.18083703  1
  In  In14  1  0.48730626  0.67801760  0.50609881  1
  In  In15  1  0.32716914  0.68066348  0.33751803  1
  In  In16  1  0.17585318  0.00442084  0.49192599  1
  In  In17  1  -0.00252882  0.17350580  0.84307543  1
  In  In18  1  0.17348600  0.82599868  0.68615314  1
  In  In19  1  0.67813238  0.47765712  0.50652694  1
  In  In20  1  0.16866695  0.16593262  -0.01087989  1
  In  In21  1  -0.01578444  0.01869402  -0.02198123  1
  In  In22  1  0.00848319  0.32057654  -0.00270197  1
  In  In23  1  0.13389054  0.67098256  0.49073469  1
  In  In24  1  0.33700330  0.30603645  0.35215207  1
  In  In25  1  0.83363633  0.65322070  0.82948921  1
  In  In26  1  0.33146577  0.84990323  0.16928996  1
  In  In27  1  -0.00381025  0.33208662  0.34006843  1
  In  In28  1  0.14379545  0.49004808  0.32168351  1
  In  In29  1  -0.01491048  0.82573722  0.48140951  1
  In  In30  1  -0.01827812  0.50127229  0.17789010  1
  In  In31  1  0.52948822  0.51006713  -0.00083097  1
  In  In32  1  0.01984269  0.33558952  0.65442654  1
  In  In33  1  0.68405651  0.82762606  0.48901191  1
  In  In34  1  0.81807900  0.14950327  0.65376106  1
  In  In35  1  0.17793359  0.00808386  0.82800820  1
  In  In36  1  0.15626021  0.49966549  0.65985633  1
  In  In37  1  0.32102939  0.48835297  0.52137584  1
  In  In38  1  0.50205818  0.01179571  0.50381705  1
  In  In39  1  0.51247199  0.32422174  0.17021743  1
  In  In40  1  0.17069841  0.51031224  -0.01539855  1
  In  In41  1  0.81475433  0.82677732  -0.00410839  1
  In  In42  1  0.33713386  0.86718616  0.49531749  1
  In  In43  1  0.34264426  0.17167243  0.81555191  1
  In  In44  1  0.50375505  0.66058746  0.83268227  1
  In  In45  1  0.17592485  0.17862240  0.64865498  1
  In  In46  1  0.32716968  0.31123198  -0.00550636  1
  In  In47  1  0.65638538  0.51139081  0.85751970  1
  In  In48  1  0.67481445  0.65759916  0.66089105  1
  In  In49  1  0.82684907  0.83024976  0.64184831  1
  In  In50  1  0.14981536  0.66738583  0.84046987  1
  In  In51  1  0.31620311  0.67368547  -0.01616881  1
  In  In52  1  -0.01983556  -0.00034807  0.64423737  1
  In  In53  1  0.66418401  0.33019950  0.67079722  1
  In  In54  1  0.83353395  0.51579206  0.65695915  1
  In  In55  1  0.20450807  0.01692286  0.18397779  1
  In  In56  1  0.53855371  0.67027193  0.16496782  1
  In  In57  1  0.33948595  0.16356939  0.50184453  1
  In  In58  1  0.49804658  0.84148439  0.00713581  1
  In  In59  1  0.51705935  0.15162466  0.35474380  1
  In  In60  1  0.00356790  0.82765950  0.81780761  1
  In  In61  1  0.68658654  0.65716866  0.01104989  1
  In  In62  1  0.50310323  0.30255210  0.49449131  1
  In  In63  1  0.35747202  0.46314759  0.79530957  1
  In  In64  1  -0.01551974  0.18769667  0.17432111  1
  In  In65  1  0.53239357  0.47946955  0.32138267  1
  In  In66  1  0.83413903  -0.01252520  0.18923568  1
  In  In67  1  0.68105372  0.66448548  0.33021002  1
  In  In68  1  0.00290128  0.82141421  0.17509476  1
  In  In69  1  0.16626585  0.30418465  0.14938363  1
  In  In70  1  0.63030843  0.86629142  0.80802106  1
  In  In71  1  0.47540635  0.01733906  0.14933685  1
  Te  Te72  1  0.06791202  0.09625276  0.07998926  1
  Te  Te73  1  0.08147025  0.09476174  0.42393679  1
  Te  Te74  1  0.07213324  0.08147946  0.74504080  1
  Te  Te75  1  0.09139145  0.42455355  0.09277405  1
  Te  Te76  1  0.07780087  0.41777324  0.43168711  1
  Te  Te77  1  0.07125022  0.42708564  0.75809580  1
  Te  Te78  1  0.08213214  0.74350644  0.07830173  1
  Te  Te79  1  0.09084754  0.77193358  0.39322977  1
  Te  Te80  1  0.06737104  0.72354778  0.72409416  1
  Te  Te81  1  0.38193642  0.09292342  0.06533730  1
  Te  Te82  1  0.39941270  0.06471096  0.40307009  1
  Te  Te83  1  0.43066518  0.06658611  0.74565232  1
  Te  Te84  1  0.41868010  0.41429734  0.07896465  1
  Te  Te85  1  0.42198736  0.42044647  0.41561450  1
  Te  Te86  1  0.44130993  0.37738577  0.71261068  1
  Te  Te87  1  0.42019226  0.73150725  0.08437780  1
  Te  Te88  1  0.42482016  0.77478115  0.40661966  1
  Te  Te89  1  0.43869381  0.76498386  0.74356492  1
  Te  Te90  1  0.76193357  0.07802641  0.08326628  1
  Te  Te91  1  0.79223220  0.09698183  0.42487678  1
  Te  Te92  1  0.72772960  0.06109103  0.73141495  1
  Te  Te93  1  0.71195372  0.41678845  0.12351891  1
  Te  Te94  1  0.77537065  0.42751147  0.40828404  1
  Te  Te95  1  0.75121193  0.42518898  0.75347175  1
  Te  Te96  1  0.73692929  0.76196098  0.10801891  1
  Te  Te97  1  0.78770100  0.74823484  0.40535047  1
  Te  Te98  1  0.73783829  0.75390388  0.76177667  1
  Te  Te99  1  0.09659282  0.23600893  0.26485459  1
  Te  Te100  1  0.05866096  0.22022792  0.56952615  1
  Te  Te101  1  0.10755065  0.26745298  0.89356197  1
  Te  Te102  1  0.03626830  0.59328382  0.29026263  1
  Te  Te103  1  0.06545625  0.55820000  0.55580225  1
  Te  Te104  1  0.06028474  0.58626737  0.92523250  1
  Te  Te105  1  0.08048849  0.93832880  0.23619968  1
  Te  Te106  1  0.08769847  0.90634551  0.58725603  1
  Te  Te107  1  0.08145784  0.92241615  0.91169285  1
  Te  Te108  1  0.42527939  0.22901172  0.25582834  1
  Te  Te109  1  0.39705287  0.27080148  0.60592485  1
  Te  Te110  1  0.42925742  0.24674748  0.91080879  1
  Te  Te111  1  0.43251766  0.59198703  0.26263038  1
  Te  Te112  1  0.41732621  0.57840533  0.59950799  1
  Te  Te113  1  0.40950124  0.57251976  0.91487303  1
  Te  Te114  1  0.41952968  0.93045621  0.25484008  1
  Te  Te115  1  0.43624574  0.91426121  0.59659233  1
  Te  Te116  1  0.43064128  0.93903907  0.92090409  1
  Te  Te117  1  0.77411649  0.28789248  0.22446659  1
  Te  Te118  1  0.72251111  0.23636785  0.56672341  1
  Te  Te119  1  0.73696851  0.25765130  0.94098646  1
  Te  Te120  1  0.76618860  0.56245318  0.26479294  1
  Te  Te121  1  0.76323202  0.60383619  0.54817395  1
  Te  Te122  1  0.77662133  0.55850953  0.93859320  1
  Te  Te123  1  0.74952341  0.90149135  0.27251406  1
  Te  Te124  1  0.72928107  0.92779725  0.59047449  1
  Te  Te125  1  0.73662297  0.92145706  0.90523401  1
  Te  Te126  1  0.28222274  0.20722425  0.10929250  1
  Te  Te127  1  0.23526731  0.25011207  0.44168994  1
  Te  Te128  1  0.23827334  0.25856171  0.75591340  1
  Te  Te129  1  0.25098696  0.58769921  0.10002971  1
  Te  Te130  1  0.24754353  0.57376128  0.41265488  1
  Te  Te131  1  0.25504861  0.58407706  0.76389341  1
  Te  Te132  1  0.24719521  0.92648353  0.07598643  1
  Te  Te133  1  0.24416799  0.91829932  0.39317154  1
  Te  Te134  1  0.27316499  0.92342595  0.74299609  1
  Te  Te135  1  0.57399948  0.23089758  0.07364414  1
  Te  Te136  1  0.60680594  0.26150949  0.39775697  1
  Te  Te137  1  0.57807816  0.24580832  0.76151859  1
  Te  Te138  1  0.62563327  0.54939773  0.11473630  1
  Te  Te139  1  0.58188945  0.58392133  0.42980750  1
  Te  Te140  1  0.57803900  0.56745635  0.73774434  1
  Te  Te141  1  0.58870341  0.91408156  0.10365720  1
  Te  Te142  1  0.58620986  0.91927643  0.41318835  1
  Te  Te143  1  0.54285912  0.95585873  0.73169045  1
  Te  Te144  1  0.89661866  0.28608239  0.09720107  1
  Te  Te145  1  0.91004279  0.22901270  0.40924717  1
  Te  Te146  1  0.90615620  0.24839701  0.73563930  1
  Te  Te147  1  0.91725464  0.58740081  0.07759420  1
  Te  Te148  1  0.89514882  0.65089562  0.45878717  1
  Te  Te149  1  0.93073284  0.57278545  0.75268012  1
  Te  Te150  1  0.91345784  0.91932235  0.07235916  1
  Te  Te151  1  0.89315894  0.92720302  0.42463786  1
  Te  Te152  1  0.90241921  0.91656259  0.74620546  1
  Te  Te153  1  0.27311472  0.12490783  0.25328140  1
  Te  Te154  1  0.26701294  0.06835561  0.59768465  1
  Te  Te155  1  0.27196128  0.07493070  0.92755945  1
  Te  Te156  1  0.25312353  0.39762527  0.24968098  1
  Te  Te157  1  0.23377123  0.39282528  0.59050174  1
  Te  Te158  1  0.25888779  0.41525004  0.90606992  1
  Te  Te159  1  0.23548916  0.75371205  0.24276875  1
  Te  Te160  1  0.25090056  0.74872287  0.56677633  1
  Te  Te161  1  0.22815030  0.77625968  0.91624856  1
  Te  Te162  1  0.59612356  0.08014877  0.24351078  1
  Te  Te163  1  0.60447238  0.10041711  0.56443458  1
  Te  Te164  1  0.56346235  0.09252158  0.91531882  1
  Te  Te165  1  0.63377456  0.38576871  0.25000706  1
  Te  Te166  1  0.56609022  0.41383509  0.58579582  1
  Te  Te167  1  0.57963288  0.40005671  0.91548793  1
  Te  Te168  1  0.58544041  0.76098221  0.26989060  1
  Te  Te169  1  0.58655163  0.75917803  0.58891149  1
  Te  Te170  1  0.59301240  0.74476845  0.92402224  1
  Te  Te171  1  0.89688482  0.10341603  0.26493014  1
  Te  Te172  1  0.89347157  0.07331148  0.54420465  1
  Te  Te173  1  0.88330217  0.07975166  0.88294640  1
  Te  Te174  1  0.89589878  0.41525534  0.26480783  1
  Te  Te175  1  0.91946460  0.42138372  0.57317447  1
  Te  Te176  1  0.92355780  0.41630630  0.92425528  1
  Te  Te177  1  0.90511291  0.76233914  0.26816782  1
  Te  Te178  1  0.92712320  0.73091843  0.58666713  1
  Te  Te179  1  0.91823320  0.74737842  0.91782465  1
