# generated using pymatgen
data_In2Te3
_symmetry_space_group_name_H-M   'P 1'
_cell_length_a   18.74975215
_cell_length_b   18.74775814
_cell_length_c   18.74403899
_cell_angle_alpha   89.96556208
_cell_angle_beta   90.03937450
_cell_angle_gamma   89.95546054
_symmetry_Int_Tables_number   1
_chemical_formula_structural   In2Te3
_chemical_formula_sum   'In72 Te108'
_cell_volume   6588.82146682
_cell_formula_units_Z   36
loop_
 _symmetry_equiv_pos_site_id
 _symmetry_equiv_pos_as_xyz
  1  'x, y, z'
loop_
 _atom_site_type_symbol
 _atom_site_label
 _atom_site_symmetry_multiplicity
 _atom_site_fract_x
 _atom_site_fract_y
 _atom_site_fract_z
 _atom_site_occupancy
  In  In0  1  0.82917960  0.66037318  0.82973708  1
  In  In1  1  0.00206952  0.00693948  0.65263032  1
  In  In2  1  0.02733135  0.65702739  0.01062105  1
  In  In3  1  0.83191697  0.00196287  0.50627806  1
  In  In4  1  0.14617326  0.49354864  -0.01836209  1
  In  In5  1  0.32601302  0.48935465  0.19335661  1
  In  In6  1  0.49289512  0.85447549  -0.03230272  1
  In  In7  1  0.48150434  0.16203630  0.66662321  1
  In  In8  1  0.50595625  0.84559913  0.68597417  1
  In  In9  1  0.85228657  0.65425073  0.17115180  1
  In  In10  1  0.83736609  0.31757760  0.17941441  1
  In  In11  1  0.17100912  -0.01804291  0.80503850  1
  In  In12  1  0.50261063  0.65106125  0.51433909  1
  In  In13  1  0.84059187  0.00586953  0.19284221  1
  In  In14  1  0.16418628  0.65237919  0.49451791  1
  In  In15  1  0.32030654  -0.03100542  -0.00421771  1
  In  In16  1  0.83287745  0.82721887  0.65084221  1
  In  In17  1  0.31006817  0.68436108  -0.02131076  1
  In  In18  1  0.00475648  0.17946783  0.51340051  1
  In  In19  1  0.67954275  0.00597670  0.34390843  1
  In  In20  1  0.51821505  0.19885883  0.36934029  1
  In  In21  1  0.84041510  0.65465068  0.50234709  1
  In  In22  1  0.03108161  0.31542390  0.33356146  1
  In  In23  1  0.02298800  -0.01725383  0.31395123  1
  In  In24  1  0.00314155  0.82076852  0.81626042  1
  In  In25  1  0.82570236  0.49337929  0.36864711  1
  In  In26  1  0.50373629  0.82944134  0.33577139  1
  In  In27  1  -0.01252002  0.34474514  0.64889437  1
  In  In28  1  0.50350572  -0.00309126  0.52627494  1
  In  In29  1  -0.00534182  0.34021165  -0.01293944  1
  In  In30  1  0.18735172  0.67398629  0.16705660  1
  In  In31  1  0.83169819  0.18743046  -0.00718040  1
  In  In32  1  0.16224365  0.49397796  0.35832131  1
  In  In33  1  0.66994958  0.65792851  0.65057807  1
  In  In34  1  0.48969719  0.51192020  -0.01168161  1
  In  In35  1  0.29737617  0.34524053  0.65383545  1
  In  In36  1  0.32414931  0.17295799  0.50838350  1
  In  In37  1  0.50066594  0.34432757  0.18188406  1
  In  In38  1  0.68502339  0.49447945  0.18878220  1
  In  In39  1  0.32078150  0.14863786  0.16694636  1
  In  In40  1  0.67065041  0.16805458  0.82746083  1
  In  In41  1  0.33736500  0.31203901  -0.02608455  1
  In  In42  1  0.82808665  0.83019153  0.34878894  1
  In  In43  1  0.01273220  0.01293982  0.02252193  1
  In  In44  1  -0.00798021  0.17553035  0.80916560  1
  In  In45  1  0.15460133  0.16488770  -0.00065185  1
  In  In46  1  0.83449480  0.18005854  0.36793295  1
  In  In47  1  0.33674039  0.66114453  0.65983028  1
  In  In48  1  0.50071050  0.32668003  0.82524785  1
  In  In49  1  0.52395417  0.49022519  0.64481437  1
  In  In50  1  0.00056986  0.48594685  0.81775306  1
  In  In51  1  0.18750252  0.83039824  0.00105529  1
  In  In52  1  0.49941082  0.50280642  0.35832460  1
  In  In53  1  0.50083286  0.00069608  0.14481524  1
  In  In54  1  0.68540990  0.47907913  0.77802095  1
  In  In55  1  0.51018636  0.18449480  -0.04061851  1
  In  In56  1  -0.00533497  0.50533431  0.15867166  1
  In  In57  1  0.50203252  0.67740971  0.17614879  1
  In  In58  1  -0.01130609  0.66819957  0.35366292  1
  In  In59  1  0.02530109  0.65945239  0.65550393  1
  In  In60  1  0.31317135  0.01348647  0.33167964  1
  In  In61  1  0.82514478  0.85268694  0.00120198  1
  In  In62  1  0.17501129  -0.00019286  0.51957882  1
  In  In63  1  0.66801644  0.67503955  -0.01870413  1
  In  In64  1  0.69088642  0.15192593  0.18074072  1
  In  In65  1  0.32594026  0.51518708  0.83322757  1
  In  In66  1  0.80019156  0.02199673  0.82520772  1
  In  In67  1  0.63642533  0.00559527  -0.01325103  1
  In  In68  1  0.34385761  0.84590684  0.50715886  1
  In  In69  1  0.30753061  0.82247379  0.16895976  1
  In  In70  1  0.67193026  0.32206397  0.00832993  1
  In  In71  1  0.32014231  0.33873772  0.36179934  1
  Te  Te72  1  0.07888508  0.10781186  0.11882780  1
  Te  Te73  1  0.07670750  0.07608909  0.42818672  1
  Te  Te74  1  0.09793547  0.09661815  0.73220239  1
  Te  Te75  1  0.08818866  0.40520766  0.09225827  1
  Te  Te76  1  0.09417525  0.39349781  0.44880814  1
  Te  Te77  1  0.09348509  0.40318450  0.73827956  1
  Te  Te78  1  0.08357698  0.76548816  0.09880269  1
  Te  Te79  1  0.08820071  0.75568510  0.41694941  1
  Te  Te80  1  0.10785040  0.75507370  0.73672356  1
  Te  Te81  1  0.41623806  0.08813798  0.05115880  1
  Te  Te82  1  0.42233933  0.07903848  0.41982612  1
  Te  Te83  1  0.43069788  0.06465807  0.76837042  1
  Te  Te84  1  0.41023409  0.41135848  0.07407304  1
  Te  Te85  1  0.42160781  0.40765053  0.44337313  1
  Te  Te86  1  0.41563010  0.42417091  0.74300601  1
  Te  Te87  1  0.41324256  0.75551898  0.07634128  1
  Te  Te88  1  0.41548163  0.74079688  0.42302680  1
  Te  Te89  1  0.41632618  0.74733021  0.75195248  1
  Te  Te90  1  0.75604455  0.06953462  0.06710166  1
  Te  Te91  1  0.72969272  0.10389556  0.44823438  1
  Te  Te92  1  0.73934253  0.09798484  0.71388216  1
  Te  Te93  1  0.76551478  0.41565973  0.08493809  1
  Te  Te94  1  0.74108909  0.39420563  0.44318503  1
  Te  Te95  1  0.78526621  0.39230583  0.70762383  1
  Te  Te96  1  0.75654266  0.74349030  0.08488220  1
  Te  Te97  1  0.74447166  0.74626128  0.43617311  1
  Te  Te98  1  0.74046134  0.75351155  0.74866243  1
  Te  Te99  1  0.08403809  0.21653016  0.23888498  1
  Te  Te100  1  0.09882860  0.25563567  0.59880704  1
  Te  Te101  1  0.08708010  0.25766114  0.89707916  1
  Te  Te102  1  0.08520487  0.58635733  0.25083652  1
  Te  Te103  1  0.11141387  0.54742115  0.59562664  1
  Te  Te104  1  0.09174724  0.59922454  0.88751761  1
  Te  Te105  1  0.11082958  0.91105681  0.22151167  1
  Te  Te106  1  0.08867267  0.90368094  0.59455300  1
  Te  Te107  1  0.07887461  0.91797755  0.92050083  1
  Te  Te108  1  0.41209246  0.24354713  0.25632240  1
  Te  Te109  1  0.41541850  0.27103566  0.58221286  1
  Te  Te110  1  0.38578169  0.22083350  0.85878960  1
  Te  Te111  1  0.41051974  0.59167838  0.26536359  1
  Te  Te112  1  0.40263554  0.55150239  0.57347915  1
  Te  Te113  1  0.42430283  0.61409416  0.89917580  1
  Te  Te114  1  0.41135482  0.92280234  0.24261567  1
  Te  Te115  1  0.38860654  0.94336223  0.61724874  1
  Te  Te116  1  0.38749070  0.90932628  0.87325091  1
  Te  Te117  1  0.73570538  0.25923223  0.27774241  1
  Te  Te118  1  0.73698824  0.29076977  0.55429999  1
  Te  Te119  1  0.76115703  0.27550596  0.89249341  1
  Te  Te120  1  0.75789619  0.59580832  0.27732370  1
  Te  Te121  1  0.76072397  0.55660443  0.58578572  1
  Te  Te122  1  0.73568434  0.56345539  0.90179863  1
  Te  Te123  1  0.73921475  0.90604622  0.24491055  1
  Te  Te124  1  0.73841454  0.91850684  0.58447860  1
  Te  Te125  1  0.72607715  0.90987047  0.89969920  1
  Te  Te126  1  0.24730834  0.25570912  0.08350966  1
  Te  Te127  1  0.22713475  0.23699550  0.41569928  1
  Te  Te128  1  0.26667896  0.25384513  0.76459855  1
  Te  Te129  1  0.25603357  0.56786614  0.07088667  1
  Te  Te130  1  0.26778536  0.57760561  0.41727797  1
  Te  Te131  1  0.23607333  0.57917309  0.73518717  1
  Te  Te132  1  0.22458167  0.94516756  0.11763861  1
  Te  Te133  1  0.24017931  0.90832658  0.41140891  1
  Te  Te134  1  0.28707849  0.91751166  0.73778109  1
  Te  Te135  1  0.58114466  0.23388580  0.09522550  1
  Te  Te136  1  0.59511521  0.26924991  0.47560836  1
  Te  Te137  1  0.59429225  0.25913918  0.72954773  1
  Te  Te138  1  0.58667354  0.56957935  0.09372077  1
  Te  Te139  1  0.60124481  0.58651115  0.42526652  1
  Te  Te140  1  0.57865044  0.58553136  0.75167553  1
  Te  Te141  1  0.59205622  0.89575736  0.08488529  1
  Te  Te142  1  0.59047441  0.91488740  0.42883301  1
  Te  Te143  1  0.59540321  0.93112212  0.76483171  1
  Te  Te144  1  0.93417735  0.24057493  0.09033348  1
  Te  Te145  1  0.92090648  0.28418410  0.43654193  1
  Te  Te146  1  0.89447408  0.26069510  0.73762937  1
  Te  Te147  1  0.90706579  0.57219890  0.05308788  1
  Te  Te148  1  0.94580353  0.55183680  0.44158783  1
  Te  Te149  1  0.91439257  0.58290181  0.73094072  1
  Te  Te150  1  0.92350348  0.91552048  0.10048123  1
  Te  Te151  1  0.92839613  0.91955388  0.42170461  1
  Te  Te152  1  0.90865999  0.92616795  0.75575248  1
  Te  Te153  1  0.21993042  0.11806163  0.27568421  1
  Te  Te154  1  0.25430444  0.08955997  0.60852969  1
  Te  Te155  1  0.23790400  0.07131232  0.91279347  1
  Te  Te156  1  0.22603395  0.39505485  0.25254448  1
  Te  Te157  1  0.21018895  0.42646907  0.56146654  1
  Te  Te158  1  0.24088798  0.40534924  0.89905764  1
  Te  Te159  1  0.25073742  0.74432361  0.28062415  1
  Te  Te160  1  0.24537593  0.75544387  0.57975485  1
  Te  Te161  1  0.23890480  0.76486744  0.87759616  1
  Te  Te162  1  0.57442531  0.08213855  0.25559306  1
  Te  Te163  1  0.59338654  0.08956699  0.59861993  1
  Te  Te164  1  0.55469476  0.05252550  0.85786612  1
  Te  Te165  1  0.59715245  0.40842253  0.27949194  1
  Te  Te166  1  0.61183035  0.40507085  0.56008983  1
  Te  Te167  1  0.58628078  0.41571757  0.91804728  1
  Te  Te168  1  0.60063763  0.74660957  0.26017685  1
  Te  Te169  1  0.58358618  0.76294337  0.58086261  1
  Te  Te170  1  0.57770398  0.75528867  0.89733583  1
  Te  Te171  1  0.92450128  0.10212804  0.27148453  1
  Te  Te172  1  0.89972864  0.10592186  0.59720512  1
  Te  Te173  1  0.92014744  0.08130964  0.91624037  1
  Te  Te174  1  0.92006683  0.41899739  0.26094341  1
  Te  Te175  1  0.88707963  0.44902168  0.60202099  1
  Te  Te176  1  0.90169609  0.42392114  0.90954505  1
  Te  Te177  1  0.92567990  0.76202348  0.25025806  1
  Te  Te178  1  0.93768860  0.75325143  0.56977992  1
  Te  Te179  1  0.91546519  0.75058005  0.92377795  1
