# generated using pymatgen
data_In2Te3
_symmetry_space_group_name_H-M   'P 1'
_cell_length_a   18.93656037
_cell_length_b   18.94451313
_cell_length_c   18.95400356
_cell_angle_alpha   89.91927505
_cell_angle_beta   90.16747766
_cell_angle_gamma   89.96422858
_symmetry_Int_Tables_number   1
_chemical_formula_structural   In2Te3
_chemical_formula_sum   'In72 Te108'
_cell_volume   6799.59633068
_cell_formula_units_Z   36
loop_
 _symmetry_equiv_pos_site_id
 _symmetry_equiv_pos_as_xyz
  1  'x, y, z'
loop_
 _atom_site_type_symbol
 _atom_site_label
 _atom_site_symmetry_multiplicity
 _atom_site_fract_x
 _atom_site_fract_y
 _atom_site_fract_z
 _atom_site_occupancy
  In  In0  1  0.84827585  0.00680613  0.48539123  1
  In  In1  1  0.13611015  0.46874838  0.02816139  1
  In  In2  1  0.65570476  0.49994746  0.50785593  1
  In  In3  1  0.67238689  0.00776616  0.62127207  1
  In  In4  1  0.47691702  0.48989488  0.65757611  1
  In  In5  1  0.66344044  0.80890063  0.81915260  1
  In  In6  1  0.32599418  0.48376737  0.85664645  1
  In  In7  1  0.34990417  0.14270504  0.48389037  1
  In  In8  1  0.87937768  0.70045757  0.50750103  1
  In  In9  1  0.32990231  0.85332386  0.82757763  1
  In  In10  1  0.32733666  0.83282843  0.15813309  1
  In  In11  1  0.82770406  0.52330211  0.35094637  1
  In  In12  1  0.02022494  0.34647761  0.34441809  1
  In  In13  1  0.82709947  0.16435847  0.02603209  1
  In  In14  1  0.67831820  0.84372883  0.48354541  1
  In  In15  1  0.33949138  0.68643004  0.34443810  1
  In  In16  1  0.68337413  0.83638060  0.18212604  1
  In  In17  1  0.68103434  0.33598831  0.66583173  1
  In  In18  1  0.82805201  0.15576790  0.31597721  1
  In  In19  1  0.17756091  0.66443165  0.17706296  1
  In  In20  1  0.83690879  0.33182764  0.50980004  1
  In  In21  1  0.53472301  0.63702513  0.14904455  1
  In  In22  1  0.50475737  0.66613894  0.84136760  1
  In  In23  1  0.33094421  0.85921738  0.48530644  1
  In  In24  1  0.15092761  0.49137137  0.66374180  1
  In  In25  1  0.87092789  0.48747426  0.64230575  1
  In  In26  1  0.28258411  0.34323638  0.34172140  1
  In  In27  1  0.81949112  0.64189459  0.82835111  1
  In  In28  1  0.15564813  0.14973738  0.01780516  1
  In  In29  1  0.02552281  0.18506159  0.51028842  1
  In  In30  1  0.34314896  0.15781605  0.17032657  1
  In  In31  1  0.66570579  0.65243457  0.66485669  1
  In  In32  1  -0.00801552  0.17256479  0.84380353  1
  In  In33  1  0.14660100  -0.01551819  0.18781917  1
  In  In34  1  0.51442868  0.84207262  0.31829790  1
  In  In35  1  0.31101937  0.00211694  0.67153972  1
  In  In36  1  0.00881021  -0.00661345  0.66255265  1
  In  In37  1  0.66166625  0.14975298  0.82054322  1
  In  In38  1  0.84053226  0.83554439  0.33140929  1
  In  In39  1  0.83785415  0.02535455  0.82407085  1
  In  In40  1  0.31422767  0.64351673  0.64526249  1
  In  In41  1  0.17783585  0.83091617  -0.00643680  1
  In  In42  1  0.65774051  0.32097146  0.02952888  1
  In  In43  1  0.51149814  0.02311755  0.19250797  1
  In  In44  1  -0.00211924  0.67286925  0.31711847  1
  In  In45  1  0.85439591  0.32902226  0.17958409  1
  In  In46  1  0.83938701  -0.00718757  0.17503249  1
  In  In47  1  0.81439064  0.65069692  0.15794075  1
  In  In48  1  0.82077208  0.50755473  -0.01867536  1
  In  In49  1  0.01838899  0.81410945  0.81232158  1
  In  In50  1  0.50492258  0.48949536  0.33918002  1
  In  In51  1  0.66944829  -0.00467748  0.01510846  1
  In  In52  1  0.66680834  0.47605408  0.87231530  1
  In  In53  1  -0.00115101  0.67019594  0.00075132  1
  In  In54  1  0.33573709  0.33100379  0.00933207  1
  In  In55  1  0.32560989  0.49074979  0.17486755  1
  In  In56  1  0.49659958  -0.01689107  0.84843137  1
  In  In57  1  0.50079274  0.16786755  0.66634343  1
  In  In58  1  0.16010915  0.00760999  0.49768406  1
  In  In59  1  0.01570058  0.49424332  0.83308244  1
  In  In60  1  0.15219030  0.68511941  0.48617017  1
  In  In61  1  0.49834833  0.83554742  0.67498630  1
  In  In62  1  0.33730508  0.68083450  -0.00973461  1
  In  In63  1  0.50679854  0.29328947  0.45256218  1
  In  In64  1  0.31841876  0.51553066  0.50773178  1
  In  In65  1  0.16351409  0.00207928  0.84302924  1
  In  In66  1  0.14614283  0.17197780  0.31498528  1
  In  In67  1  0.84058365  0.85660272  0.00547566  1
  In  In68  1  0.51062328  0.32036435  0.19486025  1
  In  In69  1  0.32063880  0.18935780  0.84460005  1
  In  In70  1  0.31402920  0.34547046  0.66352143  1
  In  In71  1  0.83368726  0.33058640  0.82879924  1
  Te  Te72  1  0.06356949  0.08539998  0.11611004  1
  Te  Te73  1  0.06367917  0.08250593  0.40529621  1
  Te  Te74  1  0.08508433  0.09104396  0.75021980  1
  Te  Te75  1  0.05887546  0.36702027  0.10115046  1
  Te  Te76  1  0.13460217  0.40626952  0.41480721  1
  Te  Te77  1  0.07919732  0.39147296  0.74729703  1
  Te  Te78  1  0.08925902  0.75385595  0.08907897  1
  Te  Te79  1  0.08033067  0.77730944  0.38939166  1
  Te  Te80  1  0.06707669  0.72272178  0.70878920  1
  Te  Te81  1  0.43990608  0.09042113  0.08239586  1
  Te  Te82  1  0.46437964  0.07432721  0.42077238  1
  Te  Te83  1  0.41486717  0.07607746  0.75638976  1
  Te  Te84  1  0.42709798  0.41331625  0.09837991  1
  Te  Te85  1  0.40055448  0.41522479  0.42327094  1
  Te  Te86  1  0.41384477  0.40209194  0.76336901  1
  Te  Te87  1  0.42808620  0.73902809  0.09614325  1
  Te  Te88  1  0.43577268  0.76617761  0.42726684  1
  Te  Te89  1  0.40640653  0.73598086  0.74370675  1
  Te  Te90  1  0.73327113  0.08777986  0.11551242  1
  Te  Te91  1  0.74750161  0.09278461  0.42177625  1
  Te  Te92  1  0.75587984  0.09465950  0.71671166  1
  Te  Te93  1  0.76271577  0.41383269  0.08534806  1
  Te  Te94  1  0.74558704  0.41539334  0.42051222  1
  Te  Te95  1  0.75910383  0.44151375  0.74723216  1
  Te  Te96  1  0.74611409  0.75770255  0.06975715  1
  Te  Te97  1  0.76324173  0.73527738  0.41702275  1
  Te  Te98  1  0.76784166  0.74680627  0.72926630  1
  Te  Te99  1  0.07832028  0.27216167  0.22603051  1
  Te  Te100  1  0.04251409  0.28580121  0.61756395  1
  Te  Te101  1  0.09608189  0.24230530  0.92008323  1
  Te  Te102  1  0.07600940  0.57738566  0.23584353  1
  Te  Te103  1  0.08225650  0.60098741  0.58881795  1
  Te  Te104  1  0.09563457  0.58202652  0.92606273  1
  Te  Te105  1  0.08520199  0.89337217  0.28511919  1
  Te  Te106  1  0.08336472  0.90334548  0.57133542  1
  Te  Te107  1  0.06975203  0.90975710  0.91946225  1
  Te  Te108  1  0.39225021  0.26121871  0.26896749  1
  Te  Te109  1  0.40761538  0.25499663  0.57951488  1
  Te  Te110  1  0.42576428  0.25525139  0.92093118  1
  Te  Te111  1  0.41261252  0.59343378  0.24909697  1
  Te  Te112  1  0.43449962  0.60002696  0.56292371  1
  Te  Te113  1  0.42551766  0.57156544  0.93057840  1
  Te  Te114  1  0.40781620  0.92361206  0.24905168  1
  Te  Te115  1  0.41729945  0.93135336  0.58948886  1
  Te  Te116  1  0.41685426  0.89687938  0.93672281  1
  Te  Te117  1  0.74351830  0.26210190  0.25264054  1
  Te  Te118  1  0.73688378  0.24231737  0.56934231  1
  Te  Te119  1  0.74712689  0.23834898  0.91336549  1
  Te  Te120  1  0.73234091  0.56825926  0.24710625  1
  Te  Te121  1  0.77051258  0.58515397  0.57611276  1
  Te  Te122  1  0.70811479  0.61142185  0.93174503  1
  Te  Te123  1  0.74045694  0.93738326  0.27729398  1
  Te  Te124  1  0.77633496  0.90551108  0.58098255  1
  Te  Te125  1  0.74329400  0.92425097  0.90086577  1
  Te  Te126  1  0.24548639  0.24770443  0.09683780  1
  Te  Te127  1  0.23586872  0.22652627  0.42683397  1
  Te  Te128  1  0.23772058  0.24597250  0.73817082  1
  Te  Te129  1  0.25260866  0.57791632  0.06886663  1
  Te  Te130  1  0.23800081  0.59080001  0.40297997  1
  Te  Te131  1  0.24652176  0.56715004  0.75668060  1
  Te  Te132  1  0.24763288  0.93328278  0.07878351  1
  Te  Te133  1  0.26106219  0.95672475  0.40189362  1
  Te  Te134  1  0.21765128  0.90422053  0.73826487  1
  Te  Te135  1  0.57545348  0.22411786  0.10313942  1
  Te  Te136  1  0.61336463  0.25220256  0.35951707  1
  Te  Te137  1  0.58294131  0.26164505  0.75484890  1
  Te  Te138  1  0.60198307  0.57075133  0.03930822  1
  Te  Te139  1  0.57674864  0.58806705  0.42203195  1
  Te  Te140  1  0.57883436  0.56239951  0.75167520  1
  Te  Te141  1  0.57919798  0.91360201  0.10382475  1
  Te  Te142  1  0.57851525  0.93036892  0.41857745  1
  Te  Te143  1  0.59846649  0.93320036  0.74013015  1
  Te  Te144  1  0.93027751  0.26347035  0.06800672  1
  Te  Te145  1  0.92121528  0.24764328  0.40877366  1
  Te  Te146  1  0.91328870  0.24632720  0.73961879  1
  Te  Te147  1  0.91892947  0.57015966  0.08093130  1
  Te  Te148  1  0.94175714  0.58659549  0.43066761  1
  Te  Te149  1  0.93106404  0.58395793  0.74392399  1
  Te  Te150  1  0.93593920  0.90920163  0.10121981  1
  Te  Te151  1  0.93565271  0.91881477  0.40489601  1
  Te  Te152  1  0.91640632  0.91585118  0.75563083  1
  Te  Te153  1  0.25068673  0.07701938  0.25903498  1
  Te  Te154  1  0.23939935  0.10284393  0.58603520  1
  Te  Te155  1  0.26280194  0.07653176  0.92721187  1
  Te  Te156  1  0.21172929  0.43208305  0.24743175  1
  Te  Te157  1  0.21823026  0.40712950  0.55319772  1
  Te  Te158  1  0.22390024  0.39640000  0.92614432  1
  Te  Te159  1  0.24032393  0.77030357  0.26532164  1
  Te  Te160  1  0.25212641  0.76054502  0.57333043  1
  Te  Te161  1  0.24188134  0.74256739  0.88912808  1
  Te  Te162  1  0.54674679  0.12453869  0.29970377  1
  Te  Te163  1  0.57268559  0.09770601  0.55684422  1
  Te  Te164  1  0.57902771  0.08289748  0.92779679  1
  Te  Te165  1  0.59343601  0.43638043  0.23610471  1
  Te  Te166  1  0.56531597  0.39729452  0.57560822  1
  Te  Te167  1  0.56755619  0.38990416  0.93347150  1
  Te  Te168  1  0.59760331  0.73300401  0.25250722  1
  Te  Te169  1  0.59451183  0.76057635  0.58558948  1
  Te  Te170  1  0.56010756  0.77982446  0.91809235  1
  Te  Te171  1  0.93267439  0.09488163  0.22993443  1
  Te  Te172  1  0.92734654  0.09381682  0.58320917  1
  Te  Te173  1  0.91781282  0.07593091  0.94096126  1
  Te  Te174  1  0.92038158  0.43392386  0.26828226  1
  Te  Te175  1  0.96204419  0.40479291  0.55739851  1
  Te  Te176  1  0.92243959  0.41223318  0.92007397  1
  Te  Te177  1  0.90716628  0.75176400  0.22378991  1
  Te  Te178  1  0.97515877  0.77285958  0.59249209  1
  Te  Te179  1  0.90341780  0.74549647  0.90782486  1
