# generated using pymatgen
data_In2Te3
_symmetry_space_group_name_H-M   'P 1'
_cell_length_a   18.86728077
_cell_length_b   18.84427950
_cell_length_c   18.87024668
_cell_angle_alpha   90.21843446
_cell_angle_beta   89.89732957
_cell_angle_gamma   89.86951392
_symmetry_Int_Tables_number   1
_chemical_formula_structural   In2Te3
_chemical_formula_sum   'In72 Te108'
_cell_volume   6709.05636519
_cell_formula_units_Z   36
loop_
 _symmetry_equiv_pos_site_id
 _symmetry_equiv_pos_as_xyz
  1  'x, y, z'
loop_
 _atom_site_type_symbol
 _atom_site_label
 _atom_site_symmetry_multiplicity
 _atom_site_fract_x
 _atom_site_fract_y
 _atom_site_fract_z
 _atom_site_occupancy
  In  In0  1  0.32761605  -0.01447381  0.02535760  1
  In  In1  1  0.65303834  0.68383546  0.30775696  1
  In  In2  1  0.83317084  0.51444006  0.68299369  1
  In  In3  1  0.18186293  0.16986352  0.03428071  1
  In  In4  1  0.85150916  0.66694282  0.50341995  1
  In  In5  1  0.64675873  -0.00483162  0.34991226  1
  In  In6  1  0.02184989  0.66918535  0.35744315  1
  In  In7  1  0.32844720  0.63850125  0.64137411  1
  In  In8  1  0.50376068  0.15113863  0.00789665  1
  In  In9  1  -0.01947672  0.00088945  0.32807885  1
  In  In10  1  0.36702551  0.17611116  0.82977703  1
  In  In11  1  0.16521706  0.50681993  0.37293334  1
  In  In12  1  0.66052618  0.16415041  0.84278476  1
  In  In13  1  0.35596083  0.69306503  0.03599712  1
  In  In14  1  0.32625927  0.49639996  0.83374560  1
  In  In15  1  -0.01313734  0.50800910  0.14711944  1
  In  In16  1  0.83662269  0.16993783  0.67905766  1
  In  In17  1  0.48805316  0.36179888  0.18179567  1
  In  In18  1  0.02419709  0.35037388  -0.01845036  1
  In  In19  1  0.15696751  0.82870492  0.69280721  1
  In  In20  1  0.81202674  0.51732344  -0.03199014  1
  In  In21  1  0.62689792  0.17989657  0.47000262  1
  In  In22  1  0.34122607  0.03097104  0.67441302  1
  In  In23  1  0.62785197  0.48724470  0.15906756  1
  In  In24  1  0.82466982  0.51725096  0.35384006  1
  In  In25  1  0.82700329  0.76680282  0.69737219  1
  In  In26  1  0.83952139  -0.00918959  0.49788000  1
  In  In27  1  0.65259164  0.33814847  -0.01863020  1
  In  In28  1  0.15654172  0.16288619  0.65308755  1
  In  In29  1  0.48954772  -0.01621990  0.17186121  1
  In  In30  1  0.18398003  0.80938572  0.32356835  1
  In  In31  1  0.33642179  0.82773331  0.49852241  1
  In  In32  1  0.00664925  0.51205269  0.82332054  1
  In  In33  1  0.48482532  0.51443026  0.00665576  1
  In  In34  1  0.34334522  0.84566646  0.83742626  1
  In  In35  1  0.51349041  0.84248150  0.68828289  1
  In  In36  1  0.47268132  0.02743465  0.47619890  1
  In  In37  1  0.18239972  0.02099873  0.19506939  1
  In  In38  1  -0.06031180  -0.07165298  -0.02398083  1
  In  In39  1  0.32003467  0.33666502  0.35425977  1
  In  In40  1  -0.01106352  0.82736521  0.15408049  1
  In  In41  1  0.48704891  0.65932337  0.50399866  1
  In  In42  1  0.48747816  0.17226335  0.65746876  1
  In  In43  1  0.66064281  0.67992773  -0.01835168  1
  In  In44  1  -0.01860124  -0.03293346  0.69120347  1
  In  In45  1  0.83840445  0.83738370  0.32944355  1
  In  In46  1  0.16189355  0.66789817  0.82915451  1
  In  In47  1  0.81989415  0.31073610  0.16047638  1
  In  In48  1  0.67143648  0.15383227  0.16804776  1
  In  In49  1  0.01952031  0.17812296  0.49904750  1
  In  In50  1  0.52432306  0.67130637  0.81670102  1
  In  In51  1  0.84191464  0.14922732  0.02936238  1
  In  In52  1  0.47220826  0.51639728  0.31564151  1
  In  In53  1  0.66344296  -0.01761644  0.68058216  1
  In  In54  1  0.00765649  0.14117554  0.17333204  1
  In  In55  1  0.32256139  0.34390493  0.63729505  1
  In  In56  1  0.18533984  0.67017271  0.16509676  1
  In  In57  1  0.86066945  0.32834270  0.51037983  1
  In  In58  1  0.83073376  0.31442984  0.79805222  1
  In  In59  1  0.15364306  0.85203901  0.00147152  1
  In  In60  1  0.68619187  0.35836063  0.64615582  1
  In  In61  1  0.51259785  0.34895616  0.83995761  1
  In  In62  1  0.82472299  0.66316792  0.13658819  1
  In  In63  1  0.66228649  0.48208344  0.50104733  1
  In  In64  1  0.17155229  0.33580697  0.18727059  1
  In  In65  1  -0.00163480  0.33823327  0.32922891  1
  In  In66  1  0.64154216  0.82591820  0.15781286  1
  In  In67  1  0.64949875  0.85890833  0.48892248  1
  In  In68  1  -0.02052691  0.17809008  0.83311463  1
  In  In69  1  0.16427463  0.35619065  0.81402342  1
  In  In70  1  0.19342252  0.00072250  0.50054662  1
  In  In71  1  0.15235944  0.00159943  0.87471127  1
  Te  Te72  1  0.09048179  0.05685833  0.07634623  1
  Te  Te73  1  0.08545201  0.06964588  0.41501206  1
  Te  Te74  1  0.07696997  0.07773091  0.75482748  1
  Te  Te75  1  0.10163719  0.42970609  0.08374646  1
  Te  Te76  1  0.09486428  0.38525195  0.43147322  1
  Te  Te77  1  0.08345609  0.43496126  0.72183332  1
  Te  Te78  1  0.08225947  0.73772546  0.07409603  1
  Te  Te79  1  0.10672079  0.75721680  0.43778272  1
  Te  Te80  1  0.07028320  0.71231794  0.72060971  1
  Te  Te81  1  0.40106311  0.09438149  0.10336028  1
  Te  Te82  1  0.38741544  0.10094925  0.38146704  1
  Te  Te83  1  0.45510307  0.06831222  0.76748916  1
  Te  Te84  1  0.39742047  0.43037685  0.08895168  1
  Te  Te85  1  0.39718869  0.44699439  0.42544906  1
  Te  Te86  1  0.41619125  0.41238732  0.74254172  1
  Te  Te87  1  0.42067951  0.79277447  0.12580077  1
  Te  Te88  1  0.41462808  0.74241594  0.40641963  1
  Te  Te89  1  0.39847881  0.74662002  0.73428265  1
  Te  Te90  1  0.73017126  0.06182427  0.06673900  1
  Te  Te91  1  0.74439357  0.08312995  0.42544267  1
  Te  Te92  1  0.75630140  0.07382168  0.76420236  1
  Te  Te93  1  0.75019736  0.42394659  0.07720260  1
  Te  Te94  1  0.75906926  0.39646053  0.41770907  1
  Te  Te95  1  0.73647631  0.43014439  0.76921013  1
  Te  Te96  1  0.75553108  0.77561176  0.06659144  1
  Te  Te97  1  0.74490937  0.74992280  0.41744832  1
  Te  Te98  1  0.69772113  0.71337857  0.75417684  1
  Te  Te99  1  0.08875979  0.23250418  0.26284130  1
  Te  Te100  1  0.11105684  0.27467122  0.56497450  1
  Te  Te101  1  0.09722561  0.23452917  0.91247202  1
  Te  Te102  1  0.08039509  0.58002469  0.24691174  1
  Te  Te103  1  0.14948413  0.55722869  0.51956902  1
  Te  Te104  1  0.09384725  0.57706765  0.92196103  1
  Te  Te105  1  0.07947343  0.90721714  0.25210595  1
  Te  Te106  1  0.09414348  0.92754387  0.59499735  1
  Te  Te107  1  0.07108400  0.87389239  0.87623655  1
  Te  Te108  1  0.42788310  0.25962558  0.27427599  1
  Te  Te109  1  0.42551024  0.26494069  0.56212702  1
  Te  Te110  1  0.42855144  0.26613845  0.93527031  1
  Te  Te111  1  0.39732451  0.60687416  0.22816190  1
  Te  Te112  1  0.44826318  0.55883795  0.60431953  1
  Te  Te113  1  0.40935083  0.60324589  0.90544651  1
  Te  Te114  1  0.37646807  0.90402850  0.22585168  1
  Te  Te115  1  0.41729774  0.92636515  0.59107161  1
  Te  Te116  1  0.42394855  0.91867672  0.93564439  1
  Te  Te117  1  0.74788669  0.23773022  0.26309969  1
  Te  Te118  1  0.74417583  0.23442009  0.57643292  1
  Te  Te119  1  0.76483787  0.24691002  0.92845500  1
  Te  Te120  1  0.74475370  0.57769329  0.23542212  1
  Te  Te121  1  0.74695466  0.58412000  0.57693229  1
  Te  Te122  1  0.76535549  0.63234076  0.88494443  1
  Te  Te123  1  0.73035321  0.91030134  0.25457742  1
  Te  Te124  1  0.75810195  0.90015384  0.58940565  1
  Te  Te125  1  0.80870566  0.86826434  0.91801938  1
  Te  Te126  1  0.27067721  0.25666836  0.10943093  1
  Te  Te127  1  0.25839823  0.21064603  0.40515558  1
  Te  Te128  1  0.26014852  0.24322445  0.74428416  1
  Te  Te129  1  0.26696351  0.58338345  0.07677044  1
  Te  Te130  1  0.28282905  0.57585006  0.44745854  1
  Te  Te131  1  0.23388921  0.56693215  0.73622765  1
  Te  Te132  1  0.24280661  0.89800592  0.11964319  1
  Te  Te133  1  0.26750286  0.91805742  0.39628133  1
  Te  Te134  1  0.25090533  0.93965772  0.75502939  1
  Te  Te135  1  0.58219817  0.26273074  0.09186884  1
  Te  Te136  1  0.54179851  0.25695193  0.38203522  1
  Te  Te137  1  0.59107340  0.25589793  0.74442170  1
  Te  Te138  1  0.57416591  0.60825735  0.08771850  1
  Te  Te139  1  0.59154537  0.58452592  0.40571879  1
  Te  Te140  1  0.60313063  0.59813698  0.71754645  1
  Te  Te141  1  0.58789197  0.93351693  0.07174364  1
  Te  Te142  1  0.53448168  0.90714032  0.40182636  1
  Te  Te143  1  0.61315523  0.89206472  0.78637751  1
  Te  Te144  1  0.94880241  0.25854873  0.08415925  1
  Te  Te145  1  0.91516108  0.23236074  0.40323551  1
  Te  Te146  1  0.94957465  0.26811779  0.71447103  1
  Te  Te147  1  0.92252902  0.59566973  0.04078084  1
  Te  Te148  1  0.94309897  0.56273779  0.43629332  1
  Te  Te149  1  0.91412790  0.61284844  0.76140254  1
  Te  Te150  1  0.90029866  0.94034775  0.12013876  1
  Te  Te151  1  0.93695405  0.89461384  0.42979773  1
  Te  Te152  1  0.87280292  0.89574238  0.76464493  1
  Te  Te153  1  0.26190440  0.10795579  0.28572395  1
  Te  Te154  1  0.27414912  0.11263978  0.56634369  1
  Te  Te155  1  0.26970764  0.09206121  0.91876941  1
  Te  Te156  1  0.25221065  0.43892934  0.26324555  1
  Te  Te157  1  0.26414300  0.44949648  0.54647187  1
  Te  Te158  1  0.25489755  0.39990227  0.91909063  1
  Te  Te159  1  0.28202177  0.69974526  0.27828645  1
  Te  Te160  1  0.24054274  0.75213933  0.58733370  1
  Te  Te161  1  0.25694130  0.75840675  0.92870676  1
  Te  Te162  1  0.56860815  0.08456942  0.25666145  1
  Te  Te163  1  0.58584781  0.07126913  0.57959056  1
  Te  Te164  1  0.59158035  0.06484084  0.92612563  1
  Te  Te165  1  0.59111703  0.41216781  0.28342218  1
  Te  Te166  1  0.56654967  0.39078750  0.56747454  1
  Te  Te167  1  0.59164536  0.45852300  0.91138385  1
  Te  Te168  1  0.53997442  0.75193314  0.23929153  1
  Te  Te169  1  0.57959544  0.75902765  0.57862288  1
  Te  Te170  1  0.55707050  0.76849505  0.92288538  1
  Te  Te171  1  0.89070771  0.07420668  0.23605796  1
  Te  Te172  1  0.92812824  0.07785800  0.58936327  1
  Te  Te173  1  0.91396073  0.07360103  0.91824066  1
  Te  Te174  1  0.90346442  0.42534629  0.24488539  1
  Te  Te175  1  0.92096664  0.43375841  0.59278183  1
  Te  Te176  1  0.90653829  0.40636958  0.90431798  1
  Te  Te177  1  0.91162029  0.72546577  0.25327472  1
  Te  Te178  1  0.92687401  0.75964315  0.58863590  1
  Te  Te179  1  0.93300788  0.78550424  0.93263889  1
