# generated using pymatgen
data_In2Te3
_symmetry_space_group_name_H-M   'P 1'
_cell_length_a   18.76840214
_cell_length_b   18.76648243
_cell_length_c   18.77086266
_cell_angle_alpha   90.01555985
_cell_angle_beta   89.99654398
_cell_angle_gamma   90.01454378
_symmetry_Int_Tables_number   1
_chemical_formula_structural   In2Te3
_chemical_formula_sum   'In72 Te108'
_cell_volume   6611.41437933
_cell_formula_units_Z   36
loop_
 _symmetry_equiv_pos_site_id
 _symmetry_equiv_pos_as_xyz
  1  'x, y, z'
loop_
 _atom_site_type_symbol
 _atom_site_label
 _atom_site_symmetry_multiplicity
 _atom_site_fract_x
 _atom_site_fract_y
 _atom_site_fract_z
 _atom_site_occupancy
  In  In0  1  0.15254224  0.52370100  0.34284645  1
  In  In1  1  0.83123601  0.16563182  0.68520480  1
  In  In2  1  0.66154547  0.33230034  0.33918523  1
  In  In3  1  0.00101157  -0.01152672  -0.00236458  1
  In  In4  1  0.48883653  0.32750227  0.48858950  1
  In  In5  1  0.17526728  0.50790562  -0.01243177  1
  In  In6  1  0.83311851  0.52983891  0.66052843  1
  In  In7  1  0.00305957  0.53111576  0.16680369  1
  In  In8  1  0.67557586  0.83633965  0.16096604  1
  In  In9  1  0.53196552  0.69020965  0.51977456  1
  In  In10  1  0.50034525  0.84126865  0.34285181  1
  In  In11  1  0.35034989  0.51883057  0.15796950  1
  In  In12  1  0.32535693  0.83336868  0.52680128  1
  In  In13  1  -0.00217103  0.67571924  0.34536655  1
  In  In14  1  -0.01427679  0.67044040  -0.00785237  1
  In  In15  1  0.67102252  0.52498782  0.16804414  1
  In  In16  1  0.00108309  0.82104796  0.83757249  1
  In  In17  1  -0.01613271  0.33092319  -0.00700311  1
  In  In18  1  0.51045548  -0.02840634  0.51383863  1
  In  In19  1  0.84352612  0.12454743  0.33816324  1
  In  In20  1  0.32995574  0.84071926  0.81904095  1
  In  In21  1  0.65994155  -0.04836369  0.67329527  1
  In  In22  1  0.65476340  0.51427987  0.84921280  1
  In  In23  1  0.17625852  0.32785963  0.16434918  1
  In  In24  1  0.01313891  0.15827739  0.85004613  1
  In  In25  1  0.02001015  0.49706315  0.80527712  1
  In  In26  1  0.49304337  0.13693825  0.68603229  1
  In  In27  1  0.34460314  0.67398395  -0.00455253  1
  In  In28  1  0.84431325  0.35153001  0.83782844  1
  In  In29  1  0.32649280  -0.01651512  0.00269493  1
  In  In30  1  0.30974475  0.14354183  0.50326041  1
  In  In31  1  0.67821203  0.53213259  0.52584907  1
  In  In32  1  0.30336288  0.53292194  0.80239628  1
  In  In33  1  0.66288274  0.14236899  0.19179633  1
  In  In34  1  0.50588383  0.68520002  0.81829070  1
  In  In35  1  0.65970925  0.15359118  0.81715112  1
  In  In36  1  0.17221803  0.83018792  -0.01299696  1
  In  In37  1  0.01342062  0.85216002  0.18457983  1
  In  In38  1  -0.00390751  -0.03356776  0.66620269  1
  In  In39  1  0.82527278  0.32635949  0.13315768  1
  In  In40  1  0.84373739  0.16528353  0.00236888  1
  In  In41  1  0.30223102  0.15386032  0.16542665  1
  In  In42  1  0.51400571  0.17092894  0.31462231  1
  In  In43  1  0.34079970  -0.01559414  0.33874912  1
  In  In44  1  0.16011845  0.16590166  0.00228681  1
  In  In45  1  0.82405541  0.51936607  0.30969478  1
  In  In46  1  0.02434401  0.17322992  0.51130890  1
  In  In47  1  0.48984370  0.53807511  0.31429059  1
  In  In48  1  0.31382912  0.51185327  0.51666229  1
  In  In49  1  0.19498710  0.14526803  0.35514809  1
  In  In50  1  0.48531625  -0.02425975  0.17369437  1
  In  In51  1  0.34627813  0.14816153  0.83177435  1
  In  In52  1  -0.01616432  0.69776785  0.65843834  1
  In  In53  1  0.66322354  0.35152814  0.00094979  1
  In  In54  1  0.48199822  0.35163737  0.13607064  1
  In  In55  1  0.83875952  -0.01671767  0.48978771  1
  In  In56  1  0.84075915  0.82218086  0.35271243  1
  In  In57  1  0.84057204  0.34288604  0.51716501  1
  In  In58  1  0.66635617  0.67014186  -0.00354477  1
  In  In59  1  0.31491922  0.32488649  0.34598481  1
  In  In60  1  0.50637526  0.68488308  0.14068766  1
  In  In61  1  0.51396939  0.16025430  -0.01928273  1
  In  In62  1  0.66081038  0.31374468  0.66847507  1
  In  In63  1  0.49879585  0.51424517  0.67817436  1
  In  In64  1  0.14798635  0.68385960  0.50713561  1
  In  In65  1  0.00495588  0.50947517  0.50652254  1
  In  In66  1  0.15949636  -0.00991382  0.50993718  1
  In  In67  1  0.69385030  -0.04068589  -0.03688225  1
  In  In68  1  0.83686657  -0.00992945  0.16739091  1
  In  In69  1  0.16637738  0.15629268  0.65344940  1
  In  In70  1  0.01143344  0.33006966  0.32725617  1
  In  In71  1  0.32337662  0.34075745  0.66643553  1
  Te  Te72  1  0.07888834  0.07731858  0.08740559  1
  Te  Te73  1  0.07338236  0.06923933  0.41091146  1
  Te  Te74  1  0.08117987  0.06919227  0.74613081  1
  Te  Te75  1  0.07967069  0.42023551  0.08761569  1
  Te  Te76  1  0.09237003  0.41047652  0.42881321  1
  Te  Te77  1  0.08865266  0.40067230  0.71759066  1
  Te  Te78  1  0.07842966  0.75458758  0.08003266  1
  Te  Te79  1  0.06642564  0.78060359  0.42696444  1
  Te  Te80  1  0.09543907  0.75580417  0.74133188  1
  Te  Te81  1  0.42248944  0.09137806  0.09209479  1
  Te  Te82  1  0.42319355  0.08775874  0.41733661  1
  Te  Te83  1  0.41428059  0.03432751  0.76064622  1
  Te  Te84  1  0.39112677  0.42728730  0.04905505  1
  Te  Te85  1  0.41238255  0.43459013  0.40943461  1
  Te  Te86  1  0.41260943  0.42168723  0.75925609  1
  Te  Te87  1  0.42415822  0.78125385  0.06166543  1
  Te  Te88  1  0.41853910  0.75161849  0.43516558  1
  Te  Te89  1  0.41471115  0.75854232  0.72308588  1
  Te  Te90  1  0.73876146  0.07657621  0.07253197  1
  Te  Te91  1  0.73759938  0.06914808  0.42154392  1
  Te  Te92  1  0.75280797  0.05440228  0.75036673  1
  Te  Te93  1  0.76179142  0.44729140  0.06750479  1
  Te  Te94  1  0.74948520  0.42622238  0.42374704  1
  Te  Te95  1  0.74759616  0.41884902  0.73878478  1
  Te  Te96  1  0.76128082  0.74530679  0.08295211  1
  Te  Te97  1  0.76983239  0.74345012  0.45833829  1
  Te  Te98  1  0.70012657  0.80194254  0.73436036  1
  Te  Te99  1  0.10433637  0.23207752  0.25767642  1
  Te  Te100  1  0.07780462  0.27180203  0.61155947  1
  Te  Te101  1  0.09675276  0.27235191  0.91005082  1
  Te  Te102  1  0.10369506  0.62542196  0.23723783  1
  Te  Te103  1  0.08654010  0.58591926  0.60949640  1
  Te  Te104  1  0.08676976  0.59727408  0.90139212  1
  Te  Te105  1  0.13103025  0.91417879  0.24624361  1
  Te  Te106  1  0.08354610  0.88257471  0.58052246  1
  Te  Te107  1  0.09661491  0.92653463  0.89608650  1
  Te  Te108  1  0.40884602  0.25828241  0.24227866  1
  Te  Te109  1  0.41268950  0.23604498  0.58549971  1
  Te  Te110  1  0.41691981  0.24909331  0.91567893  1
  Te  Te111  1  0.38996569  0.64315676  0.25017502  1
  Te  Te112  1  0.41816443  0.60037848  0.58319664  1
  Te  Te113  1  0.41909100  0.58641249  0.89644627  1
  Te  Te114  1  0.38969198  0.87796871  0.24055436  1
  Te  Te115  1  0.43709561  0.88777125  0.61549292  1
  Te  Te116  1  0.41886017  0.89491058  0.92848148  1
  Te  Te117  1  0.75856962  0.24877935  0.25401980  1
  Te  Te118  1  0.74991270  0.23343227  0.57424361  1
  Te  Te119  1  0.74837637  0.24744603  0.91020445  1
  Te  Te120  1  0.73900462  0.62497866  0.25323303  1
  Te  Te121  1  0.75730833  0.64285333  0.59239277  1
  Te  Te122  1  0.75950583  0.60242086  0.90067678  1
  Te  Te123  1  0.75078457  0.91594158  0.26789257  1
  Te  Te124  1  0.77516083  0.88980417  0.58879453  1
  Te  Te125  1  0.78864564  0.87592772  0.88511174  1
  Te  Te126  1  0.26709953  0.26097019  0.06178687  1
  Te  Te127  1  0.22749013  0.26122655  0.45276054  1
  Te  Te128  1  0.24948394  0.23842792  0.75258890  1
  Te  Te129  1  0.24327320  0.60292257  0.08538035  1
  Te  Te130  1  0.25468697  0.61499005  0.41597706  1
  Te  Te131  1  0.22141044  0.61718607  0.71226805  1
  Te  Te132  1  0.24329487  0.90257265  0.09669900  1
  Te  Te133  1  0.24212139  0.89779641  0.41519490  1
  Te  Te134  1  0.26673138  0.94987172  0.73959297  1
  Te  Te135  1  0.59335200  0.24608924  0.09573531  1
  Te  Te136  1  0.59407914  0.23150502  0.43192791  1
  Te  Te137  1  0.55795302  0.25420341  0.76321825  1
  Te  Te138  1  0.56539675  0.56699614  0.06751957  1
  Te  Te139  1  0.59577681  0.59584057  0.41407190  1
  Te  Te140  1  0.60830984  0.60197748  0.73361402  1
  Te  Te141  1  0.58685448  0.92269308  0.07245210  1
  Te  Te142  1  0.60479465  0.88918172  0.43566524  1
  Te  Te143  1  0.57868765  0.87522688  0.77966059  1
  Te  Te144  1  0.94112029  0.23037760  0.10061226  1
  Te  Te145  1  0.91536094  0.24945923  0.41821275  1
  Te  Te146  1  0.93056149  0.25305669  0.75932134  1
  Te  Te147  1  0.89793744  0.59883281  0.09002198  1
  Te  Te148  1  0.90303521  0.58554731  0.42477541  1
  Te  Te149  1  0.91457975  0.60651179  0.76168661  1
  Te  Te150  1  0.90917950  0.89467226  0.07440853  1
  Te  Te151  1  0.94429795  0.91315280  0.41094641  1
  Te  Te152  1  0.89812540  0.89096030  0.75021196  1
  Te  Te153  1  0.22772486  0.04245215  0.24156550  1
  Te  Te154  1  0.27166077  0.03976076  0.60867395  1
  Te  Te155  1  0.24054914  0.07148899  0.91331923  1
  Te  Te156  1  0.24829761  0.43587713  0.24972391  1
  Te  Te157  1  0.22313195  0.42974677  0.60062687  1
  Te  Te158  1  0.23728783  0.42610392  0.88216821  1
  Te  Te159  1  0.25030180  0.69855897  0.26884637  1
  Te  Te160  1  0.24219978  0.74096399  0.61478437  1
  Te  Te161  1  0.24675703  0.73564762  0.89446617  1
  Te  Te162  1  0.58320000  0.04056706  0.27312135  1
  Te  Te163  1  0.59427025  0.07256606  0.59381617  1
  Te  Te164  1  0.58247524  0.05144791  0.89979028  1
  Te  Te165  1  0.57649220  0.41735343  0.24511907  1
  Te  Te166  1  0.57897005  0.41577985  0.57803075  1
  Te  Te167  1  0.56774481  0.41127332  0.90727986  1
  Te  Te168  1  0.58686388  0.75010151  0.25246235  1
  Te  Te169  1  0.58347939  0.78423811  0.62644916  1
  Te  Te170  1  0.58442757  0.76842309  0.91605989  1
  Te  Te171  1  0.93719204  0.07241249  0.23858718  1
  Te  Te172  1  0.92279841  0.08624271  0.58746512  1
  Te  Te173  1  0.90397421  0.06566638  0.90443040  1
  Te  Te174  1  0.91708759  0.41580254  0.24193427  1
  Te  Te175  1  0.92979504  0.42168000  0.61004455  1
  Te  Te176  1  0.92271486  0.44967436  0.92179004  1
  Te  Te177  1  0.91396217  0.74779280  0.24063104  1
  Te  Te178  1  0.88608268  0.76047770  0.56196484  1
  Te  Te179  1  0.88537072  0.75296559  0.91057594  1
