# generated using pymatgen
data_In2Te3
_symmetry_space_group_name_H-M   'P 1'
_cell_length_a   18.78323643
_cell_length_b   18.77203509
_cell_length_c   18.78465341
_cell_angle_alpha   89.96239144
_cell_angle_beta   90.02560154
_cell_angle_gamma   90.01629547
_symmetry_Int_Tables_number   1
_chemical_formula_structural   In2Te3
_chemical_formula_sum   'In72 Te108'
_cell_volume   6623.45842262
_cell_formula_units_Z   36
loop_
 _symmetry_equiv_pos_site_id
 _symmetry_equiv_pos_as_xyz
  1  'x, y, z'
loop_
 _atom_site_type_symbol
 _atom_site_label
 _atom_site_symmetry_multiplicity
 _atom_site_fract_x
 _atom_site_fract_y
 _atom_site_fract_z
 _atom_site_occupancy
  In  In0  1  0.67249645  0.48138799  0.17650617  1
  In  In1  1  0.01075958  0.79310244  0.83141533  1
  In  In2  1  0.17132324  0.65705824  0.16030422  1
  In  In3  1  0.32138285  0.34011130  0.65713337  1
  In  In4  1  0.67479355  0.67791303  -0.01423632  1
  In  In5  1  0.85451928  0.83017935  0.00127397  1
  In  In6  1  0.49131422  0.65634536  0.50006613  1
  In  In7  1  0.33385939  0.00507142  0.34031773  1
  In  In8  1  0.67645205  0.67287750  0.66656109  1
  In  In9  1  0.33093227  0.32660205  0.33898213  1
  In  In10  1  0.16488225  0.00011695  0.81056912  1
  In  In11  1  0.50461816  0.17230216  -0.00392481  1
  In  In12  1  0.49986088  0.31968861  0.18213105  1
  In  In13  1  0.52060629  0.83296679  0.01851046  1
  In  In14  1  0.82327768  0.01132204  0.82754062  1
  In  In15  1  0.66887506  0.02205568  0.33449853  1
  In  In16  1  0.16611518  0.18243178  0.33800798  1
  In  In17  1  0.16369216  0.48635977  0.33276222  1
  In  In18  1  0.50950185  0.31184864  0.46903244  1
  In  In19  1  0.02216388  0.83800138  0.49255513  1
  In  In20  1  0.49034920  0.81194565  0.33152764  1
  In  In21  1  0.18997130  0.21026292  0.02612555  1
  In  In22  1  0.83685600  0.01620153  0.49372173  1
  In  In23  1  0.32849275  0.65461182  0.00464341  1
  In  In24  1  0.16639560  0.34922688  0.83329407  1
  In  In25  1  0.49471623  0.66536847  0.17727195  1
  In  In26  1  0.34433386  0.00303117  0.00799679  1
  In  In27  1  0.67600962  0.49626047  0.83469221  1
  In  In28  1  -0.00349142  0.49422224  0.50412226  1
  In  In29  1  0.47772813  0.49689091  0.02150316  1
  In  In30  1  0.68084368  0.32992715  0.02083139  1
  In  In31  1  0.47412993  0.83902606  0.68703383  1
  In  In32  1  0.01128229  0.49536651  0.15444280  1
  In  In33  1  0.83128053  0.17952798  0.66882606  1
  In  In34  1  0.50955902  0.00943101  0.17878071  1
  In  In35  1  0.32451159  0.01493659  0.64120416  1
  In  In36  1  0.49773363  0.51708919  0.64534127  1
  In  In37  1  0.81660220  0.14040150  0.01491158  1
  In  In38  1  0.16306064  0.00621533  0.17156705  1
  In  In39  1  0.00509424  -0.00284916  0.66172787  1
  In  In40  1  0.84850187  0.64367306  0.49995776  1
  In  In41  1  -0.01356021  0.30946928  0.34365952  1
  In  In42  1  0.32022504  0.80147468  0.83695283  1
  In  In43  1  0.82217926  0.31943933  0.18173660  1
  In  In44  1  -0.03090197  0.02702091  0.31133677  1
  In  In45  1  0.01129698  0.81866003  0.16155934  1
  In  In46  1  0.29855431  0.52294333  0.82173819  1
  In  In47  1  0.02441641  0.52446917  0.82958756  1
  In  In48  1  0.16834709  0.81167117  0.33978337  1
  In  In49  1  0.52013487  0.00351327  0.84684965  1
  In  In50  1  0.34230407  0.64924040  0.32068310  1
  In  In51  1  -0.01803196  -0.00064344  -0.00906086  1
  In  In52  1  0.14611678  0.01490036  0.48249001  1
  In  In53  1  0.84563991  0.33155868  0.83749286  1
  In  In54  1  0.65693795  0.66686727  0.31742847  1
  In  In55  1  0.66827725  0.83953344  0.83008842  1
  In  In56  1  0.17522272  0.81636566  0.00582676  1
  In  In57  1  0.51404373  0.18032264  0.65096086  1
  In  In58  1  0.49210094  0.02420154  0.51048725  1
  In  In59  1  0.66895623  0.31896038  0.66882916  1
  In  In60  1  0.83892222  0.66096905  0.16688043  1
  In  In61  1  0.02095243  0.31486966  0.62511920  1
  In  In62  1  0.49326298  0.32792218  0.83168484  1
  In  In63  1  0.68638177  0.47091137  0.46835650  1
  In  In64  1  0.81792967  0.82838202  0.67247248  1
  In  In65  1  -0.00720297  0.16466005  0.18304838  1
  In  In66  1  0.02079994  0.34445332  0.00253441  1
  In  In67  1  0.33655377  0.16739263  0.83524720  1
  In  In68  1  0.67536877  0.85385982  0.50221982  1
  In  In69  1  0.81497478  0.83632820  0.30715535  1
  In  In70  1  0.01362021  0.65126798  0.66744057  1
  In  In71  1  0.32145057  0.48971591  0.50686089  1
  Te  Te72  1  0.07963306  0.09022431  0.07517919  1
  Te  Te73  1  0.04941977  0.10986130  0.40964143  1
  Te  Te74  1  0.07777583  0.09670816  0.74461827  1
  Te  Te75  1  0.11810294  0.43694549  0.06686215  1
  Te  Te76  1  0.08456716  0.39468331  0.42460556  1
  Te  Te77  1  0.07529100  0.41673822  0.73369419  1
  Te  Te78  1  0.06806366  0.71850937  0.06114855  1
  Te  Te79  1  0.08792486  0.72400676  0.42691502  1
  Te  Te80  1  0.10861391  0.75935835  0.72298233  1
  Te  Te81  1  0.41222924  0.10304066  0.09745451  1
  Te  Te82  1  0.40299981  0.10548988  0.42450810  1
  Te  Te83  1  0.42276373  0.08031426  0.74397639  1
  Te  Te84  1  0.39992102  0.39212628  0.09397380  1
  Te  Te85  1  0.42252090  0.42629504  0.41294845  1
  Te  Te86  1  0.41440013  0.42753121  0.74731807  1
  Te  Te87  1  0.40941297  0.75517405  0.08726421  1
  Te  Te88  1  0.39200911  0.74867141  0.42855075  1
  Te  Te89  1  0.41448120  0.72258525  0.75449633  1
  Te  Te90  1  0.75291263  0.08600364  0.13543287  1
  Te  Te91  1  0.76470619  0.11281224  0.40639823  1
  Te  Te92  1  0.73561556  0.09142370  0.74127197  1
  Te  Te93  1  0.77789358  0.43038122  0.07888462  1
  Te  Te94  1  0.77588996  0.37461165  0.39678703  1
  Te  Te95  1  0.76360590  0.41658559  0.73888968  1
  Te  Te96  1  0.74982990  0.76029862  0.09017179  1
  Te  Te97  1  0.74711449  0.74553332  0.42164834  1
  Te  Te98  1  0.76523857  0.73149692  0.77644853  1
  Te  Te99  1  0.09063580  0.26699293  0.23400012  1
  Te  Te100  1  0.12527483  0.23352644  0.55637303  1
  Te  Te101  1  0.09097057  0.24102287  0.91408371  1
  Te  Te102  1  0.07733323  0.58848701  0.25869022  1
  Te  Te103  1  0.10250969  0.57900144  0.57122267  1
  Te  Te104  1  0.10080664  0.60352926  0.92725591  1
  Te  Te105  1  0.08032918  0.91958801  0.26751505  1
  Te  Te106  1  0.11025177  0.91093284  0.59274007  1
  Te  Te107  1  0.08512532  0.90929322  0.91864141  1
  Te  Te108  1  0.42560075  0.22861782  0.27634194  1
  Te  Te109  1  0.40720671  0.24991183  0.56823991  1
  Te  Te110  1  0.39834499  0.26572602  0.93372920  1
  Te  Te111  1  0.42248856  0.55476370  0.24120679  1
  Te  Te112  1  0.38323277  0.60355526  0.59504136  1
  Te  Te113  1  0.42013053  0.57911260  0.90887529  1
  Te  Te114  1  0.41144765  0.91242715  0.24611088  1
  Te  Te115  1  0.40698222  0.90772698  0.56903173  1
  Te  Te116  1  0.41513887  0.90971546  0.90961878  1
  Te  Te117  1  0.70494442  0.29077439  0.27516498  1
  Te  Te118  1  0.76286036  0.26576411  0.56563095  1
  Te  Te119  1  0.75071897  0.24216891  0.91753551  1
  Te  Te120  1  0.76177021  0.56980562  0.26528413  1
  Te  Te121  1  0.74171607  0.56659509  0.57765389  1
  Te  Te122  1  0.76105846  0.57506424  0.92558248  1
  Te  Te123  1  0.73186673  0.93216488  0.23232134  1
  Te  Te124  1  0.75059014  0.94388892  0.59904196  1
  Te  Te125  1  0.75247101  0.92071298  0.92862644  1
  Te  Te126  1  0.26960132  0.28871556  0.11952634  1
  Te  Te127  1  0.23467485  0.26890455  0.44144731  1
  Te  Te128  1  0.24131010  0.24462184  0.74640221  1
  Te  Te129  1  0.25545895  0.55741202  0.08934186  1
  Te  Te130  1  0.24265266  0.58674678  0.41715089  1
  Te  Te131  1  0.20668471  0.59094845  0.72121093  1
  Te  Te132  1  0.25533923  0.91178767  0.09495239  1
  Te  Te133  1  0.24611644  0.91270657  0.42535429  1
  Te  Te134  1  0.26665267  0.91260039  0.74288330  1
  Te  Te135  1  0.59906657  0.23232588  0.10215300  1
  Te  Te136  1  0.60875958  0.23645065  0.38803908  1
  Te  Te137  1  0.59380796  0.23227536  0.77150519  1
  Te  Te138  1  0.59121275  0.58211467  0.08426720  1
  Te  Te139  1  0.58258453  0.57279247  0.41171226  1
  Te  Te140  1  0.58277964  0.58667561  0.75179581  1
  Te  Te141  1  0.58880964  0.95560673  0.06318001  1
  Te  Te142  1  0.57177885  0.91773244  0.40979168  1
  Te  Te143  1  0.58934240  0.92770850  0.73229200  1
  Te  Te144  1  0.91645549  0.25248950  0.07327617  1
  Te  Te145  1  0.87447340  0.25558238  0.42561291  1
  Te  Te146  1  0.93939247  0.25456964  0.74647162  1
  Te  Te147  1  0.91840867  0.57965593  0.07358629  1
  Te  Te148  1  0.91574845  0.56308608  0.39881800  1
  Te  Te149  1  0.91296260  0.58083967  0.74723201  1
  Te  Te150  1  0.91651229  0.92622417  0.10703230  1
  Te  Te151  1  0.91085921  0.90960189  0.41041560  1
  Te  Te152  1  0.92200291  0.90646821  0.76212962  1
  Te  Te153  1  0.25582441  0.10015087  0.24500815  1
  Te  Te154  1  0.22597072  0.10601255  0.57469973  1
  Te  Te155  1  0.24355022  0.08409760  0.92429365  1
  Te  Te156  1  0.24572870  0.40198832  0.23950645  1
  Te  Te157  1  0.22021239  0.43224927  0.59977721  1
  Te  Te158  1  0.24934908  0.42993065  0.92539157  1
  Te  Te159  1  0.26316079  0.75194478  0.23750125  1
  Te  Te160  1  0.23214212  0.71333537  0.63842970  1
  Te  Te161  1  0.21478250  0.70712802  0.90095170  1
  Te  Te162  1  0.55815376  0.11025170  0.28101711  1
  Te  Te163  1  0.60429871  0.10182179  0.56539140  1
  Te  Te164  1  0.60808070  0.08362183  0.93412891  1
  Te  Te165  1  0.58581574  0.40635475  0.27273976  1
  Te  Te166  1  0.57810698  0.40706033  0.57692948  1
  Te  Te167  1  0.57988696  0.41032905  0.93105693  1
  Te  Te168  1  0.59436487  0.77195902  0.22680279  1
  Te  Te169  1  0.58103942  0.75777670  0.57942359  1
  Te  Te170  1  0.56774543  0.74784400  0.90165751  1
  Te  Te171  1  0.86382651  0.11311827  0.24411143  1
  Te  Te172  1  0.93075764  0.10061129  0.57821444  1
  Te  Te173  1  0.91980324  0.10385253  0.90155313  1
  Te  Te174  1  0.92178726  0.41316461  0.25071108  1
  Te  Te175  1  0.90993046  0.40290227  0.58327519  1
  Te  Te176  1  0.92936738  0.42989154  0.91631676  1
  Te  Te177  1  0.92777855  0.74300239  0.26500841  1
  Te  Te178  1  0.91726651  0.75811067  0.58150351  1
  Te  Te179  1  0.91574968  0.72402269  0.91907571  1
