# generated using pymatgen
data_In2Te3
_symmetry_space_group_name_H-M   'P 1'
_cell_length_a   18.81538315
_cell_length_b   18.81637582
_cell_length_c   18.81012401
_cell_angle_alpha   90.00342308
_cell_angle_beta   89.93142868
_cell_angle_gamma   90.03859509
_symmetry_Int_Tables_number   1
_chemical_formula_structural   In2Te3
_chemical_formula_sum   'In72 Te108'
_cell_volume   6659.47961145
_cell_formula_units_Z   36
loop_
 _symmetry_equiv_pos_site_id
 _symmetry_equiv_pos_as_xyz
  1  'x, y, z'
loop_
 _atom_site_type_symbol
 _atom_site_label
 _atom_site_symmetry_multiplicity
 _atom_site_fract_x
 _atom_site_fract_y
 _atom_site_fract_z
 _atom_site_occupancy
  In  In0  1  0.15945539  0.32002830  0.49201158  1
  In  In1  1  0.47817131  0.15788272  0.67135817  1
  In  In2  1  0.33911518  0.49274940  0.17434206  1
  In  In3  1  0.32393094  -0.00465542  0.01307374  1
  In  In4  1  0.17470588  0.67055804  0.17474154  1
  In  In5  1  0.03336964  -0.00418090  0.66238966  1
  In  In6  1  0.82940447  0.18138924  0.67472928  1
  In  In7  1  0.83609379  0.33534439  0.16968051  1
  In  In8  1  0.65567082  0.17152879  0.86551809  1
  In  In9  1  0.49643875  0.68536084  0.46785570  1
  In  In10  1  0.82460380  0.67956343  0.82693978  1
  In  In11  1  0.50967668  0.34080133  0.84037712  1
  In  In12  1  -0.03326001  0.52891585  0.47553828  1
  In  In13  1  0.00689082  0.15365589  0.48810130  1
  In  In14  1  0.80357427  0.81471990  0.02742706  1
  In  In15  1  0.83985431  -0.00844812  0.85565006  1
  In  In16  1  0.32278677  0.16031095  0.16155941  1
  In  In17  1  0.32730331  0.32672817  0.00490298  1
  In  In18  1  0.18091333  0.02622216  0.83381947  1
  In  In19  1  0.68371154  0.33449595  -0.00443594  1
  In  In20  1  0.00130806  0.32191068  0.32232889  1
  In  In21  1  0.51651139  0.65570816  0.83268839  1
  In  In22  1  0.15033423  0.63511467  0.82652201  1
  In  In23  1  0.00008781  0.48620214  0.84676710  1
  In  In24  1  0.80512634  0.50327738  0.66911688  1
  In  In25  1  0.49036906  0.50444945  0.33049917  1
  In  In26  1  0.34501743  -0.01370061  0.32056049  1
  In  In27  1  0.51722357  0.82099634  0.65180021  1
  In  In28  1  0.66063419  0.35237421  0.65370072  1
  In  In29  1  0.66231329  -0.01028630  0.66749637  1
  In  In30  1  0.18416817  0.30309925  0.84889321  1
  In  In31  1  0.82836421  0.16552793  0.34971566  1
  In  In32  1  0.85112717  0.51135327  0.02333276  1
  In  In33  1  -0.01143919  0.00585856  0.02033477  1
  In  In34  1  0.16504499  0.87050372  0.64190043  1
  In  In35  1  0.66269608  0.16285317  0.50108307  1
  In  In36  1  0.81972994  0.01150612  0.15389490  1
  In  In37  1  0.00503320  0.66104587  0.00500593  1
  In  In38  1  0.52980308  0.84124523  0.05083877  1
  In  In39  1  0.66410362  0.49749017  0.82379646  1
  In  In40  1  0.02638613  0.16964433  0.16220703  1
  In  In41  1  -0.00815105  0.32779843  0.65575879  1
  In  In42  1  -0.01468129  0.68524052  0.64751508  1
  In  In43  1  0.34029118  0.82374104  0.86348410  1
  In  In44  1  0.16675931  0.84005538  0.32463796  1
  In  In45  1  0.18076636  0.51472662  0.68284924  1
  In  In46  1  0.34712587  0.82956418  0.47670390  1
  In  In47  1  0.33496594  0.02321872  0.66856732  1
  In  In48  1  0.49253411  0.33078971  0.17198928  1
  In  In49  1  0.79266968  0.53935684  0.30330997  1
  In  In50  1  0.00980164  0.51327162  0.15718237  1
  In  In51  1  0.35935222  0.67001537  0.01280516  1
  In  In52  1  0.51519976  0.14065644  0.31084981  1
  In  In53  1  0.33477946  0.50231249  0.48763430  1
  In  In54  1  0.82650751  0.00292600  0.47702156  1
  In  In55  1  0.81097989  0.80094823  0.31911743  1
  In  In56  1  0.00690726  0.85297845  0.82851831  1
  In  In57  1  0.82568925  0.81150381  0.64609557  1
  In  In58  1  0.34157750  0.33077279  0.69223641  1
  In  In59  1  0.32634754  0.65198609  0.65925669  1
  In  In60  1  0.31676835  0.16512452  0.50904519  1
  In  In61  1  0.67985947  0.84698874  0.82811120  1
  In  In62  1  0.66734977  0.33707487  0.34543776  1
  In  In63  1  0.01402590  0.33174845  0.01633239  1
  In  In64  1  0.15834504  0.66202471  0.47007833  1
  In  In65  1  0.51541926  -0.04481215  0.45328870  1
  In  In66  1  0.64702976  0.65509103  0.02925419  1
  In  In67  1  0.18567125  0.83786363  0.02775534  1
  In  In68  1  0.67153687  0.51177195  0.49822057  1
  In  In69  1  0.02080180  -0.00208730  0.33328664  1
  In  In70  1  0.49761163  0.16045628  0.00676231  1
  In  In71  1  0.18363116  0.50137779  0.32823715  1
  Te  Te72  1  0.10388548  0.06984882  0.08561650  1
  Te  Te73  1  0.10668698  0.10147741  0.39348509  1
  Te  Te74  1  0.06326953  0.08872561  0.77012334  1
  Te  Te75  1  0.10073266  0.40946913  0.10757818  1
  Te  Te76  1  0.07326504  0.42988862  0.42202698  1
  Te  Te77  1  0.09028905  0.41047973  0.75030232  1
  Te  Te78  1  0.07480208  0.75923042  0.09837877  1
  Te  Te79  1  0.07108873  0.76164315  0.40907194  1
  Te  Te80  1  0.08832461  0.75399662  0.74445217  1
  Te  Te81  1  0.42808550  0.06630587  0.10375201  1
  Te  Te82  1  0.42346727  0.07909535  0.42412216  1
  Te  Te83  1  0.41558776  0.07759997  0.77783319  1
  Te  Te84  1  0.42701539  0.42211177  0.07053088  1
  Te  Te85  1  0.40394490  0.40668111  0.39978646  1
  Te  Te86  1  0.44085972  0.42661368  0.74276379  1
  Te  Te87  1  0.41399835  0.76845544  0.10816803  1
  Te  Te88  1  0.42254041  0.76584069  0.36102653  1
  Te  Te89  1  0.41232248  0.74867970  0.74712899  1
  Te  Te90  1  0.70282849  0.08214968  0.09143056  1
  Te  Te91  1  0.71737489  0.06930670  0.39321786  1
  Te  Te92  1  0.74578174  0.07872369  0.75870934  1
  Te  Te93  1  0.74335366  0.43321388  0.09775003  1
  Te  Te94  1  0.76851880  0.43044847  0.40870356  1
  Te  Te95  1  0.75939808  0.39453392  0.76527119  1
  Te  Te96  1  0.71451071  0.74913935  0.12986914  1
  Te  Te97  1  0.71087266  0.74478554  0.41459688  1
  Te  Te98  1  0.72201406  0.73646225  0.73152292  1
  Te  Te99  1  0.11009947  0.25487787  0.25106384  1
  Te  Te100  1  0.08990923  0.22915506  0.59306584  1
  Te  Te101  1  0.07863564  0.23470763  0.92572156  1
  Te  Te102  1  0.07926726  0.59367965  0.26626406  1
  Te  Te103  1  0.08253061  0.57879310  0.58236022  1
  Te  Te104  1  0.09486662  0.55318947  0.94499952  1
  Te  Te105  1  0.08923592  0.92183318  0.22677883  1
  Te  Te106  1  0.05443077  0.90402634  0.55024005  1
  Te  Te107  1  0.09786013  0.92096639  0.92716086  1
  Te  Te108  1  0.41069650  0.23998324  0.26094170  1
  Te  Te109  1  0.41572697  0.25972763  0.57759861  1
  Te  Te110  1  0.41485409  0.24443817  0.90834244  1
  Te  Te111  1  0.43163964  0.59877463  0.22739589  1
  Te  Te112  1  0.43075611  0.58684417  0.57164732  1
  Te  Te113  1  0.43913938  0.57751213  0.93076622  1
  Te  Te114  1  0.46618284  0.91403281  0.26612248  1
  Te  Te115  1  0.41565826  0.91468260  0.58444279  1
  Te  Te116  1  0.43248471  0.90810934  0.94568392  1
  Te  Te117  1  0.74315305  0.24419302  0.25006595  1
  Te  Te118  1  0.75433822  0.26318516  0.56964725  1
  Te  Te119  1  0.77097814  0.23492563  0.93032119  1
  Te  Te120  1  0.70141046  0.61458353  0.21117380  1
  Te  Te121  1  0.76284704  0.60355205  0.57201785  1
  Te  Te122  1  0.75236830  0.59143573  0.92790822  1
  Te  Te123  1  0.74608017  0.91453901  0.24343072  1
  Te  Te124  1  0.74090410  0.91066018  0.56469264  1
  Te  Te125  1  0.73633061  0.92575893  0.94585833  1
  Te  Te126  1  0.23103342  0.24481431  0.08142422  1
  Te  Te127  1  0.25143559  0.24710758  0.40411851  1
  Te  Te128  1  0.24888753  0.22791646  0.73917923  1
  Te  Te129  1  0.25376520  0.58053316  0.08144287  1
  Te  Te130  1  0.27571647  0.60583479  0.39233886  1
  Te  Te131  1  0.28316812  0.57040568  0.78120596  1
  Te  Te132  1  0.26865430  0.91202836  0.12428126  1
  Te  Te133  1  0.24592458  0.92881098  0.42526611  1
  Te  Te134  1  0.25728307  0.90621209  0.76358627  1
  Te  Te135  1  0.59113595  0.25166992  0.08686461  1
  Te  Te136  1  0.56781823  0.24444930  0.41373163  1
  Te  Te137  1  0.58965905  0.24224151  0.73806406  1
  Te  Te138  1  0.56066684  0.59478404  0.13293470  1
  Te  Te139  1  0.59637504  0.59567626  0.39264486  1
  Te  Te140  1  0.58933403  0.58017551  0.72850401  1
  Te  Te141  1  0.61963937  0.94567833  0.11410645  1
  Te  Te142  1  0.61962633  0.86729237  0.38449181  1
  Te  Te143  1  0.56352693  0.91919465  0.76040026  1
  Te  Te144  1  0.91035056  0.23504889  0.08611523  1
  Te  Te145  1  0.91398797  0.26156516  0.43184514  1
  Te  Te146  1  0.92369575  0.25207785  0.76209113  1
  Te  Te147  1  0.89903785  0.62454550  0.11587087  1
  Te  Te148  1  0.89824968  0.61956474  0.37648328  1
  Te  Te149  1  0.92473144  0.58569118  0.75652831  1
  Te  Te150  1  0.91065479  0.89915512  0.09694628  1
  Te  Te151  1  0.90296592  0.91438492  0.38115407  1
  Te  Te152  1  0.90087353  0.91366883  0.73611402  1
  Te  Te153  1  0.24508903  0.06389902  0.24582258  1
  Te  Te154  1  0.22657791  0.07280023  0.58362535  1
  Te  Te155  1  0.25256170  0.10097496  0.93809771  1
  Te  Te156  1  0.25427523  0.39851024  0.25114485  1
  Te  Te157  1  0.24633101  0.41841696  0.58302131  1
  Te  Te158  1  0.25725849  0.41565546  0.90831507  1
  Te  Te159  1  0.26679573  0.75796590  0.25034299  1
  Te  Te160  1  0.24699303  0.74988760  0.57330725  1
  Te  Te161  1  0.22954549  0.73441340  0.92107611  1
  Te  Te162  1  0.60024830  0.06864489  0.21244800  1
  Te  Te163  1  0.56801977  0.06731045  0.57509695  1
  Te  Te164  1  0.57187753  0.06486936  0.91971714  1
  Te  Te165  1  0.59060803  0.42093165  0.24557445  1
  Te  Te166  1  0.57298259  0.41778863  0.55668867  1
  Te  Te167  1  0.58391487  0.43416994  0.93635691  1
  Te  Te168  1  0.55445879  0.78752925  0.27095414  1
  Te  Te169  1  0.60269827  0.75114156  0.55240754  1
  Te  Te170  1  0.58939659  0.75752907  0.92472193  1
  Te  Te171  1  0.91731693  0.09244864  0.24996418  1
  Te  Te172  1  0.90625342  0.08062326  0.58349014  1
  Te  Te173  1  0.91998547  0.09367559  0.92330081  1
  Te  Te174  1  0.91600829  0.43275053  0.25595331  1
  Te  Te175  1  0.90920749  0.43229056  0.58087815  1
  Te  Te176  1  0.90373587  0.40438946  0.93026719  1
  Te  Te177  1  0.90925201  0.71973326  0.24231179  1
  Te  Te178  1  0.91021537  0.75173492  0.54022038  1
  Te  Te179  1  0.91583237  0.76268461  0.91815740  1
