# generated using pymatgen
data_In2Te3
_symmetry_space_group_name_H-M   'P 1'
_cell_length_a   18.79916305
_cell_length_b   18.78609392
_cell_length_c   18.78909493
_cell_angle_alpha   90.06244941
_cell_angle_beta   90.03577185
_cell_angle_gamma   90.10691563
_symmetry_Int_Tables_number   1
_chemical_formula_structural   In2Te3
_chemical_formula_sum   'In72 Te108'
_cell_volume   6635.59338123
_cell_formula_units_Z   36
loop_
 _symmetry_equiv_pos_site_id
 _symmetry_equiv_pos_as_xyz
  1  'x, y, z'
loop_
 _atom_site_type_symbol
 _atom_site_label
 _atom_site_symmetry_multiplicity
 _atom_site_fract_x
 _atom_site_fract_y
 _atom_site_fract_z
 _atom_site_occupancy
  In  In0  1  0.32506158  0.00960652  0.00552048  1
  In  In1  1  -0.00385451  0.52753320  0.49324462  1
  In  In2  1  0.16073631  0.65627161  0.17389087  1
  In  In3  1  0.33754797  0.31471802  0.32944299  1
  In  In4  1  0.87190641  0.49363265  0.32379104  1
  In  In5  1  0.66697583  0.81932400  0.51443085  1
  In  In6  1  0.67757445  0.82056637  0.83514846  1
  In  In7  1  0.01720010  0.17968716  0.48323627  1
  In  In8  1  0.81635765  0.67623309  0.18515582  1
  In  In9  1  0.33153583  0.84389241  0.17443725  1
  In  In10  1  0.14387972  0.67773760  0.80368579  1
  In  In11  1  0.46799429  0.01896094  0.80357121  1
  In  In12  1  0.50543453  0.83492633  0.65807865  1
  In  In13  1  -0.01542383  0.01279936  -0.06476388  1
  In  In14  1  -0.01704881  0.50633278  0.80952080  1
  In  In15  1  0.51639778  0.83030400  0.00966899  1
  In  In16  1  0.67219095  0.34894305  -0.00524334  1
  In  In17  1  0.15429752  0.85086906  0.66341623  1
  In  In18  1  -0.01045748  0.66804948  0.00072138  1
  In  In19  1  0.81038124  0.50973024  0.67069873  1
  In  In20  1  0.83193016  0.82443395  0.00237551  1
  In  In21  1  0.33861692  0.47710019  0.83985122  1
  In  In22  1  0.16023559  0.47225879  0.00687801  1
  In  In23  1  0.34157163  0.50153343  0.16558634  1
  In  In24  1  0.16384907  -0.00189172  0.18348854  1
  In  In25  1  0.50113587  0.18249430  -0.01527104  1
  In  In26  1  0.33756869  0.82963023  0.49088390  1
  In  In27  1  0.82573874  0.33840866  0.81594895  1
  In  In28  1  0.18176935  0.32981914  0.51919430  1
  In  In29  1  0.67029475  0.17060384  0.52677592  1
  In  In30  1  0.68125328  -0.04262221  0.33956161  1
  In  In31  1  0.48785383  0.32820621  0.52897656  1
  In  In32  1  0.00163844  0.80239270  0.50373913  1
  In  In33  1  0.16629610  0.15602096  0.32184244  1
  In  In34  1  0.49943561  -0.01831925  0.15870124  1
  In  In35  1  0.66306982  0.33071987  0.31808215  1
  In  In36  1  0.33597998  0.33768553  -0.00176211  1
  In  In37  1  0.32237175  -0.01418851  0.34845536  1
  In  In38  1  -0.02053954  -0.01292966  0.69791842  1
  In  In39  1  0.15688414  0.49964443  0.65215893  1
  In  In40  1  -0.01913121  0.82462955  0.16871324  1
  In  In41  1  0.82218698  0.17153681  0.66658673  1
  In  In42  1  0.52936853  0.63470324  0.80022848  1
  In  In43  1  0.82542086  0.30710560  0.50009859  1
  In  In44  1  0.84475446  -0.03488636  0.52763756  1
  In  In45  1  0.01195434  0.32330496  -0.00757398  1
  In  In46  1  0.82166204  0.16227183  0.34044779  1
  In  In47  1  0.17035639  0.16373323  -0.00597328  1
  In  In48  1  0.33553247  0.65867196  0.35096659  1
  In  In49  1  0.52676380  0.49547335  0.33338687  1
  In  In50  1  0.53673241  0.53283911  0.02714890  1
  In  In51  1  0.68154369  -0.01659058  -0.00175281  1
  In  In52  1  0.66857157  0.16216492  0.82560212  1
  In  In53  1  0.82497873  0.66490312  0.82088492  1
  In  In54  1  0.67157091  0.67712161  0.33075019  1
  In  In55  1  0.82143638  -0.00832922  0.18019865  1
  In  In56  1  0.67602566  0.51077840  0.50920377  1
  In  In57  1  0.34036753  0.69045301  -0.01943214  1
  In  In58  1  0.51201141  0.01148029  0.51622131  1
  In  In59  1  0.33272737  0.51733655  0.50834117  1
  In  In60  1  0.80534426  0.51504163  0.00208088  1
  In  In61  1  0.48766839  0.15947424  0.33032250  1
  In  In62  1  -0.02156602  0.32604292  0.67219614  1
  In  In63  1  0.31179959  0.84804515  0.82519443  1
  In  In64  1  0.15616513  0.33376189  0.13442331  1
  In  In65  1  0.50215319  0.33234802  0.81163179  1
  In  In66  1  0.16189634  0.00853880  0.82053625  1
  In  In67  1  0.14306489  0.50415364  0.32978506  1
  In  In68  1  0.00448364  -0.00513602  0.36286580  1
  In  In69  1  0.00164979  0.18157590  0.15179839  1
  In  In70  1  0.34107976  0.67940930  0.66181566  1
  In  In71  1  0.67842199  0.16119049  0.16913383  1
  Te  Te72  1  0.07875811  0.07189642  0.07650669  1
  Te  Te73  1  0.11498074  0.07104453  0.43799119  1
  Te  Te74  1  0.07437769  0.09378476  0.73662815  1
  Te  Te75  1  0.05074301  0.44490049  0.11357104  1
  Te  Te76  1  0.08097969  0.41237080  0.43508707  1
  Te  Te77  1  0.08359150  0.40813595  0.74994843  1
  Te  Te78  1  0.08637877  0.75372634  0.08189125  1
  Te  Te79  1  0.13016094  0.76900380  0.43989806  1
  Te  Te80  1  0.04891458  0.77266903  0.73810312  1
  Te  Te81  1  0.42516320  0.09209805  0.08665153  1
  Te  Te82  1  0.40459650  0.08398394  0.43308492  1
  Te  Te83  1  0.40278253  0.11903144  0.71300104  1
  Te  Te84  1  0.43518129  0.42278339  0.07583979  1
  Te  Te85  1  0.41382555  0.41715670  0.41651461  1
  Te  Te86  1  0.41906388  0.42397239  0.72868286  1
  Te  Te87  1  0.42068277  0.74625762  0.09712343  1
  Te  Te88  1  0.43335444  0.73777595  0.42862181  1
  Te  Te89  1  0.41903156  0.75224025  0.77169374  1
  Te  Te90  1  0.76885725  0.08619454  0.07167133  1
  Te  Te91  1  0.74130204  0.07003210  0.43172685  1
  Te  Te92  1  0.75155398  0.06871112  0.74514837  1
  Te  Te93  1  0.73831903  0.42847252  0.10155014  1
  Te  Te94  1  0.75273856  0.41291732  0.41501380  1
  Te  Te95  1  0.72189550  0.43897705  0.77243219  1
  Te  Te96  1  0.74088412  0.72128620  0.06138079  1
  Te  Te97  1  0.76319311  0.74464015  0.42794920  1
  Te  Te98  1  0.74181268  0.74438408  0.72618687  1
  Te  Te99  1  0.08387021  0.26212556  0.25309744  1
  Te  Te100  1  0.08735559  0.24271010  0.60343346  1
  Te  Te101  1  0.09383246  0.24533365  0.89783019  1
  Te  Te102  1  0.05484367  0.60878154  0.26841414  1
  Te  Te103  1  0.08333003  0.60670577  0.58356592  1
  Te  Te104  1  0.08203401  0.57630366  0.91325504  1
  Te  Te105  1  0.07711324  0.90251403  0.26284251  1
  Te  Te106  1  0.05642879  0.93098681  0.57935770  1
  Te  Te107  1  0.09035045  0.91591630  0.91233001  1
  Te  Te108  1  0.43670944  0.26023167  0.23610603  1
  Te  Te109  1  0.39809364  0.22629879  0.59329114  1
  Te  Te110  1  0.40113934  0.24770188  0.89245984  1
  Te  Te111  1  0.43022672  0.58679628  0.25286290  1
  Te  Te112  1  0.43312649  0.59378310  0.58536865  1
  Te  Te113  1  0.42467730  0.58016004  0.91675516  1
  Te  Te114  1  0.43062348  0.90670475  0.27235086  1
  Te  Te115  1  0.40485762  0.92556476  0.58901106  1
  Te  Te116  1  0.41564883  0.91345178  0.92531576  1
  Te  Te117  1  0.77308276  0.26215167  0.23560717  1
  Te  Te118  1  0.72940268  0.28423562  0.61438638  1
  Te  Te119  1  0.75596599  0.24664876  0.91868961  1
  Te  Te120  1  0.74950435  0.56183899  0.26152197  1
  Te  Te121  1  0.76869497  0.61035192  0.56980969  1
  Te  Te122  1  0.72686381  0.58612800  0.89980962  1
  Te  Te123  1  0.76076937  0.87482029  0.24656485  1
  Te  Te124  1  0.73758512  0.91082409  0.61023414  1
  Te  Te125  1  0.77874191  0.92858697  0.89124266  1
  Te  Te126  1  0.26537209  0.23767153  0.08974613  1
  Te  Te127  1  0.25358448  0.23308449  0.42518697  1
  Te  Te128  1  0.27729538  0.23689570  0.70850614  1
  Te  Te129  1  0.25625779  0.58450552  0.06597739  1
  Te  Te130  1  0.22450793  0.58875127  0.42933976  1
  Te  Te131  1  0.25395530  0.58284593  0.75576288  1
  Te  Te132  1  0.23461957  0.91053202  0.07773800  1
  Te  Te133  1  0.22270902  0.89633283  0.41806140  1
  Te  Te134  1  0.26124361  0.94421498  0.72079647  1
  Te  Te135  1  0.58987211  0.25335664  0.08553160  1
  Te  Te136  1  0.58249380  0.25015004  0.42336186  1
  Te  Te137  1  0.58431421  0.23853840  0.72982617  1
  Te  Te138  1  0.60827204  0.63028055  0.11643381  1
  Te  Te139  1  0.57997636  0.59905397  0.42944514  1
  Te  Te140  1  0.61353930  0.54205897  0.72088217  1
  Te  Te141  1  0.61543866  0.89772955  0.10613218  1
  Te  Te142  1  0.56979637  0.90192658  0.42531324  1
  Te  Te143  1  0.57475972  0.91757494  0.76584549  1
  Te  Te144  1  0.90612925  0.26210124  0.07488782  1
  Te  Te145  1  0.92572188  0.26298023  0.39440038  1
  Te  Te146  1  0.92658033  0.22546908  0.77649167  1
  Te  Te147  1  0.90540748  0.58624213  0.09385579  1
  Te  Te148  1  0.89966406  0.60901483  0.41590423  1
  Te  Te149  1  0.93069472  0.60794812  0.70934965  1
  Te  Te150  1  0.92119353  0.92867729  0.07184688  1
  Te  Te151  1  0.90519482  0.89044077  0.41103526  1
  Te  Te152  1  0.88765170  0.90890291  0.77907525  1
  Te  Te153  1  0.27513927  0.08531608  0.24161374  1
  Te  Te154  1  0.26204009  0.12548085  0.61920346  1
  Te  Te155  1  0.26580823  0.09472614  0.89534747  1
  Te  Te156  1  0.24385589  0.41829401  0.24874499  1
  Te  Te157  1  0.27528290  0.41355753  0.60649801  1
  Te  Te158  1  0.22991218  0.38725663  0.89903212  1
  Te  Te159  1  0.24866975  0.74757476  0.25948920  1
  Te  Te160  1  0.23357614  0.74811271  0.58118049  1
  Te  Te161  1  0.22302618  0.75807871  0.91086202  1
  Te  Te162  1  0.59448019  0.07043057  0.26035254  1
  Te  Te163  1  0.59083023  0.08526650  0.61831352  1
  Te  Te164  1  0.57588343  0.06544044  0.92022431  1
  Te  Te165  1  0.58798178  0.41717609  0.22430730  1
  Te  Te166  1  0.57653410  0.43172609  0.59186649  1
  Te  Te167  1  0.56599797  0.42473053  0.91903174  1
  Te  Te168  1  0.58140178  0.73328803  0.22832155  1
  Te  Te169  1  0.58344627  0.72663958  0.59801547  1
  Te  Te170  1  0.58046760  0.73239181  0.91239679  1
  Te  Te171  1  0.92951629  0.07974585  0.25725607  1
  Te  Te172  1  0.90866515  0.10089974  0.56106301  1
  Te  Te173  1  0.90091135  0.12296785  0.89548235  1
  Te  Te174  1  0.95386635  0.41264002  0.23391059  1
  Te  Te175  1  0.90734355  0.42077583  0.57808228  1
  Te  Te176  1  0.91287663  0.42475447  0.91769878  1
  Te  Te177  1  0.93482790  0.72303341  0.26814968  1
  Te  Te178  1  0.93465365  0.74194594  0.62113717  1
  Te  Te179  1  0.92279405  0.75676612  0.89776569  1
