# generated using pymatgen
data_In2Te3
_symmetry_space_group_name_H-M   'P 1'
_cell_length_a   18.88346900
_cell_length_b   18.86293012
_cell_length_c   18.89145463
_cell_angle_alpha   89.92207368
_cell_angle_beta   89.86549785
_cell_angle_gamma   89.87838041
_symmetry_Int_Tables_number   1
_chemical_formula_structural   In2Te3
_chemical_formula_sum   'In72 Te108'
_cell_volume   6729.05009182
_cell_formula_units_Z   36
loop_
 _symmetry_equiv_pos_site_id
 _symmetry_equiv_pos_as_xyz
  1  'x, y, z'
loop_
 _atom_site_type_symbol
 _atom_site_label
 _atom_site_symmetry_multiplicity
 _atom_site_fract_x
 _atom_site_fract_y
 _atom_site_fract_z
 _atom_site_occupancy
  In  In0  1  0.16182401  0.15329025  0.31629229  1
  In  In1  1  0.37108661  0.51070920  0.48610562  1
  In  In2  1  0.16901494  -0.00371431  0.16123351  1
  In  In3  1  0.16249383  0.33972830  0.85218606  1
  In  In4  1  0.84262149  0.67739200  0.50681874  1
  In  In5  1  0.81700094  0.16768678  0.66186701  1
  In  In6  1  0.16523319  0.34267407  0.50176565  1
  In  In7  1  0.67335482  0.66012678  0.01112059  1
  In  In8  1  0.37581683  0.84199722  0.18402651  1
  In  In9  1  0.65770557  0.66760531  0.33178519  1
  In  In10  1  -0.00500667  0.68207115  0.33962825  1
  In  In11  1  -0.03705016  0.14721159  0.18480627  1
  In  In12  1  0.83814570  0.85014207  -0.00020362  1
  In  In13  1  0.65962126  0.49774978  0.17946689  1
  In  In14  1  0.66460712  0.83317110  0.49136838  1
  In  In15  1  0.50920163  -0.01771334  0.47511016  1
  In  In16  1  0.84268817  0.33385803  0.83376843  1
  In  In17  1  0.85700229  0.67882192  0.15678466  1
  In  In18  1  0.14390154  -0.02142133  0.83742672  1
  In  In19  1  0.17629860  0.81496540  0.33021174  1
  In  In20  1  0.81489972  0.35527698  0.45506299  1
  In  In21  1  0.67632130  0.00699443  0.66763395  1
  In  In22  1  0.68003278  0.14345530  0.17584741  1
  In  In23  1  -0.02502576  -0.00236860  0.33486565  1
  In  In24  1  0.49761815  0.51197401  0.65334156  1
  In  In25  1  0.34187128  0.52275010  0.17338181  1
  In  In26  1  0.69493049  0.51376351  0.85244919  1
  In  In27  1  -0.01476726  0.50365640  0.49845965  1
  In  In28  1  0.00848422  -0.01170930  -0.00654438  1
  In  In29  1  0.00384287  0.81551993  0.13652884  1
  In  In30  1  0.14500686  0.82775852  -0.02253884  1
  In  In31  1  0.79469585  0.34138608  0.19856821  1
  In  In32  1  0.33451202  0.34638790  0.35540875  1
  In  In33  1  0.68399588  0.69102088  0.66679267  1
  In  In34  1  0.35357862  0.17293076  0.53820183  1
  In  In35  1  0.32920233  0.68330166  0.01435955  1
  In  In36  1  0.17017709  0.17610536  -0.01434334  1
  In  In37  1  -0.01060855  0.49881333  0.15859101  1
  In  In38  1  0.68263873  0.32824222  0.02548730  1
  In  In39  1  0.16645616  0.66988397  0.49060145  1
  In  In40  1  0.17315933  0.48318748  0.67413703  1
  In  In41  1  0.33620059  0.14339525  0.16829033  1
  In  In42  1  0.31765222  0.00591644  0.68672884  1
  In  In43  1  -0.02127152  0.17442379  0.48626567  1
  In  In44  1  0.70188422  0.82422676  0.84280787  1
  In  In45  1  0.49364332  -0.00783140  0.84633733  1
  In  In46  1  0.31541336  0.50647921  0.83537629  1
  In  In47  1  0.50726622  0.82293946  0.66067160  1
  In  In48  1  0.02462443  0.34802382  0.67882272  1
  In  In49  1  0.16247259  0.12279807  0.67530528  1
  In  In50  1  0.36531213  0.67964232  0.32631475  1
  In  In51  1  0.14565362  0.49806429  0.33239672  1
  In  In52  1  0.82738680  0.14600427  0.01236040  1
  In  In53  1  -0.00959662  0.68823357  0.69849369  1
  In  In54  1  0.49576649  0.31141638  0.83390707  1
  In  In55  1  0.31674936  0.86487678  0.83201344  1
  In  In56  1  0.64784625  0.14118577  0.83118855  1
  In  In57  1  0.35531092  0.29839244  0.65763629  1
  In  In58  1  0.51904987  0.16923530  0.34991988  1
  In  In59  1  0.85433084  0.51217929  0.66984810  1
  In  In60  1  0.14595851  0.32705701  0.15441784  1
  In  In61  1  0.33874668  0.81900896  0.48784014  1
  In  In62  1  -0.01108069  0.33695691  0.00494847  1
  In  In63  1  0.65893770  0.34359856  0.63112598  1
  In  In64  1  -0.01659243  -0.04653834  0.67182503  1
  In  In65  1  0.50736668  0.34554718  0.18185774  1
  In  In66  1  0.50827348  0.68988828  0.83246374  1
  In  In67  1  0.48439918  0.16366468  0.62941417  1
  In  In68  1  0.79874681  0.02600534  0.47602292  1
  In  In69  1  0.33198061  0.20005876  0.84747645  1
  In  In70  1  0.34258117  -0.00389911  0.01106335  1
  In  In71  1  0.51722643  0.50142736  0.00624661  1
  Te  Te72  1  0.08249461  0.09876651  0.08817755  1
  Te  Te73  1  0.07571163  0.07686660  0.41609866  1
  Te  Te74  1  0.04999961  0.06903373  0.75863889  1
  Te  Te75  1  0.09366337  0.43232580  0.05984249  1
  Te  Te76  1  0.05944634  0.40083302  0.41018723  1
  Te  Te77  1  0.07423582  0.44370554  0.78720596  1
  Te  Te78  1  0.11048822  0.72469823  0.08421993  1
  Te  Te79  1  0.07112510  0.77403251  0.43364562  1
  Te  Te80  1  0.09121167  0.76543893  0.77114724  1
  Te  Te81  1  0.43795723  0.08291261  0.07983083  1
  Te  Te82  1  0.41226373  0.08696493  0.42288537  1
  Te  Te83  1  0.42070636  0.09866084  0.76040548  1
  Te  Te84  1  0.41709403  0.41845349  0.08425154  1
  Te  Te85  1  0.44717681  0.44072491  0.37901608  1
  Te  Te86  1  0.42210457  0.41336272  0.74627088  1
  Te  Te87  1  0.43678263  0.73690110  0.09862482  1
  Te  Te88  1  0.45090961  0.76374613  0.40981611  1
  Te  Te89  1  0.40261861  0.76160338  0.75101988  1
  Te  Te90  1  0.73303851  0.04918344  0.07289965  1
  Te  Te91  1  0.71270973  0.11197003  0.39154601  1
  Te  Te92  1  0.76901930  0.07126185  0.76996451  1
  Te  Te93  1  0.76092696  0.44250066  0.07920179  1
  Te  Te94  1  0.71780639  0.44713061  0.39242205  1
  Te  Te95  1  0.74407236  0.41452519  0.73949218  1
  Te  Te96  1  0.74744080  0.76777223  0.09232401  1
  Te  Te97  1  0.76244841  0.75518700  0.40405327  1
  Te  Te98  1  0.79519838  0.75645345  0.74489086  1
  Te  Te99  1  0.06138483  0.24637569  0.25113051  1
  Te  Te100  1  0.08844656  0.23807006  0.58363897  1
  Te  Te101  1  0.05966237  0.24219632  0.90625003  1
  Te  Te102  1  0.07817652  0.59830398  0.24354614  1
  Te  Te103  1  0.08458206  0.57610569  0.58405183  1
  Te  Te104  1  0.04844035  0.65948612  0.95502253  1
  Te  Te105  1  0.07941843  0.90903143  0.24563556  1
  Te  Te106  1  0.10816981  0.92685842  0.60215038  1
  Te  Te107  1  0.03353983  0.86880515  0.87238561  1
  Te  Te108  1  0.40810252  0.24924117  0.25938635  1
  Te  Te109  1  0.45833041  0.29245807  0.53716250  1
  Te  Te110  1  0.43471307  0.23636148  0.94415403  1
  Te  Te111  1  0.44672371  0.56879313  0.26696182  1
  Te  Te112  1  0.40648975  0.60886078  0.58917046  1
  Te  Te113  1  0.42939169  0.58611440  0.91323502  1
  Te  Te114  1  0.45453575  0.95258103  0.24223935  1
  Te  Te115  1  0.42318546  0.93359774  0.59893933  1
  Te  Te116  1  0.42434282  0.89057269  0.93638973  1
  Te  Te117  1  0.74609054  0.22273905  0.28757124  1
  Te  Te118  1  0.75069213  0.25066975  0.55283167  1
  Te  Te119  1  0.74031980  0.24367108  0.91192729  1
  Te  Te120  1  0.75908175  0.59548668  0.24028925  1
  Te  Te121  1  0.75187760  0.58201992  0.58375713  1
  Te  Te122  1  0.77292386  0.62352193  0.90791991  1
  Te  Te123  1  0.67883652  0.86286449  0.21930910  1
  Te  Te124  1  0.75651060  0.91231012  0.58229886  1
  Te  Te125  1  0.73475182  0.93570917  0.93480840  1
  Te  Te126  1  0.25712224  0.24772897  0.08581493  1
  Te  Te127  1  0.24235233  0.23920439  0.41933016  1
  Te  Te128  1  0.23178240  0.25180962  0.73800968  1
  Te  Te129  1  0.25033641  0.57322713  0.07110023  1
  Te  Te130  1  0.25355997  0.57920744  0.40151255  1
  Te  Te131  1  0.23643888  0.59250936  0.74906125  1
  Te  Te132  1  0.24760421  0.89748376  0.07810745  1
  Te  Te133  1  0.25898218  0.90977228  0.40475131  1
  Te  Te134  1  0.20863350  0.89553447  0.71921686  1
  Te  Te135  1  0.58599205  0.24268637  0.10062136  1
  Te  Te136  1  0.57938206  0.25541351  0.45218150  1
  Te  Te137  1  0.58821183  0.24298328  0.72726235  1
  Te  Te138  1  0.57140219  0.59941164  0.10701299  1
  Te  Te139  1  0.61440217  0.56096006  0.42528001  1
  Te  Te140  1  0.59679182  0.59011238  0.75336746  1
  Te  Te141  1  0.55119478  0.89119828  0.13945400  1
  Te  Te142  1  0.61534399  0.92704962  0.38712518  1
  Te  Te143  1  0.59444950  0.90731129  0.75490719  1
  Te  Te144  1  0.89555648  0.25783094  0.10010019  1
  Te  Te145  1  0.90316038  0.25471103  0.38901606  1
  Te  Te146  1  0.92313090  0.24810017  0.73815640  1
  Te  Te147  1  0.92816876  0.59187756  0.05783095  1
  Te  Te148  1  0.90022350  0.57936394  0.40106683  1
  Te  Te149  1  0.93156601  0.57575503  0.77560382  1
  Te  Te150  1  0.91555268  0.93541946  0.09950936  1
  Te  Te151  1  0.89036461  0.92143863  0.42811364  1
  Te  Te152  1  0.87540814  0.89111032  0.74844263  1
  Te  Te153  1  0.26388919  0.05078176  0.26558838  1
  Te  Te154  1  0.24449890  0.06341967  0.56486972  1
  Te  Te155  1  0.24944960  0.07270977  0.90328209  1
  Te  Te156  1  0.24089733  0.40896098  0.24866159  1
  Te  Te157  1  0.27388848  0.41738635  0.57647142  1
  Te  Te158  1  0.27649210  0.39653978  0.92365983  1
  Te  Te159  1  0.26439409  0.74067390  0.23285111  1
  Te  Te160  1  0.26028870  0.73679434  0.58148524  1
  Te  Te161  1  0.24955056  0.74583140  0.90055780  1
  Te  Te162  1  0.56834538  0.07119208  0.24744760  1
  Te  Te163  1  0.59396138  0.07820433  0.56386458  1
  Te  Te164  1  0.57815046  0.06951886  0.93858314  1
  Te  Te165  1  0.62114773  0.38486553  0.27127230  1
  Te  Te166  1  0.59212095  0.45283608  0.55320787  1
  Te  Te167  1  0.59429197  0.40830727  0.91068425  1
  Te  Te168  1  0.57359901  0.76052792  0.24683848  1
  Te  Te169  1  0.57771924  0.72934610  0.56466800  1
  Te  Te170  1  0.59146640  0.76469043  0.93254008  1
  Te  Te171  1  0.86809945  0.05556366  0.25010428  1
  Te  Te172  1  0.91057642  0.07616620  0.58094237  1
  Te  Te173  1  0.92322898  0.08207634  0.92002484  1
  Te  Te174  1  0.90729660  0.41917256  0.25106471  1
  Te  Te175  1  0.91432913  0.39463750  0.58172228  1
  Te  Te176  1  0.90266009  0.42836094  0.92731964  1
  Te  Te177  1  0.91365004  0.77953098  0.25578599  1
  Te  Te178  1  0.93789923  0.76045398  0.58110305  1
  Te  Te179  1  0.93480026  0.75402577  0.93261924  1
