# generated using pymatgen
data_In2Te3
_symmetry_space_group_name_H-M   'P 1'
_cell_length_a   19.01671066
_cell_length_b   18.97496802
_cell_length_c   19.08808723
_cell_angle_alpha   90.06569514
_cell_angle_beta   90.21735692
_cell_angle_gamma   90.12734147
_symmetry_Int_Tables_number   1
_chemical_formula_structural   In2Te3
_chemical_formula_sum   'In72 Te108'
_cell_volume   6887.70241354
_cell_formula_units_Z   36
loop_
 _symmetry_equiv_pos_site_id
 _symmetry_equiv_pos_as_xyz
  1  'x, y, z'
loop_
 _atom_site_type_symbol
 _atom_site_label
 _atom_site_symmetry_multiplicity
 _atom_site_fract_x
 _atom_site_fract_y
 _atom_site_fract_z
 _atom_site_occupancy
  In  In0  1  -0.02621224  0.49131098  0.85642092  1
  In  In1  1  0.24443214  0.35450465  0.45809129  1
  In  In2  1  0.64805497  0.52715476  0.49190402  1
  In  In3  1  0.65960448  0.83690692  0.16335015  1
  In  In4  1  0.48887007  0.16514460  0.65805891  1
  In  In5  1  0.17322142  0.52923291  0.65356092  1
  In  In6  1  0.49654363  0.50986746  0.01302953  1
  In  In7  1  0.85186959  -0.02688942  0.14849333  1
  In  In8  1  0.87244952  0.15709404  0.67945140  1
  In  In9  1  0.65338585  0.32609197  0.32968609  1
  In  In10  1  0.64936763  0.36011687  0.67671737  1
  In  In11  1  0.85064658  0.66099511  0.18530184  1
  In  In12  1  0.83131126  0.81767755  0.33594380  1
  In  In13  1  0.66090577  0.51939830  0.84063487  1
  In  In14  1  0.00360263  -0.00867386  0.33455541  1
  In  In15  1  0.30809525  0.67908024  0.31220454  1
  In  In16  1  0.83230316  0.00112935  0.53933026  1
  In  In17  1  0.32526550  0.30433581  0.01206507  1
  In  In18  1  0.67130657  0.49826658  0.19559367  1
  In  In19  1  0.02358628  0.49102156  0.15764899  1
  In  In20  1  0.12549789  0.67408507  0.85357654  1
  In  In21  1  0.82743754  0.32632489  0.52311722  1
  In  In22  1  0.47065043  0.75418233  0.20242520  1
  In  In23  1  0.15996920  0.49146462  0.32019525  1
  In  In24  1  0.51059413  0.67213873  0.81805922  1
  In  In25  1  0.13963321  -0.00752868  0.17240001  1
  In  In26  1  0.34671279  0.14943602  0.47499220  1
  In  In27  1  0.31969134  0.68361276  -0.00093078  1
  In  In28  1  0.13467154  0.13885787  0.01231333  1
  In  In29  1  0.17120617  0.81560607  0.67719256  1
  In  In30  1  0.68023967  0.67679799  0.00812678  1
  In  In31  1  0.47727301  0.34503163  0.83271079  1
  In  In32  1  0.19755729  0.19244862  0.63666855  1
  In  In33  1  0.46730229  0.35068316  0.46554924  1
  In  In34  1  0.17287339  0.33832471  0.82286716  1
  In  In35  1  0.86697768  -0.01540723  0.86744487  1
  In  In36  1  0.49633816  0.29829036  0.17515454  1
  In  In37  1  0.34860513  0.11808348  0.17798229  1
  In  In38  1  0.18626933  0.66864758  0.49952934  1
  In  In39  1  0.34860062  0.84500658  0.84315289  1
  In  In40  1  0.02223846  0.00546267  0.65234878  1
  In  In41  1  0.83779437  0.48375928  0.69144157  1
  In  In42  1  0.02101514  0.32735723  0.65883644  1
  In  In43  1  0.66549776  0.86171939  0.83300980  1
  In  In44  1  0.84508829  0.48069236  0.02953873  1
  In  In45  1  0.86922542  0.69047082  0.85769655  1
  In  In46  1  0.32321155  0.86399532  0.12134655  1
  In  In47  1  0.13234371  0.29964322  0.17400825  1
  In  In48  1  0.50579556  0.01056430  0.84206762  1
  In  In49  1  0.65574023  0.00686371  0.35433055  1
  In  In50  1  0.01468069  0.81133224  0.48234550  1
  In  In51  1  0.91468063  0.29430543  0.18010417  1
  In  In52  1  0.44945097  0.62965922  0.50620265  1
  In  In53  1  0.66115493  0.68468834  0.64772843  1
  In  In54  1  0.82930052  0.17583022  0.34685979  1
  In  In55  1  0.83936566  0.67501483  0.49846459  1
  In  In56  1  0.33556392  0.16693194  0.83528563  1
  In  In57  1  0.17403026  0.01713300  0.46757812  1
  In  In58  1  0.64116676  0.04585975  0.72625865  1
  In  In59  1  0.14567192  -0.01367760  0.84179765  1
  In  In60  1  0.31652043  0.85055470  0.48301348  1
  In  In61  1  0.00779323  0.15141976  0.84109326  1
  In  In62  1  0.73540615  0.26784308  0.02413101  1
  In  In63  1  0.51478735  -0.00729259  0.15836287  1
  In  In64  1  0.32748068  0.49940801  0.81166371  1
  In  In65  1  0.62386330  0.83959570  0.49896498  1
  In  In66  1  0.14675943  0.68460768  0.12851152  1
  In  In67  1  0.83279270  0.84347397  0.68830813  1
  In  In68  1  0.64414736  0.19702113  0.52053859  1
  In  In69  1  0.84794447  0.50451408  0.36165374  1
  In  In70  1  0.31126644  0.51212221  0.16667042  1
  In  In71  1  0.69472284  0.14491938  0.16250797  1
  Te  Te72  1  0.04493613  0.10032054  0.12346413  1
  Te  Te73  1  0.08615458  0.10016614  0.38645836  1
  Te  Te74  1  0.10524194  0.10457672  0.73383298  1
  Te  Te75  1  0.07846361  0.38769566  0.07077998  1
  Te  Te76  1  0.11054153  0.41151957  0.43098898  1
  Te  Te77  1  0.08382432  0.43508665  0.74863793  1
  Te  Te78  1  0.07224841  0.77821384  0.04024430  1
  Te  Te79  1  0.12148027  0.75772714  0.40145242  1
  Te  Te80  1  0.06244003  0.77178007  0.76398381  1
  Te  Te81  1  0.42498102  0.06477397  0.06499595  1
  Te  Te82  1  0.43064765  0.03646666  0.42892805  1
  Te  Te83  1  0.40708569  0.07174238  0.74370139  1
  Te  Te84  1  0.41381630  0.40752719  0.08936678  1
  Te  Te85  1  0.36176630  0.42535622  0.39797962  1
  Te  Te86  1  0.43074930  0.43769921  0.72645012  1
  Te  Te87  1  0.42882216  0.76918422  0.05744240  1
  Te  Te88  1  0.39892229  0.74453539  0.41262003  1
  Te  Te89  1  0.41505775  0.75595498  0.74776587  1
  Te  Te90  1  0.74086228  0.03646000  0.07245850  1
  Te  Te91  1  0.74650345  0.09792350  0.44900127  1
  Te  Te92  1  0.79179405  0.05580523  0.75285707  1
  Te  Te93  1  0.72448108  0.41063519  0.08501566  1
  Te  Te94  1  0.73684783  0.41102749  0.42434785  1
  Te  Te95  1  0.74704645  0.40685684  0.78346944  1
  Te  Te96  1  0.77151987  0.75683947  0.09707681  1
  Te  Te97  1  0.73046555  0.75286651  0.42924907  1
  Te  Te98  1  0.75024652  0.73603945  0.75942976  1
  Te  Te99  1  0.02801715  0.26285159  0.26958385  1
  Te  Te100  1  0.09711288  0.25845004  0.55394388  1
  Te  Te101  1  0.09365115  0.25184491  0.91806719  1
  Te  Te102  1  0.08857513  0.59898802  0.24117973  1
  Te  Te103  1  0.07819890  0.60984906  0.57931180  1
  Te  Te104  1  0.07351134  0.56434316  0.93460340  1
  Te  Te105  1  0.05674867  0.88989350  0.24234448  1
  Te  Te106  1  0.10130608  0.90980561  0.56707545  1
  Te  Te107  1  0.07076652  0.93624745  0.95961129  1
  Te  Te108  1  0.39633666  0.23250365  0.26077136  1
  Te  Te109  1  0.40889471  0.25476346  0.56944036  1
  Te  Te110  1  0.43148274  0.23513294  0.93019993  1
  Te  Te111  1  0.40847526  0.60955977  0.22225436  1
  Te  Te112  1  0.38164830  0.53548903  0.59635718  1
  Te  Te113  1  0.41437292  0.58903635  0.91328587  1
  Te  Te114  1  0.42326063  0.89637891  0.23044260  1
  Te  Te115  1  0.41066346  0.94571634  0.54406771  1
  Te  Te116  1  0.41480336  0.94218001  0.93360933  1
  Te  Te117  1  0.76015830  0.26475287  0.24248167  1
  Te  Te118  1  0.75041978  0.24455659  0.62584654  1
  Te  Te119  1  0.73977336  0.19893312  0.89864051  1
  Te  Te120  1  0.75424561  0.59238007  0.28015034  1
  Te  Te121  1  0.75874586  0.57267367  0.59038886  1
  Te  Te122  1  0.77002676  0.58623570  0.92448053  1
  Te  Te123  1  0.74703059  0.92474775  0.26547531  1
  Te  Te124  1  0.73150847  0.90173140  0.59135842  1
  Te  Te125  1  0.77422853  0.88762983  0.92602131  1
  Te  Te126  1  0.24420802  0.21137013  0.09982652  1
  Te  Te127  1  0.26912014  0.22979019  0.37909685  1
  Te  Te128  1  0.27771304  0.26903651  0.73994560  1
  Te  Te129  1  0.23026810  0.57669265  0.05818560  1
  Te  Te130  1  0.25884086  0.57147501  0.40549375  1
  Te  Te131  1  0.23667094  0.60788574  0.76579384  1
  Te  Te132  1  0.21100353  0.93377830  0.05515239  1
  Te  Te133  1  0.24240946  0.92304873  0.37552862  1
  Te  Te134  1  0.24671443  0.92371660  0.75156283  1
  Te  Te135  1  0.59556466  0.23403054  0.08307277  1
  Te  Te136  1  0.55782607  0.23787918  0.40599999  1
  Te  Te137  1  0.56944236  0.25604402  0.75129252  1
  Te  Te138  1  0.59458771  0.58924001  0.09630586  1
  Te  Te139  1  0.54489561  0.58097978  0.40652573  1
  Te  Te140  1  0.58384088  0.57790762  0.72487096  1
  Te  Te141  1  0.60860289  0.93137462  0.06207318  1
  Te  Te142  1  0.54676170  0.91615243  0.39861296  1
  Te  Te143  1  0.56616018  0.91235889  0.73548599  1
  Te  Te144  1  0.92142336  0.19023293  0.07693839  1
  Te  Te145  1  0.91462070  0.27009515  0.42088317  1
  Te  Te146  1  0.93301118  0.26429425  0.76430635  1
  Te  Te147  1  0.93355291  0.59041721  0.08111616  1
  Te  Te148  1  0.93840934  0.60269856  0.42009089  1
  Te  Te149  1  0.92216563  0.59329270  0.75419850  1
  Te  Te150  1  0.95188646  0.91038534  0.05613397  1
  Te  Te151  1  0.90261178  0.91468958  0.43727039  1
  Te  Te152  1  0.94817394  0.92098272  0.75314080  1
  Te  Te153  1  0.25387262  0.03804969  0.25945545  1
  Te  Te154  1  0.26268052  0.07079762  0.57823979  1
  Te  Te155  1  0.23844057  0.08433632  0.91421000  1
  Te  Te156  1  0.23835244  0.39898017  0.22951607  1
  Te  Te157  1  0.26594326  0.43179853  0.59156189  1
  Te  Te158  1  0.26612242  0.40912703  0.91940606  1
  Te  Te159  1  0.24202350  0.76856984  0.21036495  1
  Te  Te160  1  0.27512625  0.74964793  0.59198406  1
  Te  Te161  1  0.23637153  0.76920069  0.91076375  1
  Te  Te162  1  0.58516847  0.09238611  0.25250774  1
  Te  Te163  1  0.58411728  0.07534967  0.58352416  1
  Te  Te164  1  0.63248307  0.08725873  0.87114447  1
  Te  Te165  1  0.55867698  0.41704224  0.25569172  1
  Te  Te166  1  0.57274167  0.41448564  0.56085851  1
  Te  Te167  1  0.57618672  0.42161016  0.92042753  1
  Te  Te168  1  0.60436685  0.74025329  0.25647513  1
  Te  Te169  1  0.54208388  0.73835288  0.57554533  1
  Te  Te170  1  0.59041108  0.75586757  0.91558540  1
  Te  Te171  1  0.89219029  0.06764340  0.26276176  1
  Te  Te172  1  0.94618340  0.10061851  0.56148067  1
  Te  Te173  1  0.90989746  0.10712592  0.94461865  1
  Te  Te174  1  0.90922425  0.43567170  0.24296470  1
  Te  Te175  1  0.92569355  0.42381838  0.58514667  1
  Te  Te176  1  0.90834903  0.38818622  0.93775232  1
  Te  Te177  1  0.93642421  0.76684757  0.24675905  1
  Te  Te178  1  0.91799657  0.76334023  0.59296078  1
  Te  Te179  1  0.94426474  0.77335047  0.95249105  1
