# generated using pymatgen
data_In2Te3
_symmetry_space_group_name_H-M   'P 1'
_cell_length_a   18.77327765
_cell_length_b   18.76344457
_cell_length_c   18.76885606
_cell_angle_alpha   90.04505409
_cell_angle_beta   90.02316634
_cell_angle_gamma   89.98534289
_symmetry_Int_Tables_number   1
_chemical_formula_structural   In2Te3
_chemical_formula_sum   'In72 Te108'
_cell_volume   6611.35216877
_cell_formula_units_Z   36
loop_
 _symmetry_equiv_pos_site_id
 _symmetry_equiv_pos_as_xyz
  1  'x, y, z'
loop_
 _atom_site_type_symbol
 _atom_site_label
 _atom_site_symmetry_multiplicity
 _atom_site_fract_x
 _atom_site_fract_y
 _atom_site_fract_z
 _atom_site_occupancy
  In  In0  1  0.00209246  0.48877740  0.16647437  1
  In  In1  1  0.15251435  0.33172712  0.16071140  1
  In  In2  1  0.16770998  0.50184856  0.66218387  1
  In  In3  1  -0.01925534  0.32230184  0.65346581  1
  In  In4  1  0.17064418  0.49470706  0.35224509  1
  In  In5  1  0.31534436  -0.03059383  0.34632053  1
  In  In6  1  0.69772144  0.19170031  0.84675081  1
  In  In7  1  0.30896934  0.18422385  0.82101677  1
  In  In8  1  -0.00611184  0.00897507  0.63761018  1
  In  In9  1  0.14161747  0.15842755  0.33031351  1
  In  In10  1  0.49086220  0.83590399  0.01278539  1
  In  In11  1  0.35292273  0.66816164  -0.01552200  1
  In  In12  1  0.35447055  0.33889497  0.32898974  1
  In  In13  1  0.66790354  0.81425674  0.18729852  1
  In  In14  1  -0.01052101  0.45494421  0.84902980  1
  In  In15  1  -0.01333910  0.00286626  0.00920367  1
  In  In16  1  0.48650984  0.31797299  0.49528848  1
  In  In17  1  -0.00943636  0.66062785  0.66086392  1
  In  In18  1  0.83576959  0.64658787  0.50480668  1
  In  In19  1  0.81680800  0.65193623  0.16841580  1
  In  In20  1  0.84361301  0.33792022  0.49232156  1
  In  In21  1  0.16789942  0.84825460  0.34345092  1
  In  In22  1  0.66788427  0.65082970  0.00256473  1
  In  In23  1  0.69793971  0.32010299  0.64950450  1
  In  In24  1  0.83591311  0.34210467  0.15825245  1
  In  In25  1  0.17697247  0.85506227  0.00513816  1
  In  In26  1  -0.01183821  0.65521103  0.34536191  1
  In  In27  1  0.32238016  0.82760847  0.18978540  1
  In  In28  1  0.68204701  0.50102414  0.50049073  1
  In  In29  1  0.01148821  0.21031401  0.84683214  1
  In  In30  1  0.00087958  0.65721712  0.01245405  1
  In  In31  1  0.68151233  0.84035070  0.83020756  1
  In  In32  1  0.48814481  0.50190568  0.66583958  1
  In  In33  1  0.32707667  0.65773105  0.65050180  1
  In  In34  1  0.64710508  0.19172223  0.14199342  1
  In  In35  1  0.83323440  0.17794154  0.34579417  1
  In  In36  1  0.85288652  0.83560482  0.33842745  1
  In  In37  1  0.66961390  0.01152692  -0.00123401  1
  In  In38  1  0.48814268  0.02342374  0.18622259  1
  In  In39  1  0.65000240  0.64825734  0.33229752  1
  In  In40  1  0.33238460  0.84988054  0.82278528  1
  In  In41  1  0.15467043  0.00579280  0.16913408  1
  In  In42  1  0.17277840  0.66801671  0.49129111  1
  In  In43  1  0.52214160  -0.00597250  0.84174044  1
  In  In44  1  0.14989426  0.66443105  0.80358771  1
  In  In45  1  0.50733166  -0.01261218  0.49641668  1
  In  In46  1  0.36040023  0.53026771  0.18747645  1
  In  In47  1  0.67293797  0.84314613  0.50902079  1
  In  In48  1  0.18778258  0.68984736  0.16846491  1
  In  In49  1  0.82518092  -0.00217991  0.16000813  1
  In  In50  1  0.82697158  0.84545435  0.66114126  1
  In  In51  1  0.52644270  0.50680639  0.00063082  1
  In  In52  1  0.35144830  0.18475230  0.16467679  1
  In  In53  1  0.15155477  0.34295414  0.51647991  1
  In  In54  1  0.16782162  0.02454616  0.81763511  1
  In  In55  1  0.83612705  0.66364799  0.82321288  1
  In  In56  1  -0.00976391  0.18147529  0.15170976  1
  In  In57  1  0.49075144  0.34944076  0.83408424  1
  In  In58  1  0.31234279  0.16803702  0.50619079  1
  In  In59  1  0.51977969  0.17096059  0.34621083  1
  In  In60  1  0.00431379  -0.00124330  0.35945426  1
  In  In61  1  0.48895767  0.17907199  0.65796664  1
  In  In62  1  0.50341234  0.63198770  0.84429204  1
  In  In63  1  0.18206163  0.47173764  -0.00929452  1
  In  In64  1  0.50843997  0.82504636  0.65923286  1
  In  In65  1  0.33283042  0.34565812  -0.00078641  1
  In  In66  1  0.34169589  -0.00202667  0.64235991  1
  In  In67  1  0.01629100  0.79519475  0.82780393  1
  In  In68  1  0.83596144  0.01183721  0.81776105  1
  In  In69  1  0.64872231  0.47146227  0.18424141  1
  In  In70  1  0.67958835  0.17393227  0.49444674  1
  In  In71  1  0.66130690  0.46422527  0.82427294  1
  Te  Te72  1  0.09029367  0.09951919  0.06814968  1
  Te  Te73  1  0.08401868  0.08924691  0.44978211  1
  Te  Te74  1  0.06114130  0.10338946  0.74512366  1
  Te  Te75  1  0.06059619  0.39164893  0.05019679  1
  Te  Te76  1  0.06728195  0.41109355  0.41425202  1
  Te  Te77  1  0.08701704  0.39984527  0.74402262  1
  Te  Te78  1  0.08300843  0.76493136  0.08642827  1
  Te  Te79  1  0.06848680  0.75909884  0.42209703  1
  Te  Te80  1  0.09820392  0.76448919  0.70204060  1
  Te  Te81  1  0.42905707  0.09750639  0.07419549  1
  Te  Te82  1  0.41075622  0.08831730  0.41575965  1
  Te  Te83  1  0.42373250  0.07478889  0.75103325  1
  Te  Te84  1  0.42384454  0.43022245  0.08997737  1
  Te  Te85  1  0.42667617  0.43148760  0.41851006  1
  Te  Te86  1  0.39615266  0.41314151  0.74095145  1
  Te  Te87  1  0.41754261  0.73787250  0.10361652  1
  Te  Te88  1  0.39798917  0.72230047  0.37623744  1
  Te  Te89  1  0.42387345  0.74297152  0.76411270  1
  Te  Te90  1  0.75935529  0.10682086  0.07668332  1
  Te  Te91  1  0.74588794  0.07504531  0.40634575  1
  Te  Te92  1  0.72489979  0.08213901  0.75126055  1
  Te  Te93  1  0.74447515  0.43043537  0.07993691  1
  Te  Te94  1  0.74070269  0.40166396  0.40627622  1
  Te  Te95  1  0.77489538  0.39134015  0.75787367  1
  Te  Te96  1  0.75238516  0.75604646  0.07392390  1
  Te  Te97  1  0.75440442  0.73833543  0.40929412  1
  Te  Te98  1  0.74059680  0.73992528  0.73115860  1
  Te  Te99  1  0.05788700  0.26613554  0.26071480  1
  Te  Te100  1  0.07437977  0.23244228  0.57882348  1
  Te  Te101  1  0.10151318  0.28646573  0.93852986  1
  Te  Te102  1  0.09445674  0.58804361  0.24227673  1
  Te  Te103  1  0.07435463  0.57564174  0.56652504  1
  Te  Te104  1  0.08244243  0.57514016  0.91107648  1
  Te  Te105  1  0.06703220  0.91122507  0.24668951  1
  Te  Te106  1  0.09462622  0.94439978  0.55224710  1
  Te  Te107  1  0.07996832  0.91881885  0.90591101  1
  Te  Te108  1  0.45899167  0.26885983  0.23660242  1
  Te  Te109  1  0.38327184  0.27044253  0.59889677  1
  Te  Te110  1  0.41564547  0.24459440  0.91544179  1
  Te  Te111  1  0.43865136  0.60326371  0.29269498  1
  Te  Te112  1  0.44153603  0.60717512  0.57129427  1
  Te  Te113  1  0.40279014  0.54212634  0.91307062  1
  Te  Te114  1  0.43211903  0.90758924  0.26702553  1
  Te  Te115  1  0.40988200  0.88769330  0.55924424  1
  Te  Te116  1  0.40897648  0.93208967  0.92649875  1
  Te  Te117  1  0.74475085  0.25274454  0.24382249  1
  Te  Te118  1  0.79313757  0.21310752  0.59150060  1
  Te  Te119  1  0.77669939  0.26766278  0.94835238  1
  Te  Te120  1  0.75423162  0.55742817  0.26729653  1
  Te  Te121  1  0.75927149  0.56970543  0.60602923  1
  Te  Te122  1  0.74760525  0.56834483  0.90451610  1
  Te  Te123  1  0.74701505  0.91914586  0.26517705  1
  Te  Te124  1  0.76113406  0.94881391  0.57383279  1
  Te  Te125  1  0.76845287  0.92049464  0.92514415  1
  Te  Te126  1  0.24402112  0.24395824  0.07522795  1
  Te  Te127  1  0.24508658  0.25710703  0.39795263  1
  Te  Te128  1  0.21906371  0.28287400  0.75900251  1
  Te  Te129  1  0.25141403  0.58460510  0.07714298  1
  Te  Te130  1  0.27023753  0.57139447  0.42947709  1
  Te  Te131  1  0.26354646  0.57336264  0.76121819  1
  Te  Te132  1  0.26965602  0.93696243  0.09336543  1
  Te  Te133  1  0.22196873  0.93243414  0.45717324  1
  Te  Te134  1  0.23647531  0.91860153  0.73003529  1
  Te  Te135  1  0.56840037  0.29072088  0.06916090  1
  Te  Te136  1  0.60887210  0.27986912  0.40905867  1
  Te  Te137  1  0.58652624  0.25681921  0.74706762  1
  Te  Te138  1  0.58019819  0.59687404  0.11211057  1
  Te  Te139  1  0.56883838  0.55948065  0.42159823  1
  Te  Te140  1  0.60001468  0.57886480  0.74181852  1
  Te  Te141  1  0.58788255  0.92173034  0.09478728  1
  Te  Te142  1  0.58504659  0.90296675  0.40489894  1
  Te  Te143  1  0.60092065  0.92427637  0.73019970  1
  Te  Te144  1  0.90268860  0.25311416  0.05326708  1
  Te  Te145  1  0.93716992  0.23979125  0.43034628  1
  Te  Te146  1  0.89716191  0.26213343  0.76410879  1
  Te  Te147  1  0.90018485  0.56139727  0.07520169  1
  Te  Te148  1  0.91391702  0.55249266  0.41909899  1
  Te  Te149  1  0.92435930  0.56059447  0.75405110  1
  Te  Te150  1  0.91782869  0.90403264  0.09291147  1
  Te  Te151  1  0.91020655  0.92225483  0.44438892  1
  Te  Te152  1  0.93480395  0.90781570  0.75408673  1
  Te  Te153  1  0.25981400  0.08773388  0.25579832  1
  Te  Te154  1  0.23828185  0.10030024  0.61415739  1
  Te  Te155  1  0.25049209  0.09033519  0.91981648  1
  Te  Te156  1  0.25400416  0.42101681  0.23254106  1
  Te  Te157  1  0.25801264  0.43343410  0.56592130  1
  Te  Te158  1  0.23528400  0.37839566  0.88071143  1
  Te  Te159  1  0.26581254  0.72823210  0.30068884  1
  Te  Te160  1  0.25857746  0.76067862  0.57086311  1
  Te  Te161  1  0.24156059  0.74816167  0.91190808  1
  Te  Te162  1  0.60752722  0.08632513  0.25522475  1
  Te  Te163  1  0.58396201  0.08875281  0.58105909  1
  Te  Te164  1  0.58504967  0.10994361  0.91955883  1
  Te  Te165  1  0.54378485  0.40023219  0.25886323  1
  Te  Te166  1  0.58292656  0.40135830  0.59018261  1
  Te  Te167  1  0.60297781  0.38065137  0.94541845  1
  Te  Te168  1  0.56116602  0.75252225  0.27047168  1
  Te  Te169  1  0.58351357  0.73837993  0.56606106  1
  Te  Te170  1  0.57904614  0.75519586  0.91542085  1
  Te  Te171  1  0.92464590  0.08045025  0.24739029  1
  Te  Te172  1  0.87247526  0.07397200  0.58555037  1
  Te  Te173  1  0.92009398  0.09770095  0.91139945  1
  Te  Te174  1  0.91795268  0.41408177  0.26075024  1
  Te  Te175  1  0.91069516  0.43321932  0.58367788  1
  Te  Te176  1  0.87831495  0.38291008  0.91486634  1
  Te  Te177  1  0.92051704  0.74054147  0.23774869  1
  Te  Te178  1  0.91687014  0.75991580  0.57182336  1
  Te  Te179  1  0.91006648  0.74854229  0.92678783  1
