# generated using pymatgen
data_In2Te3
_symmetry_space_group_name_H-M   'P 1'
_cell_length_a   18.98332790
_cell_length_b   18.96530510
_cell_length_c   18.94076810
_cell_angle_alpha   89.98671586
_cell_angle_beta   89.96745397
_cell_angle_gamma   89.62466987
_symmetry_Int_Tables_number   1
_chemical_formula_structural   In2Te3
_chemical_formula_sum   'In72 Te108'
_cell_volume   6818.99497012
_cell_formula_units_Z   36
loop_
 _symmetry_equiv_pos_site_id
 _symmetry_equiv_pos_as_xyz
  1  'x, y, z'
loop_
 _atom_site_type_symbol
 _atom_site_label
 _atom_site_symmetry_multiplicity
 _atom_site_fract_x
 _atom_site_fract_y
 _atom_site_fract_z
 _atom_site_occupancy
  In  In0  1  0.14034311  0.67609989  0.81987536  1
  In  In1  1  0.50271885  0.33770250  0.21151007  1
  In  In2  1  0.65764938  0.31389710  0.68659560  1
  In  In3  1  0.81885119  0.48812821  0.34915582  1
  In  In4  1  -0.00507774  0.32352528  0.38870497  1
  In  In5  1  0.02328504  0.31074500  0.63004712  1
  In  In6  1  0.25969012  0.30224322  0.61443886  1
  In  In7  1  0.67370591  0.84343586  0.49838888  1
  In  In8  1  0.34615909  0.69768427  0.33143261  1
  In  In9  1  0.29940261  0.46190550  0.80636650  1
  In  In10  1  0.82423923  0.31794073  0.83705702  1
  In  In11  1  0.17100455  0.66620365  0.49237044  1
  In  In12  1  0.81895444  0.66936165  0.81616656  1
  In  In13  1  0.65516521  0.67607080  0.35700903  1
  In  In14  1  0.02246640  0.92724451  0.16248277  1
  In  In15  1  0.49846493  -0.03308645  0.81908346  1
  In  In16  1  -0.01125597  0.15760770  0.82381406  1
  In  In17  1  0.50987494  0.30984526  0.84611007  1
  In  In18  1  0.83252980  0.68228988  0.18254948  1
  In  In19  1  0.32596854  0.83675400  0.82672922  1
  In  In20  1  0.33006051  0.86038950  0.18221740  1
  In  In21  1  0.14307198  0.29382200  0.79225268  1
  In  In22  1  0.82301353  0.49691197  -0.03642817  1
  In  In23  1  0.20414267  0.69155480  0.17562314  1
  In  In24  1  0.34160179  0.33329178  0.35360942  1
  In  In25  1  0.69255073  0.84738789  0.17824265  1
  In  In26  1  0.35491719  -0.04229176  0.63135867  1
  In  In27  1  0.51763028  0.16119308  0.01997382  1
  In  In28  1  0.65381785  0.14596751  0.51682023  1
  In  In29  1  0.15267987  -0.00138579  0.51018432  1
  In  In30  1  0.51340862  0.83650829  0.35585841  1
  In  In31  1  0.86441119  0.87770222  0.32701093  1
  In  In32  1  0.17228333  0.50133769  -0.01401684  1
  In  In33  1  -0.00564801  0.84709373  0.79394602  1
  In  In34  1  0.67873787  0.00216509  -0.00152733  1
  In  In35  1  0.50616190  0.50211510  -0.00317528  1
  In  In36  1  0.32485732  0.69563788  0.64727972  1
  In  In37  1  0.65430537  0.82570395  0.82178958  1
  In  In38  1  0.66334667  0.51474987  0.49565230  1
  In  In39  1  0.15051751  0.00034093  0.81034635  1
  In  In40  1  0.84995845  0.16486547  -0.01254898  1
  In  In41  1  0.84126367  0.85182831  0.65297588  1
  In  In42  1  0.47983336  0.51370778  0.66661378  1
  In  In43  1  0.32278021  0.13784671  0.47184160  1
  In  In44  1  0.49218108  0.66209138  0.83625828  1
  In  In45  1  0.15059667  0.50004079  0.32649546  1
  In  In46  1  0.30718384  0.12900829  0.21312948  1
  In  In47  1  -0.00553349  0.50730817  0.15788460  1
  In  In48  1  -0.01846283  0.66431602  0.67371582  1
  In  In49  1  0.85340217  0.84109144  0.00098630  1
  In  In50  1  -0.00551071  0.04155587  0.36939923  1
  In  In51  1  0.19592971  0.85061667  -0.00986444  1
  In  In52  1  0.01986924  0.14446453  0.18060476  1
  In  In53  1  0.50904432  0.32867444  0.48759210  1
  In  In54  1  0.65477926  0.50477596  0.81241856  1
  In  In55  1  0.02254523  0.67278299  -0.00026500  1
  In  In56  1  0.47484670  0.13152561  0.63721005  1
  In  In57  1  -0.01242108  0.69059113  0.34056033  1
  In  In58  1  0.71325376  0.31887547  0.00715219  1
  In  In59  1  0.64617995  0.48717665  0.16137087  1
  In  In60  1  0.52812671  0.00415471  0.19068497  1
  In  In61  1  0.65855460  0.17146308  0.19001878  1
  In  In62  1  0.33917480  0.01566631  -0.01816686  1
  In  In63  1  0.33346966  0.30179830  0.04127413  1
  In  In64  1  0.81679249  0.66320593  0.49483866  1
  In  In65  1  0.16840956  0.48962063  0.64012011  1
  In  In66  1  0.85428787  0.30813184  0.18110585  1
  In  In67  1  0.15144153  0.31414242  0.16348729  1
  In  In68  1  0.35451499  0.51189533  0.20266684  1
  In  In69  1  0.81004629  0.17161080  0.36124894  1
  In  In70  1  0.82700100  0.14318296  0.65877567  1
  In  In71  1  0.36436232  0.66755795  0.01064125  1
  Te  Te72  1  0.05908891  0.04376961  0.07953669  1
  Te  Te73  1  0.07799920  0.12131617  0.46365624  1
  Te  Te74  1  0.07375216  0.09142820  0.71822659  1
  Te  Te75  1  0.08063424  0.41564604  0.07357573  1
  Te  Te76  1  0.09802740  0.42126773  0.43821603  1
  Te  Te77  1  0.07541000  0.41498887  0.73314865  1
  Te  Te78  1  0.10724519  0.76641449  0.08261450  1
  Te  Te79  1  0.08617250  0.76362229  0.41676837  1
  Te  Te80  1  0.09111000  0.76557997  0.70968149  1
  Te  Te81  1  0.42205412  0.08189234  0.10680351  1
  Te  Te82  1  0.40929614  0.02636310  0.42857613  1
  Te  Te83  1  0.39982437  0.05355668  0.74452163  1
  Te  Te84  1  0.41982012  0.41642559  0.09427744  1
  Te  Te85  1  0.43821015  0.42996567  0.40541355  1
  Te  Te86  1  0.42597200  0.39925342  0.75241892  1
  Te  Te87  1  0.41357634  0.76495800  0.10542586  1
  Te  Te88  1  0.40235640  0.78173837  0.44283533  1
  Te  Te89  1  0.42465621  0.76090697  0.74041029  1
  Te  Te90  1  0.74660666  0.10608677  0.08669545  1
  Te  Te91  1  0.76107492  0.06232612  0.45085224  1
  Te  Te92  1  0.73949348  0.11845526  0.77135423  1
  Te  Te93  1  0.77342371  0.42411159  0.10010956  1
  Te  Te94  1  0.74118946  0.40397536  0.43821801  1
  Te  Te95  1  0.75524707  0.41719528  0.74116131  1
  Te  Te96  1  0.75377082  0.75356002  0.07427816  1
  Te  Te97  1  0.77250073  0.76693462  0.38939979  1
  Te  Te98  1  0.74345658  0.75542444  0.71772674  1
  Te  Te99  1  0.07628254  0.24758100  0.27541383  1
  Te  Te100  1  0.13480337  0.24384301  0.55623954  1
  Te  Te101  1  0.08089001  0.23431690  0.90922772  1
  Te  Te102  1  0.08561179  0.60347492  0.23169694  1
  Te  Te103  1  0.07206223  0.58507068  0.57574748  1
  Te  Te104  1  0.06785986  0.56807010  0.89831599  1
  Te  Te105  1  0.09033589  0.94881711  0.29368132  1
  Te  Te106  1  0.03594199  0.93600797  0.57960326  1
  Te  Te107  1  0.08175187  0.90419540  0.90703280  1
  Te  Te108  1  0.41128531  0.23166079  0.26319151  1
  Te  Te109  1  0.40513542  0.24452912  0.56153151  1
  Te  Te110  1  0.41325636  0.23000538  0.93128368  1
  Te  Te111  1  0.44067976  0.61628688  0.25254496  1
  Te  Te112  1  0.38669728  0.58164511  0.57383836  1
  Te  Te113  1  0.40124545  0.55533332  0.90031864  1
  Te  Te114  1  0.42093263  0.93648301  0.27549807  1
  Te  Te115  1  0.45579808  0.86802275  0.56484764  1
  Te  Te116  1  0.41786726  0.89729760  0.93059220  1
  Te  Te117  1  0.73775461  0.27365864  0.26878670  1
  Te  Te118  1  0.74445380  0.24904551  0.58182061  1
  Te  Te119  1  0.72433584  0.21477565  0.89135055  1
  Te  Te120  1  0.74319857  0.58598178  0.25747481  1
  Te  Te121  1  0.75227505  0.57776065  0.59300975  1
  Te  Te122  1  0.72370816  0.59722365  0.91228755  1
  Te  Te123  1  0.76607785  0.95250970  0.24773762  1
  Te  Te124  1  0.76498100  0.94374577  0.56230583  1
  Te  Te125  1  0.75362196  0.90752192  0.90696144  1
  Te  Te126  1  0.23328288  0.20402750  0.09833432  1
  Te  Te127  1  0.24048070  0.24227293  0.40625257  1
  Te  Te128  1  0.27396083  0.24656510  0.74934613  1
  Te  Te129  1  0.25856542  0.57448303  0.08777910  1
  Te  Te130  1  0.25421509  0.58790647  0.39111572  1
  Te  Te131  1  0.24255176  0.58961982  0.74334863  1
  Te  Te132  1  0.24884279  0.94932067  0.08959350  1
  Te  Te133  1  0.27104672  0.97169603  0.41209078  1
  Te  Te134  1  0.24057968  0.90850551  0.72755877  1
  Te  Te135  1  0.58688612  0.27593288  0.09138030  1
  Te  Te136  1  0.57567534  0.21951943  0.41271201  1
  Te  Te137  1  0.55845529  0.21344277  0.73952114  1
  Te  Te138  1  0.58140381  0.59182408  0.08266917  1
  Te  Te139  1  0.56468012  0.62281917  0.46128153  1
  Te  Te140  1  0.58291985  0.60629712  0.72626318  1
  Te  Te141  1  0.58913582  0.91567601  0.08414010  1
  Te  Te142  1  0.61558016  0.93279176  0.39582146  1
  Te  Te143  1  0.60320107  0.92587999  0.72335768  1
  Te  Te144  1  0.94180524  0.24101443  0.08067264  1
  Te  Te145  1  0.91049593  0.22251300  0.45881909  1
  Te  Te146  1  0.91341929  0.25992804  0.72617212  1
  Te  Te147  1  0.90813014  0.59693715  0.06926084  1
  Te  Te148  1  0.92079637  0.57907174  0.41585696  1
  Te  Te149  1  0.90655423  0.56914574  0.75469826  1
  Te  Te150  1  0.89977051  0.95420034  0.08171948  1
  Te  Te151  1  0.94088154  0.92437649  0.44670202  1
  Te  Te152  1  0.89343189  0.94845122  0.75456168  1
  Te  Te153  1  0.21004878  0.04943148  0.28683044  1
  Te  Te154  1  0.25815764  0.06921861  0.59331125  1
  Te  Te155  1  0.23376413  0.07808066  0.90348087  1
  Te  Te156  1  0.24650047  0.40700180  0.23801451  1
  Te  Te157  1  0.28705892  0.44023952  0.56706378  1
  Te  Te158  1  0.25938780  0.38846063  0.93413567  1
  Te  Te159  1  0.23537115  0.79219772  0.28128172  1
  Te  Te160  1  0.24565555  0.77811146  0.55472800  1
  Te  Te161  1  0.25281525  0.72365849  0.91418634  1
  Te  Te162  1  0.58565508  0.09500528  0.29316720  1
  Te  Te163  1  0.58439985  0.04065520  0.59660210  1
  Te  Te164  1  0.56936030  0.06648270  0.91462109  1
  Te  Te165  1  0.57898308  0.43876751  0.28325227  1
  Te  Te166  1  0.57648718  0.41129055  0.59774868  1
  Te  Te167  1  0.60463822  0.40525327  0.91940351  1
  Te  Te168  1  0.59043353  0.75896727  0.24765775  1
  Te  Te169  1  0.56890730  0.75962880  0.55880112  1
  Te  Te170  1  0.57033055  0.75324455  0.91812640  1
  Te  Te171  1  0.90004321  0.09685923  0.26267073  1
  Te  Te172  1  0.94641071  0.05399370  0.63022286  1
  Te  Te173  1  0.91604622  0.06101585  0.90846086  1
  Te  Te174  1  0.92957237  0.41532423  0.25946268  1
  Te  Te175  1  0.94905724  0.38291363  0.52307116  1
  Te  Te176  1  0.91640265  0.39371842  0.92356104  1
  Te  Te177  1  0.93898857  0.77823162  0.22469144  1
  Te  Te178  1  0.91657649  0.75083468  0.56773721  1
  Te  Te179  1  0.92681050  0.74713260  0.89797162  1
