# generated using pymatgen
data_In2Te3
_symmetry_space_group_name_H-M   'P 1'
_cell_length_a   18.95754226
_cell_length_b   18.95853909
_cell_length_c   18.94747696
_cell_angle_alpha   89.85635496
_cell_angle_beta   89.88325515
_cell_angle_gamma   90.10960410
_symmetry_Int_Tables_number   1
_chemical_formula_structural   In2Te3
_chemical_formula_sum   'In72 Te108'
_cell_volume   6809.81358509
_cell_formula_units_Z   36
loop_
 _symmetry_equiv_pos_site_id
 _symmetry_equiv_pos_as_xyz
  1  'x, y, z'
loop_
 _atom_site_type_symbol
 _atom_site_label
 _atom_site_symmetry_multiplicity
 _atom_site_fract_x
 _atom_site_fract_y
 _atom_site_fract_z
 _atom_site_occupancy
  In  In0  1  0.63326404  0.45376584  0.13731584  1
  In  In1  1  0.01866021  0.51872750  0.51857362  1
  In  In2  1  0.00467196  0.18490670  0.50816828  1
  In  In3  1  0.00007099  0.82915254  0.51335966  1
  In  In4  1  0.62509882  0.20384741  0.14064721  1
  In  In5  1  -0.01781340  0.16349718  0.80758841  1
  In  In6  1  0.50125789  0.18167078  0.31370956  1
  In  In7  1  0.17624867  0.16974536  0.33191746  1
  In  In8  1  0.35479555  0.01082396  0.31432122  1
  In  In9  1  0.34415747  0.63821661  -0.03544784  1
  In  In10  1  0.01937312  0.02141370  -0.02053003  1
  In  In11  1  0.49779492  0.67619249  0.15238670  1
  In  In12  1  0.00421042  0.86355039  0.17781069  1
  In  In13  1  0.32420939  0.47710204  0.52243007  1
  In  In14  1  0.84224859  0.83192722  -0.01481777  1
  In  In15  1  0.33253741  0.84611574  0.86753496  1
  In  In16  1  0.84321580  0.30743925  0.16394770  1
  In  In17  1  0.29413455  0.64821290  0.33613457  1
  In  In18  1  0.51134745  0.66705490  0.52193208  1
  In  In19  1  0.64827489  0.84622661  0.85496556  1
  In  In20  1  0.01660608  0.65013137  0.33828139  1
  In  In21  1  0.83340510  0.63445270  0.81258274  1
  In  In22  1  0.18504273  -0.00597565  0.84862447  1
  In  In23  1  0.02346037  0.66247412  0.01300574  1
  In  In24  1  0.51575191  0.83282291  0.69580110  1
  In  In25  1  0.83046574  0.49613898  0.00713982  1
  In  In26  1  0.66221007  0.65180178  0.68420620  1
  In  In27  1  0.62386789  0.48850074  0.82653106  1
  In  In28  1  -0.00893916  0.01137995  0.33976511  1
  In  In29  1  0.16007225  0.64909746  0.80644185  1
  In  In30  1  0.32854075  0.32550616  0.32143318  1
  In  In31  1  0.01081577  0.81706307  0.80843741  1
  In  In32  1  0.33357894  0.83068849  0.49011778  1
  In  In33  1  0.15935697  0.84865520  0.34214218  1
  In  In34  1  0.82689691  0.49522398  0.33662585  1
  In  In35  1  0.83037465  0.00444450  0.51769033  1
  In  In36  1  0.84822253  0.16451639  0.34776758  1
  In  In37  1  0.81496855  0.66121459  0.24223376  1
  In  In38  1  0.84742050  0.48595217  0.65162160  1
  In  In39  1  0.79120059  0.04477295  0.82515765  1
  In  In40  1  0.80669603  0.31430181  0.85362922  1
  In  In41  1  0.02773570  0.18834916  0.14900052  1
  In  In42  1  0.83318611  0.84432835  0.66906563  1
  In  In43  1  0.48794259  0.32635179  0.82376587  1
  In  In44  1  0.62105290  0.01861042  0.00782676  1
  In  In45  1  0.65699614  0.67686832  0.01545462  1
  In  In46  1  0.65345217  0.34409921  0.33160422  1
  In  In47  1  0.33113545  0.66885820  0.66825911  1
  In  In48  1  0.65469790  0.47652526  0.53616080  1
  In  In49  1  0.65065539  0.00888191  0.31427362  1
  In  In50  1  0.32061128  0.19209539  0.82348419  1
  In  In51  1  0.32045477  -0.01301037  0.66054591  1
  In  In52  1  0.50066147  0.51367989  0.32917181  1
  In  In53  1  0.00214272  0.48088967  0.12717600  1
  In  In54  1  0.18465481  0.66896373  0.17435435  1
  In  In55  1  0.66415630  0.31765581  0.67546197  1
  In  In56  1  0.33940767  0.47877343  0.13195727  1
  In  In57  1  0.67820448  0.81693966  0.21345856  1
  In  In58  1  0.18644729  0.16061507  0.66928899  1
  In  In59  1  0.22523715  0.86740335  0.00511621  1
  In  In60  1  0.80418683  0.02072233  0.14758572  1
  In  In61  1  0.18766537  0.46999885  -0.05791230  1
  In  In62  1  0.47334298  0.17773800  0.67462585  1
  In  In63  1  0.48182516  0.86232903  0.02140607  1
  In  In64  1  -0.01138415  -0.02011874  0.65911317  1
  In  In65  1  0.15558066  0.34026405  0.50940170  1
  In  In66  1  0.19358460  0.49300525  0.35668973  1
  In  In67  1  0.19807135  0.19751250  0.01124935  1
  In  In68  1  0.64842271  0.18505494  0.51365341  1
  In  In69  1  0.49934439  0.84022738  0.35342294  1
  In  In70  1  0.50743391  0.00076587  0.47990455  1
  In  In71  1  0.02735467  0.33784396  -0.05435026  1
  Te  Te72  1  0.11206857  0.08401932  0.07940124  1
  Te  Te73  1  0.08673005  0.08671024  0.42794323  1
  Te  Te74  1  0.09068707  0.05989090  0.74906425  1
  Te  Te75  1  0.10809395  0.40139699  0.05892400  1
  Te  Te76  1  0.07443619  0.42130387  0.40904314  1
  Te  Te77  1  0.12936828  0.37763389  0.83241949  1
  Te  Te78  1  0.09376567  0.76711494  0.09854439  1
  Te  Te79  1  0.09451006  0.74247830  0.42883546  1
  Te  Te80  1  0.08654404  0.73760253  0.70943580  1
  Te  Te81  1  0.42324968  0.00398602  0.03807126  1
  Te  Te82  1  0.41963256  0.10457109  0.41715530  1
  Te  Te83  1  0.39845645  0.07381494  0.75531293  1
  Te  Te84  1  0.41164848  0.38128482  0.04740561  1
  Te  Te85  1  0.40982421  0.42114342  0.40941343  1
  Te  Te86  1  0.38313018  0.43402356  0.80365539  1
  Te  Te87  1  0.39307872  0.74013602  0.06701959  1
  Te  Te88  1  0.41184306  0.71968326  0.41698984  1
  Te  Te89  1  0.40874616  0.75581571  0.76836003  1
  Te  Te90  1  0.73700701  0.12704264  0.06722405  1
  Te  Te91  1  0.73572282  0.09067773  0.41853471  1
  Te  Te92  1  0.74468373  0.14700623  0.72973052  1
  Te  Te93  1  0.74960187  0.38404368  0.06995468  1
  Te  Te94  1  0.74613946  0.40762693  0.43192191  1
  Te  Te95  1  0.74219891  0.42830078  0.75362771  1
  Te  Te96  1  0.76172872  0.75731844  0.09017432  1
  Te  Te97  1  0.73916586  0.74415142  0.33436386  1
  Te  Te98  1  0.74379510  0.75195515  0.77491140  1
  Te  Te99  1  0.09409140  0.26347754  0.25360778  1
  Te  Te100  1  0.08172469  0.25657668  0.61717928  1
  Te  Te101  1  0.09934707  0.21329502  0.89247279  1
  Te  Te102  1  0.08244398  0.56984137  0.22870032  1
  Te  Te103  1  0.07231218  0.58684110  0.63813627  1
  Te  Te104  1  0.07375094  0.57143564  0.90612868  1
  Te  Te105  1  0.10081587  0.95433580  0.24934246  1
  Te  Te106  1  0.09261595  0.92508621  0.57419660  1
  Te  Te107  1  0.08448191  0.89634279  0.92329396  1
  Te  Te108  1  0.38961028  0.22960113  0.22363045  1
  Te  Te109  1  0.42432054  0.30153934  0.61168256  1
  Te  Te110  1  0.44323727  0.20954108  0.90894273  1
  Te  Te111  1  0.39716120  0.58157037  0.23694501  1
  Te  Te112  1  0.42382048  0.56941072  0.59517355  1
  Te  Te113  1  0.43681623  0.55106757  0.89212475  1
  Te  Te114  1  0.43206920  0.90750130  0.24240056  1
  Te  Te115  1  0.43388130  0.90508636  0.57934775  1
  Te  Te116  1  0.44325288  0.94304089  0.89655552  1
  Te  Te117  1  0.73442269  0.24151420  0.25464954  1
  Te  Te118  1  0.75989783  0.25035857  0.58408364  1
  Te  Te119  1  0.72613708  0.21272795  0.92708361  1
  Te  Te120  1  0.72900943  0.53905778  0.22706096  1
  Te  Te121  1  0.75194476  0.58415965  0.58332379  1
  Te  Te122  1  0.73369404  0.58295619  0.92144215  1
  Te  Te123  1  0.77199954  0.93243903  0.26281642  1
  Te  Te124  1  0.74050965  0.94332925  0.61603769  1
  Te  Te125  1  0.74354861  0.93754169  0.93399608  1
  Te  Te126  1  0.29888348  0.27796276  0.08131860  1
  Te  Te127  1  0.25515619  0.25425772  0.43420990  1
  Te  Te128  1  0.29730247  0.26494188  0.68980450  1
  Te  Te129  1  0.24048468  0.57607126  0.06645244  1
  Te  Te130  1  0.23499702  0.58952491  0.46230372  1
  Te  Te131  1  0.26850232  0.56335666  0.75404535  1
  Te  Te132  1  0.30287428  0.93724056  0.10676414  1
  Te  Te133  1  0.26026507  0.93726811  0.41277047  1
  Te  Te134  1  0.24245577  0.89402108  0.75114226  1
  Te  Te135  1  0.53813257  0.28760682  0.05630686  1
  Te  Te136  1  0.55959403  0.26952569  0.42564326  1
  Te  Te137  1  0.60385366  0.20716625  0.76166595  1
  Te  Te138  1  0.56000909  0.56672097  0.06755866  1
  Te  Te139  1  0.59306926  0.57293536  0.43307627  1
  Te  Te140  1  0.54865843  0.59725622  0.76307550  1
  Te  Te141  1  0.60701225  0.90137478  0.10161776  1
  Te  Te142  1  0.61428378  0.90865993  0.42479225  1
  Te  Te143  1  0.59153723  0.94219311  0.75907502  1
  Te  Te144  1  0.93765777  0.26302898  0.05461766  1
  Te  Te145  1  0.92703668  0.26665727  0.41324061  1
  Te  Te146  1  0.91040516  0.27957191  0.75542476  1
  Te  Te147  1  0.90759970  0.59820140  0.09015734  1
  Te  Te148  1  0.91103488  0.58555886  0.42500578  1
  Te  Te149  1  0.94162565  0.57595052  0.72919361  1
  Te  Te150  1  0.91884204  0.93674822  0.07567585  1
  Te  Te151  1  0.90915638  0.91563968  0.42421948  1
  Te  Te152  1  0.90725597  0.92650857  0.78148717  1
  Te  Te153  1  0.27124027  0.10591086  0.23606585  1
  Te  Te154  1  0.26595599  0.08776142  0.57037002  1
  Te  Te155  1  0.26810086  0.08787773  0.92855611  1
  Te  Te156  1  0.24301615  0.41792308  0.23678144  1
  Te  Te157  1  0.21678913  0.42848249  0.61042702  1
  Te  Te158  1  0.27579922  0.35890047  0.89014768  1
  Te  Te159  1  0.25980446  0.77282021  0.25533693  1
  Te  Te160  1  0.24833235  0.75432191  0.58130471  1
  Te  Te161  1  0.22872130  0.73763067  0.91668247  1
  Te  Te162  1  0.56408616  0.08440502  0.21528017  1
  Te  Te163  1  0.56389786  0.08651588  0.59103123  1
  Te  Te164  1  0.59340313  0.13196544  0.91323099  1
  Te  Te165  1  0.54111890  0.39618775  0.24198291  1
  Te  Te166  1  0.55515968  0.40376043  0.61999447  1
  Te  Te167  1  0.58777918  0.38143845  0.92147583  1
  Te  Te168  1  0.56885232  0.72658808  0.27417814  1
  Te  Te169  1  0.60549291  0.76078817  0.59382656  1
  Te  Te170  1  0.55842524  0.75432201  0.93287146  1
  Te  Te171  1  0.91805196  0.09695081  0.23040561  1
  Te  Te172  1  0.91572579  0.09810402  0.59903789  1
  Te  Te173  1  0.90382289  0.09643945  0.91915874  1
  Te  Te174  1  0.91610604  0.41749229  0.23676574  1
  Te  Te175  1  0.93489637  0.40689038  0.56584385  1
  Te  Te176  1  0.90736092  0.42505349  0.90101205  1
  Te  Te177  1  0.93809678  0.75562210  0.25875758  1
  Te  Te178  1  0.90447680  0.74684437  0.58968071  1
  Te  Te179  1  0.92299294  0.72767110  0.90662268  1
