# generated using pymatgen
data_In2Te3
_symmetry_space_group_name_H-M   'P 1'
_cell_length_a   18.96740062
_cell_length_b   18.94124251
_cell_length_c   18.94168455
_cell_angle_alpha   90.10240342
_cell_angle_beta   90.04544455
_cell_angle_gamma   89.95314514
_symmetry_Int_Tables_number   1
_chemical_formula_structural   In2Te3
_chemical_formula_sum   'In72 Te108'
_cell_volume   6805.09051842
_cell_formula_units_Z   36
loop_
 _symmetry_equiv_pos_site_id
 _symmetry_equiv_pos_as_xyz
  1  'x, y, z'
loop_
 _atom_site_type_symbol
 _atom_site_label
 _atom_site_symmetry_multiplicity
 _atom_site_fract_x
 _atom_site_fract_y
 _atom_site_fract_z
 _atom_site_occupancy
  In  In0  1  0.19568355  0.84241592  0.32633408  1
  In  In1  1  0.83263214  0.49528535  0.36854823  1
  In  In2  1  0.50076089  -0.01521582  0.16099224  1
  In  In3  1  0.32463047  0.84394265  0.81654780  1
  In  In4  1  0.48573218  0.34197401  0.16260303  1
  In  In5  1  0.51381345  0.85749693  0.34609015  1
  In  In6  1  0.15245960  0.46827483  0.35331205  1
  In  In7  1  0.53843488  0.14657020  0.67582289  1
  In  In8  1  0.67868280  0.86826980  0.17397588  1
  In  In9  1  0.84950917  0.86405082  -0.01775439  1
  In  In10  1  0.50099536  0.00368563  0.85403924  1
  In  In11  1  0.16007507  0.32415403  0.47605205  1
  In  In12  1  0.53557539  0.48315611  0.36095027  1
  In  In13  1  0.83791217  0.12976187  -0.00010359  1
  In  In14  1  0.69049202  0.50704229  0.50031320  1
  In  In15  1  -0.01158187  0.49974396  0.16711101  1
  In  In16  1  0.15553654  0.65986616  0.51058484  1
  In  In17  1  0.16161070  0.15014687  0.36405739  1
  In  In18  1  0.48414867  0.67186132  0.16627021  1
  In  In19  1  0.83071321  -0.01498765  0.49582401  1
  In  In20  1  0.02521486  0.50843846  0.84643478  1
  In  In21  1  0.16008435  0.83781399  0.66856592  1
  In  In22  1  0.31569553  0.30206645  0.32310459  1
  In  In23  1  0.30725652  0.68086601  0.00032574  1
  In  In24  1  0.80660025  0.15762507  0.68818734  1
  In  In25  1  0.34040543  0.27743297  -0.04885673  1
  In  In26  1  0.32543601  0.00299667  -0.00516825  1
  In  In27  1  0.85162444  0.48330651  0.65506664  1
  In  In28  1  0.35301496  0.50043514  0.50288963  1
  In  In29  1  0.83357627  0.32587550  0.16475664  1
  In  In30  1  0.01743627  0.83211584  0.82666853  1
  In  In31  1  0.13879537  0.69121705  0.14901344  1
  In  In32  1  0.35454154  0.67356879  0.33824032  1
  In  In33  1  0.17184593  0.32693615  0.82284111  1
  In  In34  1  0.50910701  0.31726319  0.51668459  1
  In  In35  1  0.83287023  0.68452450  0.82769439  1
  In  In36  1  0.35132093  -0.01681659  0.63488180  1
  In  In37  1  0.14907254  0.84272695  0.00209162  1
  In  In38  1  0.64375145  0.49341767  0.16527764  1
  In  In39  1  0.17077815  0.17592144  0.00879772  1
  In  In40  1  0.02905002  0.31959206  0.34721078  1
  In  In41  1  -0.00680630  0.16312427  0.83191497  1
  In  In42  1  -0.00570361  0.82798538  0.50562594  1
  In  In43  1  0.68295558  0.67677289  0.33835278  1
  In  In44  1  0.85651656  0.51866306  -0.00716462  1
  In  In45  1  0.82391226  0.34126929  0.81793775  1
  In  In46  1  0.48672608  0.53360146  0.69105637  1
  In  In47  1  0.32179716  0.54404035  0.15219525  1
  In  In48  1  0.48640367  0.55793521  -0.01235467  1
  In  In49  1  -0.00942920  0.68521982  0.30295933  1
  In  In50  1  0.65223595  0.34273677  0.67458097  1
  In  In51  1  0.85440749  0.12644483  0.31418516  1
  In  In52  1  0.15271661  0.50113090  0.64671891  1
  In  In53  1  0.62940817  0.55465376  0.84262349  1
  In  In54  1  0.30043127  0.50481924  0.84830598  1
  In  In55  1  -0.00662839  0.14437155  0.17108122  1
  In  In56  1  0.68094238  0.77736480  0.64833234  1
  In  In57  1  0.65241817  -0.01847713  0.67825565  1
  In  In58  1  0.36992842  0.00259892  0.39372468  1
  In  In59  1  0.80912717  0.68616823  0.15692908  1
  In  In60  1  0.33310225  0.69000073  0.67087759  1
  In  In61  1  0.65988302  0.14974006  0.82970303  1
  In  In62  1  0.66082451  0.15035907  0.52342863  1
  In  In63  1  0.01993357  0.14521474  0.49430946  1
  In  In64  1  0.65739250  0.33680431  -0.01019026  1
  In  In65  1  0.15628200  0.00296901  0.16723677  1
  In  In66  1  0.16269775  0.35343179  0.15436812  1
  In  In67  1  0.66383909  0.13397580  0.15814712  1
  In  In68  1  0.33436245  0.32347850  0.68710352  1
  In  In69  1  0.84195343  0.68665090  0.51619072  1
  In  In70  1  -0.00067438  0.00248892  0.67672058  1
  In  In71  1  0.34391685  0.14241809  0.16879086  1
  Te  Te72  1  0.07359940  0.07323593  0.06209686  1
  Te  Te73  1  0.05282017  0.05279759  0.38234198  1
  Te  Te74  1  0.08798151  0.10328547  0.73575677  1
  Te  Te75  1  0.05452933  0.40752111  0.07405738  1
  Te  Te76  1  0.04479463  0.43219913  0.45837722  1
  Te  Te77  1  0.07589536  0.41013687  0.73937131  1
  Te  Te78  1  0.04724735  0.80275382  0.10711604  1
  Te  Te79  1  0.09388829  0.74904889  0.40269723  1
  Te  Te80  1  0.08636890  0.73311515  0.73968056  1
  Te  Te81  1  0.43347903  0.08550166  0.06451771  1
  Te  Te82  1  0.47663129  0.09199166  0.43940075  1
  Te  Te83  1  0.42560792  0.06813347  0.74096062  1
  Te  Te84  1  0.41791471  0.45128860  0.08110117  1
  Te  Te85  1  0.41454422  0.39409655  0.41174353  1
  Te  Te86  1  0.40615360  0.42937045  0.76726983  1
  Te  Te87  1  0.40196045  0.75872011  0.08175495  1
  Te  Te88  1  0.41558666  0.77472958  0.42472692  1
  Te  Te89  1  0.43121332  0.79113167  0.72323747  1
  Te  Te90  1  0.72415551  0.04869388  0.05098200  1
  Te  Te91  1  0.74792049  0.08241517  0.41642996  1
  Te  Te92  1  0.75963110  0.04525478  0.77694028  1
  Te  Te93  1  0.75710656  0.42636306  0.07688381  1
  Te  Te94  1  0.74156683  0.39434521  0.42191126  1
  Te  Te95  1  0.72461491  0.44095122  0.76375666  1
  Te  Te96  1  0.74220539  0.78116840  0.06358517  1
  Te  Te97  1  0.76531348  0.77538609  0.42058855  1
  Te  Te98  1  0.72786267  0.78801063  0.79438585  1
  Te  Te99  1  0.10265887  0.23921318  0.24038768  1
  Te  Te100  1  0.09378778  0.24094820  0.57648383  1
  Te  Te101  1  0.07807444  0.25563397  0.91947717  1
  Te  Te102  1  0.09143697  0.57349964  0.25371237  1
  Te  Te103  1  0.05685139  0.60404433  0.60203243  1
  Te  Te104  1  0.09739569  0.59183268  0.93943835  1
  Te  Te105  1  0.08477501  0.89832790  0.24493460  1
  Te  Te106  1  0.08423150  0.92940382  0.57326792  1
  Te  Te107  1  0.08799292  0.93400953  0.90597413  1
  Te  Te108  1  0.43131274  0.23064947  0.25611522  1
  Te  Te109  1  0.42703837  0.23171468  0.60867060  1
  Te  Te110  1  0.45547080  0.23232259  0.87997638  1
  Te  Te111  1  0.43959013  0.56478561  0.26935531  1
  Te  Te112  1  0.42463353  0.61169371  0.57324854  1
  Te  Te113  1  0.39312702  0.62383879  0.88175229  1
  Te  Te114  1  0.40447072  0.92554257  0.26565509  1
  Te  Te115  1  0.43369536  0.87191636  0.57720516  1
  Te  Te116  1  0.41313447  0.89996215  0.92573478  1
  Te  Te117  1  0.75761248  0.22335412  0.24306987  1
  Te  Te118  1  0.74590858  0.25964252  0.59077782  1
  Te  Te119  1  0.75487635  0.24326462  0.91514941  1
  Te  Te120  1  0.75492246  0.56747723  0.25021794  1
  Te  Te121  1  0.75733959  0.59532091  0.60292184  1
  Te  Te122  1  0.75236418  0.60191398  0.92646085  1
  Te  Te123  1  0.75261777  0.88011201  0.30154110  1
  Te  Te124  1  0.75976665  0.90285847  0.60371482  1
  Te  Te125  1  0.74956373  0.90945274  0.88285426  1
  Te  Te126  1  0.27633655  0.25812189  0.09481008  1
  Te  Te127  1  0.27166598  0.22401951  0.44102915  1
  Te  Te128  1  0.24838872  0.22399814  0.74974598  1
  Te  Te129  1  0.19979504  0.57876261  0.05715578  1
  Te  Te130  1  0.25264052  0.57663877  0.41629811  1
  Te  Te131  1  0.23944766  0.58760475  0.73588073  1
  Te  Te132  1  0.25250540  0.91290948  0.09150006  1
  Te  Te133  1  0.24341162  0.93378495  0.43615484  1
  Te  Te134  1  0.24269536  0.94349959  0.73975075  1
  Te  Te135  1  0.58366738  0.25144500  0.08863547  1
  Te  Te136  1  0.57919162  0.22613294  0.42314461  1
  Te  Te137  1  0.56838621  0.26872087  0.77812325  1
  Te  Te138  1  0.59768748  0.61071124  0.08668956  1
  Te  Te139  1  0.59083455  0.60405239  0.43477292  1
  Te  Te140  1  0.59317768  0.63312903  0.71997150  1
  Te  Te141  1  0.56994851  0.88523594  0.07684944  1
  Te  Te142  1  0.63647697  0.88245357  0.42761670  1
  Te  Te143  1  0.56652421  0.90045262  0.76659043  1
  Te  Te144  1  0.91905177  0.23841554  0.07693162  1
  Te  Te145  1  0.92325877  0.22791845  0.40485166  1
  Te  Te146  1  0.91371004  0.25602261  0.73379200  1
  Te  Te147  1  0.92585778  0.61292763  0.08879881  1
  Te  Te148  1  0.92302129  0.60646070  0.41611228  1
  Te  Te149  1  0.91249870  0.57077488  0.76128214  1
  Te  Te150  1  0.92426268  0.92104678  0.09486834  1
  Te  Te151  1  0.93864741  0.92897767  0.41085192  1
  Te  Te152  1  0.91924171  0.88841883  0.72790966  1
  Te  Te153  1  0.25118056  0.07329494  0.26469670  1
  Te  Te154  1  0.26854591  0.05177800  0.53470943  1
  Te  Te155  1  0.26235737  0.10893137  0.91352651  1
  Te  Te156  1  0.26263934  0.42501073  0.24683953  1
  Te  Te157  1  0.25640758  0.40864851  0.57635195  1
  Te  Te158  1  0.24608376  0.39607220  0.93781410  1
  Te  Te159  1  0.25753859  0.73440250  0.23860171  1
  Te  Te160  1  0.24923539  0.76293084  0.56836733  1
  Te  Te161  1  0.22786814  0.76024191  0.89907801  1
  Te  Te162  1  0.59057297  0.05294101  0.25548526  1
  Te  Te163  1  0.55865526  0.03961095  0.56233150  1
  Te  Te164  1  0.60119585  0.07224418  0.94042387  1
  Te  Te165  1  0.59805206  0.38723981  0.26197427  1
  Te  Te166  1  0.56635206  0.43744792  0.59153291  1
  Te  Te167  1  0.56960121  0.43937361  0.92739540  1
  Te  Te168  1  0.58378918  0.75276419  0.25060882  1
  Te  Te169  1  0.57271988  0.80522981  0.54963924  1
  Te  Te170  1  0.54573444  0.66933280  0.90315880  1
  Te  Te171  1  0.89456478  0.03440010  0.19986557  1
  Te  Te172  1  0.90126455  0.09270757  0.58716480  1
  Te  Te173  1  0.91645908  0.05760779  0.90018963  1
  Te  Te174  1  0.92144935  0.40301427  0.26630569  1
  Te  Te175  1  0.91541222  0.41657637  0.54506929  1
  Te  Te176  1  0.92032147  0.40920913  0.91267236  1
  Te  Te177  1  0.88260783  0.77388693  0.25341688  1
  Te  Te178  1  0.91750502  0.76623527  0.61762707  1
  Te  Te179  1  0.93081165  0.74907432  0.92167501  1
