# generated using pymatgen
data_In2Te3
_symmetry_space_group_name_H-M   'P 1'
_cell_length_a   19.00381679
_cell_length_b   18.98975739
_cell_length_c   19.01818082
_cell_angle_alpha   89.93582355
_cell_angle_beta   89.99667783
_cell_angle_gamma   90.01435652
_symmetry_Int_Tables_number   1
_chemical_formula_structural   In2Te3
_chemical_formula_sum   'In72 Te108'
_cell_volume   6863.23605890
_cell_formula_units_Z   36
loop_
 _symmetry_equiv_pos_site_id
 _symmetry_equiv_pos_as_xyz
  1  'x, y, z'
loop_
 _atom_site_type_symbol
 _atom_site_label
 _atom_site_symmetry_multiplicity
 _atom_site_fract_x
 _atom_site_fract_y
 _atom_site_fract_z
 _atom_site_occupancy
  In  In0  1  0.66535958  0.33662410  0.01012300  1
  In  In1  1  0.34814975  0.17189309  0.48748657  1
  In  In2  1  0.16628033  0.66418053  0.50292274  1
  In  In3  1  0.68812543  0.16087428  0.84289290  1
  In  In4  1  0.70175302  0.13640476  0.46520811  1
  In  In5  1  0.15224573  0.72210129  0.18584676  1
  In  In6  1  -0.02871673  0.16085996  0.87448651  1
  In  In7  1  0.01315367  0.66520953  0.68315095  1
  In  In8  1  0.33036831  0.84572755  0.49586315  1
  In  In9  1  0.48749076  0.83452088  0.33108363  1
  In  In10  1  0.66786633  0.82348689  0.48711815  1
  In  In11  1  0.53790836  0.50510793  0.70376467  1
  In  In12  1  0.82246091  0.33763218  0.49254000  1
  In  In13  1  0.69545585  0.15611926  0.17999009  1
  In  In14  1  0.14767217  0.84441509  0.01240327  1
  In  In15  1  0.35443755  0.33191153  0.00166879  1
  In  In16  1  -0.03343169  0.67021363  0.31780011  1
  In  In17  1  0.68485739  0.67434501  0.34106584  1
  In  In18  1  0.85576030  0.15579144  0.65921148  1
  In  In19  1  -0.05969701  0.49913336  0.87555235  1
  In  In20  1  0.32587431  0.14728739  0.17444262  1
  In  In21  1  0.70197887  0.50925626  0.86850431  1
  In  In22  1  0.01202233  -0.00265100  0.66778274  1
  In  In23  1  0.47833282  0.00009601  0.16315980  1
  In  In24  1  0.15302650  0.29674030  0.49109846  1
  In  In25  1  0.69712794  0.86135328  0.19073393  1
  In  In26  1  0.18570481  0.31679327  0.82606443  1
  In  In27  1  -0.00945806  0.34892242  0.69948478  1
  In  In28  1  -0.01233457  0.82311728  0.83368154  1
  In  In29  1  0.83605890  0.83417056  0.00079161  1
  In  In30  1  -0.02480070  0.51521983  0.17004817  1
  In  In31  1  0.53732195  0.16162991  0.00641807  1
  In  In32  1  0.12182349  -0.02920415  0.43332439  1
  In  In33  1  0.50686578  0.66293941  0.14425727  1
  In  In34  1  0.34395789  0.50786633  0.47392221  1
  In  In35  1  0.17440592  0.34723119  0.16276437  1
  In  In36  1  0.50218182  0.65943272  0.52187087  1
  In  In37  1  0.51384948  0.00931222  0.49081738  1
  In  In38  1  0.66996342  0.33761741  0.67833698  1
  In  In39  1  0.16190575  0.13732851  0.63393048  1
  In  In40  1  0.79814720  0.50710508  0.66361697  1
  In  In41  1  0.14376040  -0.03181634  0.19308797  1
  In  In42  1  0.34485182  0.67675328  0.67867685  1
  In  In43  1  0.36000164  0.00857657  0.65780337  1
  In  In44  1  0.13849230  0.50763171  -0.01828880  1
  In  In45  1  0.32878067  0.51362169  0.16863935  1
  In  In46  1  0.49827824  0.51136588  -0.00429667  1
  In  In47  1  0.19197204  0.52339841  0.65974742  1
  In  In48  1  0.15428655  0.48899810  0.33987009  1
  In  In49  1  0.33169746  -0.01966106  -0.03595173  1
  In  In50  1  0.12381541  0.16102228  0.01568814  1
  In  In51  1  -0.01348632  0.31885271  0.31775841  1
  In  In52  1  0.16052651  -0.01011776  0.82002465  1
  In  In53  1  -0.00769722  0.84120491  0.49014638  1
  In  In54  1  0.01107227  0.13916050  0.47974751  1
  In  In55  1  0.82082369  0.67315484  0.16204796  1
  In  In56  1  0.32854163  0.66975742  0.00478840  1
  In  In57  1  0.33876540  0.16922220  0.84067308  1
  In  In58  1  0.33759786  0.35245549  0.65486666  1
  In  In59  1  0.50089401  0.16439747  0.32649535  1
  In  In60  1  -0.04102704  0.16303861  0.16895566  1
  In  In61  1  0.64094261  0.81348259  0.85127819  1
  In  In62  1  0.49384590  0.15586748  0.67835011  1
  In  In63  1  0.68912484  -0.00716426  0.01287200  1
  In  In64  1  0.67244407  -0.02140261  0.68389325  1
  In  In65  1  0.65949321  0.34216937  0.33946688  1
  In  In66  1  0.83679163  0.67403158  0.48893764  1
  In  In67  1  0.80837830  0.82192064  0.68683377  1
  In  In68  1  0.82036445  0.34673955  0.15585443  1
  In  In69  1  0.49796413  0.50238542  0.32281957  1
  In  In70  1  0.34932899  0.82185055  0.83285596  1
  In  In71  1  0.34599229  0.51757452  0.83079840  1
  Te  Te72  1  0.05590059  0.06268016  0.10548155  1
  Te  Te73  1  0.11800837  0.11036055  0.38347001  1
  Te  Te74  1  0.07179805  0.10658011  0.76076024  1
  Te  Te75  1  0.06950011  0.42576354  0.08846781  1
  Te  Te76  1  0.06449961  0.39922839  0.42138477  1
  Te  Te77  1  0.11269474  0.42432359  0.74872203  1
  Te  Te78  1  0.05684261  0.75140331  0.08071199  1
  Te  Te79  1  0.06835037  0.73567894  0.41354776  1
  Te  Te80  1  0.09227017  0.76838247  0.74720591  1
  Te  Te81  1  0.41028253  0.08568487  0.05110701  1
  Te  Te82  1  0.40980688  0.06500434  0.39757786  1
  Te  Te83  1  0.42974762  0.06337671  0.78116776  1
  Te  Te84  1  0.42660177  0.42218743  0.09751703  1
  Te  Te85  1  0.43085985  0.40896159  0.41513553  1
  Te  Te86  1  0.42560698  0.41014047  0.76166941  1
  Te  Te87  1  0.39954881  0.75308265  0.10150987  1
  Te  Te88  1  0.41542916  0.74050562  0.42717423  1
  Te  Te89  1  0.44680146  0.76399735  0.73785273  1
  Te  Te90  1  0.76843753  0.11588136  0.05374383  1
  Te  Te91  1  0.77040728  0.05195752  0.36884773  1
  Te  Te92  1  0.77136772  0.07164190  0.75359121  1
  Te  Te93  1  0.73292110  0.44285375  0.08667641  1
  Te  Te94  1  0.72603150  0.42997676  0.43681669  1
  Te  Te95  1  0.76332090  0.40698762  0.77375741  1
  Te  Te96  1  0.72847336  0.76252430  0.08068409  1
  Te  Te97  1  0.78069332  0.78044995  0.39522174  1
  Te  Te98  1  0.73118961  0.72624219  0.76814886  1
  Te  Te99  1  0.08041374  0.24677574  0.22638345  1
  Te  Te100  1  0.05626692  0.24620855  0.59886994  1
  Te  Te101  1  0.07665106  0.26910760  0.91812551  1
  Te  Te102  1  0.08916397  0.58851027  0.24497728  1
  Te  Te103  1  0.07394257  0.57144391  0.57861833  1
  Te  Te104  1  0.05339564  0.59077941  0.89931156  1
  Te  Te105  1  0.03814411  0.87802897  0.24636507  1
  Te  Te106  1  0.09528117  0.91399166  0.57610706  1
  Te  Te107  1  0.06500577  0.92966408  0.91744557  1
  Te  Te108  1  0.41699984  0.24199386  0.23490769  1
  Te  Te109  1  0.43053703  0.25628321  0.58332286  1
  Te  Te110  1  0.44385504  0.24826089  0.91554065  1
  Te  Te111  1  0.41200838  0.60620007  0.25139046  1
  Te  Te112  1  0.41024892  0.56376093  0.60048308  1
  Te  Te113  1  0.43342210  0.61693653  0.90471196  1
  Te  Te114  1  0.39438615  0.90650166  0.24128803  1
  Te  Te115  1  0.44199575  0.90864034  0.57807130  1
  Te  Te116  1  0.43959313  0.87914544  0.94114850  1
  Te  Te117  1  0.76394591  0.25812945  0.26590455  1
  Te  Te118  1  0.74867756  0.23529584  0.58693526  1
  Te  Te119  1  0.75983582  0.24266819  0.94329459  1
  Te  Te120  1  0.74997452  0.58104471  0.25072090  1
  Te  Te121  1  0.73507168  0.60942568  0.57595583  1
  Te  Te122  1  0.81419072  0.58772063  0.92883608  1
  Te  Te123  1  0.79872166  0.96670688  0.22135465  1
  Te  Te124  1  0.75490491  0.91216947  0.57554673  1
  Te  Te125  1  0.74775181  0.90989360  0.90141838  1
  Te  Te126  1  0.24462815  0.24948537  0.06752784  1
  Te  Te127  1  0.26239847  0.25647140  0.40454986  1
  Te  Te128  1  0.25982698  0.22777104  0.71833399  1
  Te  Te129  1  0.22757927  0.58484455  0.08201776  1
  Te  Te130  1  0.24899647  0.59553264  0.39639324  1
  Te  Te131  1  0.24261626  0.61034823  0.77145982  1
  Te  Te132  1  0.24539315  0.93913620  0.07779701  1
  Te  Te133  1  0.22677370  0.87253662  0.38952204  1
  Te  Te134  1  0.26752292  0.92035596  0.74341005  1
  Te  Te135  1  0.59224236  0.25028147  0.11318694  1
  Te  Te136  1  0.59247267  0.23066397  0.42726457  1
  Te  Te137  1  0.58756290  0.24148533  0.76171337  1
  Te  Te138  1  0.60356684  0.58217212  0.06954311  1
  Te  Te139  1  0.58277056  0.58913300  0.41602325  1
  Te  Te140  1  0.61881859  0.59889809  0.78180337  1
  Te  Te141  1  0.58860049  0.91743550  0.09843190  1
  Te  Te142  1  0.59366168  0.92124012  0.39792023  1
  Te  Te143  1  0.57096895  0.89389572  0.74560268  1
  Te  Te144  1  0.92413324  0.27510113  0.07385261  1
  Te  Te145  1  0.91159622  0.23596828  0.42036039  1
  Te  Te146  1  0.90121815  0.24915048  0.77023033  1
  Te  Te147  1  0.89675748  0.58552513  0.06562148  1
  Te  Te148  1  0.91870919  0.57645657  0.41837983  1
  Te  Te149  1  0.90973026  0.57401888  0.74290612  1
  Te  Te150  1  0.89735746  0.95176943  0.06537057  1
  Te  Te151  1  0.98269498  0.94065125  0.37661813  1
  Te  Te152  1  0.91039044  0.92164874  0.74825261  1
  Te  Te153  1  0.23669637  0.06634863  0.25773076  1
  Te  Te154  1  0.26323971  0.06142375  0.55345907  1
  Te  Te155  1  0.22739168  0.09630473  0.91504892  1
  Te  Te156  1  0.26298328  0.41469828  0.26399684  1
  Te  Te157  1  0.23629685  0.41352824  0.56009922  1
  Te  Te158  1  0.26176700  0.42422406  0.92280769  1
  Te  Te159  1  0.25416736  0.79736540  0.25582761  1
  Te  Te160  1  0.25069398  0.75497700  0.58915607  1
  Te  Te161  1  0.24008679  0.76301484  0.92326199  1
  Te  Te162  1  0.58605230  0.07139555  0.24359237  1
  Te  Te163  1  0.59782282  0.08459186  0.59165012  1
  Te  Te164  1  0.59556218  0.06085205  0.91134348  1
  Te  Te165  1  0.59628253  0.43058740  0.24155105  1
  Te  Te166  1  0.58941810  0.42548484  0.59425257  1
  Te  Te167  1  0.58478309  0.41983726  0.91192117  1
  Te  Te168  1  0.59054657  0.75530734  0.25075975  1
  Te  Te169  1  0.61562005  0.72810130  0.58772260  1
  Te  Te170  1  0.53616283  0.75808241  0.93888561  1
  Te  Te171  1  0.89359943  0.07853796  0.27378350  1
  Te  Te172  1  0.91730161  0.05558484  0.56333976  1
  Te  Te173  1  0.89650763  0.06776224  0.96309102  1
  Te  Te174  1  0.89729156  0.42819236  0.26492175  1
  Te  Te175  1  0.90268762  0.41557608  0.59604050  1
  Te  Te176  1  0.92216159  0.38433867  0.96317960  1
  Te  Te177  1  0.91679554  0.77242859  0.22212540  1
  Te  Te178  1  0.91856550  0.75757916  0.59571668  1
  Te  Te179  1  0.89401003  0.73416468  0.90598442  1
