# generated using pymatgen
data_In2Te3
_symmetry_space_group_name_H-M   'P 1'
_cell_length_a   18.90209896
_cell_length_b   18.88518673
_cell_length_c   18.91990613
_cell_angle_alpha   89.95347400
_cell_angle_beta   89.80194177
_cell_angle_gamma   90.10790720
_symmetry_Int_Tables_number   1
_chemical_formula_structural   In2Te3
_chemical_formula_sum   'In72 Te108'
_cell_volume   6753.77802701
_cell_formula_units_Z   36
loop_
 _symmetry_equiv_pos_site_id
 _symmetry_equiv_pos_as_xyz
  1  'x, y, z'
loop_
 _atom_site_type_symbol
 _atom_site_label
 _atom_site_symmetry_multiplicity
 _atom_site_fract_x
 _atom_site_fract_y
 _atom_site_fract_z
 _atom_site_occupancy
  In  In0  1  0.61265619  0.31141477  0.37815944  1
  In  In1  1  0.19265281  0.15182295  0.00080295  1
  In  In2  1  0.80054373  0.84945771  -0.00823920  1
  In  In3  1  0.82651796  0.16107186  0.66993133  1
  In  In4  1  0.31426606  0.14715608  0.19456351  1
  In  In5  1  0.33265108  0.66234707  0.65328654  1
  In  In6  1  0.83094110  0.50503078  0.66121181  1
  In  In7  1  0.64648227  0.50445745  0.82330456  1
  In  In8  1  0.16583946  -0.00756366  0.84231854  1
  In  In9  1  0.66052928  0.33695967  0.63885751  1
  In  In10  1  0.32860601  0.32525611  0.66988783  1
  In  In11  1  0.49128835  0.81901620  0.67393660  1
  In  In12  1  0.82176100  0.85001688  0.32670271  1
  In  In13  1  0.60574079  -0.01183626  -0.03245716  1
  In  In14  1  -0.01569511  0.17203349  0.52540260  1
  In  In15  1  0.82460260  0.33375430  0.18171489  1
  In  In16  1  0.00385251  0.84027499  0.52237706  1
  In  In17  1  0.19448517  0.32351261  0.49742616  1
  In  In18  1  0.84428265  0.50109547  -0.01678442  1
  In  In19  1  0.47613626  0.51024227  0.32059858  1
  In  In20  1  0.49630014  0.66319143  0.82362288  1
  In  In21  1  0.35446949  0.69337506  0.00022515  1
  In  In22  1  0.16142745  0.32652637  0.81263449  1
  In  In23  1  0.34376829  0.49685737  0.15670336  1
  In  In24  1  0.67842952  0.16310055  0.16946803  1
  In  In25  1  0.03838421  0.17833318  0.16604235  1
  In  In26  1  0.02610821  0.50918613  0.50517400  1
  In  In27  1  0.83193431  0.68711951  0.81909865  1
  In  In28  1  0.16247687  0.32273451  0.18140650  1
  In  In29  1  0.83264576  0.16043899  -0.02170534  1
  In  In30  1  0.17104403  -0.00429174  0.50732872  1
  In  In31  1  0.32623226  0.83745998  0.49697993  1
  In  In32  1  0.66535909  0.51747668  0.15845292  1
  In  In33  1  0.17751141  0.16892882  0.66709260  1
  In  In34  1  0.00423907  0.64703398  -0.00107729  1
  In  In35  1  0.64638394  0.50517139  0.49396814  1
  In  In36  1  0.34856171  0.32988909  0.34003998  1
  In  In37  1  0.50415400  0.00668721  0.16232935  1
  In  In38  1  -0.01599988  0.16206919  0.81021745  1
  In  In39  1  0.66342922  0.30963780  -0.02021291  1
  In  In40  1  0.62726884  0.65969966  0.00130913  1
  In  In41  1  0.48661924  0.31445436  0.85376313  1
  In  In42  1  0.66691090  0.86496096  0.50876021  1
  In  In43  1  0.33721589  0.83069364  0.16509690  1
  In  In44  1  0.48647828  0.64533372  0.50865622  1
  In  In45  1  -0.00031854  0.01462322  0.00400176  1
  In  In46  1  0.17263497  0.66972659  0.18926192  1
  In  In47  1  0.66870475  -0.00788045  0.69016076  1
  In  In48  1  0.49426362  0.15680026  0.67262625  1
  In  In49  1  0.84540253  0.69087848  0.48086014  1
  In  In50  1  -0.03113613  0.85699205  0.80299409  1
  In  In51  1  0.50567500  0.35676496  0.15257282  1
  In  In52  1  0.31468168  -0.00875969  0.68142493  1
  In  In53  1  0.19539271  0.52735191  0.36938516  1
  In  In54  1  0.01419819  0.68239160  0.35635021  1
  In  In55  1  0.84033875  0.47212699  0.30838085  1
  In  In56  1  0.65562147  0.00844091  0.34955884  1
  In  In57  1  0.50316989  0.80854854  0.30052589  1
  In  In58  1  0.84707850  0.14844570  0.34952694  1
  In  In59  1  0.02466208  -0.02111213  0.33628071  1
  In  In60  1  0.67580160  0.67526061  0.69061420  1
  In  In61  1  0.00748026  0.33055878  0.00282516  1
  In  In62  1  0.83394255  0.66070854  0.14316855  1
  In  In63  1  0.33078369  0.50258476  0.81934293  1
  In  In64  1  0.18178759  0.84476562  0.02592503  1
  In  In65  1  0.18761539  0.49459406  -0.02174693  1
  In  In66  1  0.02007053  0.66030405  0.66810442  1
  In  In67  1  0.01754812  0.47627160  0.84845138  1
  In  In68  1  0.82047358  -0.00842187  0.18684796  1
  In  In69  1  0.83709736  0.33405138  0.51057620  1
  In  In70  1  0.48055989  0.03666431  0.48829876  1
  In  In71  1  0.01465512  0.85464411  0.19710962  1
  Te  Te72  1  0.10954043  0.06407680  0.09519395  1
  Te  Te73  1  0.07266730  0.08639627  0.43316850  1
  Te  Te74  1  0.08540203  0.07329444  0.74054863  1
  Te  Te75  1  0.09890734  0.42230757  0.07951126  1
  Te  Te76  1  0.10221311  0.41513766  0.41375926  1
  Te  Te77  1  0.09880547  0.43301161  0.73422679  1
  Te  Te78  1  0.07225000  0.74546972  0.09602061  1
  Te  Te79  1  0.08804919  0.79716258  0.40600449  1
  Te  Te80  1  0.07146062  0.76175760  0.76114048  1
  Te  Te81  1  0.39602737  0.07827907  0.08912111  1
  Te  Te82  1  0.40922748  0.12475181  0.39420505  1
  Te  Te83  1  0.41722134  0.06419885  0.76259021  1
  Te  Te84  1  0.40747395  0.41002991  0.05771527  1
  Te  Te85  1  0.41032732  0.43214588  0.42737401  1
  Te  Te86  1  0.42850692  0.41027013  0.74937037  1
  Te  Te87  1  0.44577009  0.78794251  0.06872643  1
  Te  Te88  1  0.41226165  0.73612161  0.41036711  1
  Te  Te89  1  0.39121500  0.75542012  0.76659998  1
  Te  Te90  1  0.75180103  0.07072836  0.07539001  1
  Te  Te91  1  0.75833255  0.06846268  0.43490720  1
  Te  Te92  1  0.73111078  0.10260208  0.76829108  1
  Te  Te93  1  0.74883340  0.41279389  0.07509307  1
  Te  Te94  1  0.74496317  0.41403868  0.41850443  1
  Te  Te95  1  0.74217602  0.41585461  0.74557632  1
  Te  Te96  1  0.72828791  0.74989241  0.08222113  1
  Te  Te97  1  0.73091621  0.76174942  0.41358709  1
  Te  Te98  1  0.73689527  0.78517268  0.76596258  1
  Te  Te99  1  0.11566129  0.22430463  0.28111148  1
  Te  Te100  1  0.08692811  0.26243243  0.59110706  1
  Te  Te101  1  0.08276744  0.22827321  0.91857424  1
  Te  Te102  1  0.08331272  0.57860624  0.27139341  1
  Te  Te103  1  0.10711460  0.62250866  0.55407764  1
  Te  Te104  1  0.10308839  0.59312212  0.89847362  1
  Te  Te105  1  0.13430157  0.93374328  0.24167056  1
  Te  Te106  1  0.09986796  0.91280439  0.60601656  1
  Te  Te107  1  0.06620892  0.90103668  0.92680957  1
  Te  Te108  1  0.42319712  0.25647651  0.23192846  1
  Te  Te109  1  0.42067612  0.24895323  0.57954178  1
  Te  Te110  1  0.43597471  0.20579060  0.93893437  1
  Te  Te111  1  0.42234318  0.60620352  0.22070905  1
  Te  Te112  1  0.38473107  0.55305330  0.56478769  1
  Te  Te113  1  0.41666936  0.57853502  0.92130502  1
  Te  Te114  1  0.41647996  0.92388729  0.25794898  1
  Te  Te115  1  0.42282638  0.92195806  0.58455798  1
  Te  Te116  1  0.47666727  0.96479750  0.89326127  1
  Te  Te117  1  0.74471399  0.24540711  0.27831196  1
  Te  Te118  1  0.73908010  0.23175837  0.56239796  1
  Te  Te119  1  0.74447150  0.23221384  0.88340219  1
  Te  Te120  1  0.75758646  0.58899672  0.25507639  1
  Te  Te121  1  0.74829717  0.59602253  0.57282945  1
  Te  Te122  1  0.74239128  0.58896680  0.91423029  1
  Te  Te123  1  0.70395093  0.90466136  0.23928779  1
  Te  Te124  1  0.76692311  0.91342781  0.60669073  1
  Te  Te125  1  0.73488652  0.94664749  0.90483787  1
  Te  Te126  1  0.26035766  0.25328091  0.08956529  1
  Te  Te127  1  0.27226954  0.22559532  0.41578101  1
  Te  Te128  1  0.26943557  0.22648953  0.77226543  1
  Te  Te129  1  0.24730360  0.59760377  0.07724883  1
  Te  Te130  1  0.28400433  0.64331124  0.38863066  1
  Te  Te131  1  0.24013852  0.58539037  0.74143063  1
  Te  Te132  1  0.29322497  0.93516461  0.06561309  1
  Te  Te133  1  0.27235673  0.94519365  0.40804989  1
  Te  Te134  1  0.24020130  0.89307661  0.76172469  1
  Te  Te135  1  0.57963646  0.23718243  0.08228824  1
  Te  Te136  1  0.51894090  0.21606130  0.44900267  1
  Te  Te137  1  0.58078376  0.26058928  0.74412063  1
  Te  Te138  1  0.54710842  0.58676264  0.10361852  1
  Te  Te139  1  0.57801430  0.59725653  0.39556177  1
  Te  Te140  1  0.56414039  0.57519336  0.71775484  1
  Te  Te141  1  0.57008344  0.89816566  0.08193807  1
  Te  Te142  1  0.55365299  0.91206693  0.41645343  1
  Te  Te143  1  0.56417545  0.91264922  0.76510879  1
  Te  Te144  1  0.91225596  0.23569673  0.08527182  1
  Te  Te145  1  0.92801636  0.26025293  0.41305459  1
  Te  Te146  1  0.91628514  0.26295470  0.73014463  1
  Te  Te147  1  0.93197659  0.55349638  0.09570644  1
  Te  Te148  1  0.91083869  0.56951172  0.41651448  1
  Te  Te149  1  0.91719824  0.57256327  0.76721575  1
  Te  Te150  1  0.91167931  0.91203100  0.08925600  1
  Te  Te151  1  0.91291095  0.91993135  0.42274963  1
  Te  Te152  1  0.89990346  0.94549606  0.70902329  1
  Te  Te153  1  0.23919042  0.04646941  0.27465630  1
  Te  Te154  1  0.26939279  0.09220086  0.57662077  1
  Te  Te155  1  0.27180206  0.04983725  0.92862134  1
  Te  Te156  1  0.25279927  0.42929277  0.25805774  1
  Te  Te157  1  0.25598422  0.42422650  0.58646669  1
  Te  Te158  1  0.26432186  0.38821233  0.90582527  1
  Te  Te159  1  0.26157386  0.75241951  0.27405658  1
  Te  Te160  1  0.23922053  0.75082694  0.57811692  1
  Te  Te161  1  0.24496761  0.75753057  0.92663194  1
  Te  Te162  1  0.57473364  0.10044450  0.26219686  1
  Te  Te163  1  0.58905862  0.07398681  0.58485290  1
  Te  Te164  1  0.54488713  0.11388840  0.89868840  1
  Te  Te165  1  0.59666722  0.41778627  0.26023906  1
  Te  Te166  1  0.55848492  0.40812267  0.55971008  1
  Te  Te167  1  0.57567016  0.42239831  0.92853169  1
  Te  Te168  1  0.62292322  0.76607832  0.23014068  1
  Te  Te169  1  0.58765462  0.74640292  0.57790892  1
  Te  Te170  1  0.59463073  0.75030912  0.89064210  1
  Te  Te171  1  0.93283353  0.07855871  0.24243195  1
  Te  Te172  1  0.92050226  0.06115951  0.60394333  1
  Te  Te173  1  0.90721722  0.05870410  0.89213630  1
  Te  Te174  1  0.94434947  0.38994480  0.24552474  1
  Te  Te175  1  0.93390162  0.42007546  0.59010823  1
  Te  Te176  1  0.90579528  0.38652553  0.90462128  1
  Te  Te177  1  0.90789380  0.74748120  0.25148552  1
  Te  Te178  1  0.90973509  0.74500515  0.60364402  1
  Te  Te179  1  0.90747803  0.74657343  0.93612591  1
