# generated using pymatgen
data_In2Te3
_symmetry_space_group_name_H-M   'P 1'
_cell_length_a   18.99243720
_cell_length_b   19.00164596
_cell_length_c   18.98832947
_cell_angle_alpha   89.88617127
_cell_angle_beta   89.95876907
_cell_angle_gamma   89.95615574
_symmetry_Int_Tables_number   1
_chemical_formula_structural   In2Te3
_chemical_formula_sum   'In72 Te108'
_cell_volume   6852.63473708
_cell_formula_units_Z   36
loop_
 _symmetry_equiv_pos_site_id
 _symmetry_equiv_pos_as_xyz
  1  'x, y, z'
loop_
 _atom_site_type_symbol
 _atom_site_label
 _atom_site_symmetry_multiplicity
 _atom_site_fract_x
 _atom_site_fract_y
 _atom_site_fract_z
 _atom_site_occupancy
  In  In0  1  0.81781283  0.19484222  0.65252823  1
  In  In1  1  0.33687769  0.16847444  0.82263403  1
  In  In2  1  0.15903488  0.17008156  0.33749288  1
  In  In3  1  0.67170441  0.66347337  0.65483438  1
  In  In4  1  0.17411388  0.83848010  0.64279820  1
  In  In5  1  0.69449560  0.18149117  0.50452376  1
  In  In6  1  0.31276624  0.84571107  0.82115662  1
  In  In7  1  0.66100529  0.02320756  0.02919382  1
  In  In8  1  0.49870374  0.49854199  0.64422118  1
  In  In9  1  0.35370854  0.48856220  0.15940777  1
  In  In10  1  0.48887864  0.17388320  0.00514007  1
  In  In11  1  0.32028415  0.02816423  0.32645415  1
  In  In12  1  0.33585062  -0.00222327  0.02195723  1
  In  In13  1  0.52162594  0.50915105  0.34163527  1
  In  In14  1  0.19410715  0.18477902  -0.00232345  1
  In  In15  1  0.01312873  0.51031640  0.50787521  1
  In  In16  1  0.19881191  0.65429787  0.16793215  1
  In  In17  1  0.50856378  0.17864034  0.66699274  1
  In  In18  1  0.46027976  0.66931787  0.82122187  1
  In  In19  1  0.65905227  0.67106593  0.32992384  1
  In  In20  1  0.02977060  0.00628039  0.67789007  1
  In  In21  1  0.50496042  0.31410620  0.17973702  1
  In  In22  1  0.16757978  0.33050850  0.14236024  1
  In  In23  1  0.01461238  0.32849855  -0.00292812  1
  In  In24  1  0.46634563  -0.01224411  0.83753023  1
  In  In25  1  0.82701067  0.36472789  0.78462882  1
  In  In26  1  0.49015432  0.69499765  0.48148382  1
  In  In27  1  0.34158302  0.83711789  0.19015775  1
  In  In28  1  0.16112608  0.33437441  0.48668401  1
  In  In29  1  0.01159401  0.33736254  0.65809638  1
  In  In30  1  0.64168011  0.00668126  0.68862096  1
  In  In31  1  0.57151092  0.81697837  0.03929463  1
  In  In32  1  0.84295113  0.64168730  0.83228297  1
  In  In33  1  0.33825559  0.64064488  -0.00549952  1
  In  In34  1  0.29482286  0.47416600  0.84947934  1
  In  In35  1  0.83877658  0.80801204  0.65922775  1
  In  In36  1  0.00263236  0.82680351  0.84539007  1
  In  In37  1  0.16268205  0.84637249  0.00079375  1
  In  In38  1  0.16340860  0.86438087  0.34406364  1
  In  In39  1  0.50490433  0.32012018  0.81956309  1
  In  In40  1  -0.00463625  0.65745139  -0.01343219  1
  In  In41  1  0.29026319  0.14596822  0.51304045  1
  In  In42  1  0.83218451  0.64912678  0.51362802  1
  In  In43  1  0.00855595  0.15644247  0.17252906  1
  In  In44  1  0.66218169  0.85114869  0.85563678  1
  In  In45  1  0.63459321  0.02206920  0.33740810  1
  In  In46  1  0.40709507  -0.04777909  0.49818334  1
  In  In47  1  0.83917951  0.00521174  0.85013709  1
  In  In48  1  0.17239281  0.48826790  0.33125057  1
  In  In49  1  0.64995440  0.19003696  0.83869514  1
  In  In50  1  -0.02384503  0.16996648  0.48173611  1
  In  In51  1  0.83896758  0.50040331  0.00534693  1
  In  In52  1  0.00045737  0.66911781  0.32086393  1
  In  In53  1  0.84344358  -0.02124662  0.51054365  1
  In  In54  1  0.70046238  0.65762759  0.02441961  1
  In  In55  1  0.84054677  0.14197666  -0.00259172  1
  In  In56  1  0.17544291  0.66545678  0.49454401  1
  In  In57  1  -0.00159408  0.49676148  0.79582890  1
  In  In58  1  0.65360124  0.85083270  0.48672971  1
  In  In59  1  0.30759845  0.32308939  0.65270693  1
  In  In60  1  0.16969127  0.64801034  0.82000372  1
  In  In61  1  0.66715628  0.49942546  0.15652292  1
  In  In62  1  0.51594367  0.66931343  0.17713589  1
  In  In63  1  0.79060440  0.47916834  0.34726240  1
  In  In64  1  0.84517069  -0.01361760  0.17520143  1
  In  In65  1  0.66614491  0.34554071  -0.01381835  1
  In  In66  1  0.00547765  0.00734842  0.00128674  1
  In  In67  1  0.02184869  0.83703520  0.18628393  1
  In  In68  1  0.85642292  0.28878013  0.24431801  1
  In  In69  1  0.84159612  0.85130874  0.33578639  1
  In  In70  1  0.51277406  0.32414490  0.47571970  1
  In  In71  1  0.34990240  0.48232744  0.49087726  1
  Te  Te72  1  0.10410843  0.08736987  0.07914497  1
  Te  Te73  1  0.08997084  0.08865482  0.43802459  1
  Te  Te74  1  0.12971285  0.10550723  0.71794624  1
  Te  Te75  1  0.06101753  0.42132956  0.09819820  1
  Te  Te76  1  0.06325113  0.41110305  0.40188308  1
  Te  Te77  1  0.10331707  0.40691094  0.74944085  1
  Te  Te78  1  0.09396233  0.73712072  0.08431036  1
  Te  Te79  1  0.08168788  0.75417105  0.41292623  1
  Te  Te80  1  0.09212745  0.75620063  0.74836438  1
  Te  Te81  1  0.42984462  0.07944491  0.10298166  1
  Te  Te82  1  0.40960203  0.09264422  0.43916569  1
  Te  Te83  1  0.41333167  0.07804625  0.72698597  1
  Te  Te84  1  0.44786245  0.40872034  0.08319840  1
  Te  Te85  1  0.42046329  0.40214819  0.38446980  1
  Te  Te86  1  0.41443858  0.40275761  0.72815314  1
  Te  Te87  1  0.40405833  0.73547876  0.09156662  1
  Te  Te88  1  0.44319734  0.75008343  0.35512310  1
  Te  Te89  1  0.38416492  0.75456258  0.72489268  1
  Te  Te90  1  0.75836192  0.09812606  0.11767235  1
  Te  Te91  1  0.75405598  0.06472807  0.42549319  1
  Te  Te92  1  0.74720175  0.08996256  0.76043116  1
  Te  Te93  1  0.76130274  0.40131186  0.09063672  1
  Te  Te94  1  0.71726767  0.40559183  0.45019028  1
  Te  Te95  1  0.73643297  0.46079830  0.72962304  1
  Te  Te96  1  0.70029754  0.78014599  0.10014937  1
  Te  Te97  1  0.75502971  0.75456805  0.42772570  1
  Te  Te98  1  0.74289632  0.75160691  0.76579599  1
  Te  Te99  1  0.07762469  0.26382536  0.25132250  1
  Te  Te100  1  0.08345390  0.23668147  0.57023865  1
  Te  Te101  1  0.10551027  0.25948255  0.90726685  1
  Te  Te102  1  0.08910373  0.57687950  0.23942177  1
  Te  Te103  1  0.09928869  0.58898927  0.59373779  1
  Te  Te104  1  0.08099454  0.56324510  0.90819011  1
  Te  Te105  1  0.07721256  0.95113210  0.26008715  1
  Te  Te106  1  0.06282192  0.90884665  0.57571503  1
  Te  Te107  1  0.09469702  0.93428250  0.89875562  1
  Te  Te108  1  0.46034275  0.20711129  0.26994936  1
  Te  Te109  1  0.41513812  0.25223538  0.57225557  1
  Te  Te110  1  0.40408781  0.26463205  0.91900393  1
  Te  Te111  1  0.41925152  0.58456561  0.25632503  1
  Te  Te112  1  0.41062765  0.59606917  0.56936507  1
  Te  Te113  1  0.41874526  0.55070389  0.90585184  1
  Te  Te114  1  0.41694032  0.94357349  0.25457467  1
  Te  Te115  1  0.39375569  0.86944967  0.61833658  1
  Te  Te116  1  0.40238171  0.89107455  0.93415303  1
  Te  Te117  1  0.73569377  0.24233653  0.31232874  1
  Te  Te118  1  0.77449901  0.30029568  0.55523437  1
  Te  Te119  1  0.76578869  0.24834549  0.91494756  1
  Te  Te120  1  0.75021453  0.59084849  0.24309418  1
  Te  Te121  1  0.76374328  0.55480556  0.60851215  1
  Te  Te122  1  0.73750779  0.56673143  0.91100951  1
  Te  Te123  1  0.73431138  0.92841378  0.26363933  1
  Te  Te124  1  0.73509402  0.91638413  0.60719540  1
  Te  Te125  1  0.75241584  0.92956096  0.94852175  1
  Te  Te126  1  0.27634979  0.23349234  0.11103902  1
  Te  Te127  1  0.26356248  0.25503035  0.41132606  1
  Te  Te128  1  0.23047429  0.24232127  0.74904834  1
  Te  Te129  1  0.23578188  0.54726103  0.06011960  1
  Te  Te130  1  0.26543939  0.57845675  0.40695358  1
  Te  Te131  1  0.27207834  0.57462152  0.74669832  1
  Te  Te132  1  0.23805235  0.91866369  0.10774873  1
  Te  Te133  1  0.26879240  0.92685291  0.42998241  1
  Te  Te134  1  0.24438125  0.94115655  0.72955467  1
  Te  Te135  1  0.60099574  0.24378815  0.07683080  1
  Te  Te136  1  0.60248442  0.23476633  0.39447864  1
  Te  Te137  1  0.61373598  0.27314539  0.71793376  1
  Te  Te138  1  0.57641280  0.58224874  0.06878456  1
  Te  Te139  1  0.59824354  0.59224219  0.44178604  1
  Te  Te140  1  0.56690023  0.59414209  0.73997180  1
  Te  Te141  1  0.56088700  0.94678027  0.10554417  1
  Te  Te142  1  0.54572096  0.93352053  0.42622825  1
  Te  Te143  1  0.55844416  0.89915404  0.75465892  1
  Te  Te144  1  0.91997187  0.24041971  0.08098047  1
  Te  Te145  1  0.88581919  0.24119709  0.38893313  1
  Te  Te146  1  0.91973551  0.25136690  0.74786093  1
  Te  Te147  1  0.90677829  0.59990070  0.08752875  1
  Te  Te148  1  0.90881267  0.57844302  0.40246123  1
  Te  Te149  1  0.93219221  0.60514622  0.72302664  1
  Te  Te150  1  0.93115080  0.90367911  0.08050506  1
  Te  Te151  1  0.94003418  0.91094787  0.42558224  1
  Te  Te152  1  0.91072816  0.91329235  0.75255069  1
  Te  Te153  1  0.25036864  0.11855851  0.23161596  1
  Te  Te154  1  0.23899804  0.05699335  0.61804266  1
  Te  Te155  1  0.26125017  0.07406266  0.91505884  1
  Te  Te156  1  0.26064771  0.40355872  0.24291635  1
  Te  Te157  1  0.23494384  0.43112644  0.57580651  1
  Te  Te158  1  0.24146075  0.42162435  0.97313016  1
  Te  Te159  1  0.24330670  0.75357159  0.27041827  1
  Te  Te160  1  0.26881175  0.76669482  0.55267185  1
  Te  Te161  1  0.24427117  0.74310606  0.92196873  1
  Te  Te162  1  0.55444687  0.09814405  0.23356526  1
  Te  Te163  1  0.58947666  0.09017407  0.57543166  1
  Te  Te164  1  0.57208445  0.07556241  0.90567235  1
  Te  Te165  1  0.59939115  0.41149321  0.25712231  1
  Te  Te166  1  0.59120306  0.42324768  0.55391676  1
  Te  Te167  1  0.58840337  0.41847861  0.88752099  1
  Te  Te168  1  0.56895213  0.77463339  0.27032054  1
  Te  Te169  1  0.57969639  0.76285194  0.58559170  1
  Te  Te170  1  0.56730839  0.74303913  0.90773142  1
  Te  Te171  1  0.94058532  0.05895392  0.26138454  1
  Te  Te172  1  0.90940262  0.08383444  0.60328220  1
  Te  Te173  1  0.94786635  0.09980973  0.89591596  1
  Te  Te174  1  0.89298002  0.42872034  0.25486968  1
  Te  Te175  1  0.92134805  0.41388598  0.57063547  1
  Te  Te176  1  0.91178276  0.41699133  0.90177270  1
  Te  Te177  1  0.90558521  0.75453131  0.23825915  1
  Te  Te178  1  0.93177451  0.73903759  0.57242027  1
  Te  Te179  1  0.89606974  0.75313138  0.92307230  1
