# generated using pymatgen
data_In2Te3
_symmetry_space_group_name_H-M   'P 1'
_cell_length_a   18.77852155
_cell_length_b   18.77911590
_cell_length_c   18.78558973
_cell_angle_alpha   89.89336578
_cell_angle_beta   89.99186930
_cell_angle_gamma   89.98982439
_symmetry_Int_Tables_number   1
_chemical_formula_structural   In2Te3
_chemical_formula_sum   'In72 Te108'
_cell_volume   6624.61447344
_cell_formula_units_Z   36
loop_
 _symmetry_equiv_pos_site_id
 _symmetry_equiv_pos_as_xyz
  1  'x, y, z'
loop_
 _atom_site_type_symbol
 _atom_site_label
 _atom_site_symmetry_multiplicity
 _atom_site_fract_x
 _atom_site_fract_y
 _atom_site_fract_z
 _atom_site_occupancy
  In  In0  1  -0.01125374  -0.01496888  -0.03186472  1
  In  In1  1  0.28813245  0.86053497  0.80251087  1
  In  In2  1  0.68955572  -0.02165793  0.64609737  1
  In  In3  1  0.66424749  0.50044473  0.50509439  1
  In  In4  1  0.16389773  0.66992328  0.50605497  1
  In  In5  1  0.33964244  0.83375209  0.49642392  1
  In  In6  1  0.68997265  0.83457181  0.82765245  1
  In  In7  1  0.83290845  0.16800726  0.65396394  1
  In  In8  1  0.64458901  -0.01759230  -0.01559277  1
  In  In9  1  0.13221515  -0.01328248  0.52722900  1
  In  In10  1  0.33459182  0.51400345  0.50849195  1
  In  In11  1  0.32553284  0.33598777  0.35960817  1
  In  In12  1  0.67283918  0.35589367  0.35082831  1
  In  In13  1  0.86303314  0.79624015  -0.02486213  1
  In  In14  1  0.00714715  0.51593000  0.18680853  1
  In  In15  1  -0.00300121  0.35362478  0.35214953  1
  In  In16  1  0.83303059  0.81764117  0.36690923  1
  In  In17  1  0.49994189  0.49836326  0.65393771  1
  In  In18  1  0.66762506  -0.00222784  0.36794747  1
  In  In19  1  0.01210789  0.17316201  0.53439895  1
  In  In20  1  0.16525948  0.67573961  0.80694239  1
  In  In21  1  0.82150597  0.66155065  0.17775738  1
  In  In22  1  0.67747450  0.33236565  -0.00110568  1
  In  In23  1  0.84712233  0.50790269  0.67607780  1
  In  In24  1  0.51516335  0.66908895  0.19090480  1
  In  In25  1  0.17628710  0.18019096  -0.04125521  1
  In  In26  1  0.31751746  0.00311759  0.00866709  1
  In  In27  1  0.15668124  0.52724782  -0.00913849  1
  In  In28  1  0.50153055  0.65934393  0.82365063  1
  In  In29  1  0.32139664  0.33749266  0.66505556  1
  In  In30  1  0.85083308  0.34628700  0.80741851  1
  In  In31  1  0.32358963  0.16167284  0.82902408  1
  In  In32  1  0.49783688  0.15310175  0.00314859  1
  In  In33  1  0.51689184  0.33395868  0.81850749  1
  In  In34  1  -0.01405184  0.69020369  0.64923022  1
  In  In35  1  0.67629112  0.69207987  0.65224794  1
  In  In36  1  0.18984583  0.34413543  0.18004903  1
  In  In37  1  -0.00101233  -0.03111062  0.34349909  1
  In  In38  1  0.49110958  0.01346737  0.84075619  1
  In  In39  1  0.85571019  0.52105564  -0.00927130  1
  In  In40  1  0.31385470  0.52399312  0.15355271  1
  In  In41  1  0.50469229  0.82578553  0.34085920  1
  In  In42  1  0.32210240  0.34849253  0.00567850  1
  In  In43  1  0.31807659  0.16864028  0.49807491  1
  In  In44  1  0.50270262  0.83507869  0.64576569  1
  In  In45  1  0.84439396  0.16950686  0.35356491  1
  In  In46  1  0.50215211  0.83402314  0.01410145  1
  In  In47  1  0.15810950  -0.00854708  0.16640364  1
  In  In48  1  0.85034218  0.34043356  0.18717287  1
  In  In49  1  0.13632158  0.81405880  -0.00679858  1
  In  In50  1  -0.00218314  0.66644390  0.35157276  1
  In  In51  1  0.14589393  0.34492661  0.80045297  1
  In  In52  1  0.00176748  0.15254202  0.15633060  1
  In  In53  1  0.32420518  0.65817266  0.66717156  1
  In  In54  1  0.33839979  0.65334919  0.00985653  1
  In  In55  1  0.00718770  0.33229513  -0.01806617  1
  In  In56  1  0.84472774  0.14321041  -0.03101379  1
  In  In57  1  0.17462947  0.18359170  0.34610807  1
  In  In58  1  0.84497593  -0.02695469  0.78618933  1
  In  In59  1  0.67564792  0.16682334  0.51241050  1
  In  In60  1  0.67590903  0.52400281  0.18081277  1
  In  In61  1  0.64913536  0.15891501  0.16517318  1
  In  In62  1  0.50133884  0.16343752  0.33863933  1
  In  In63  1  0.36504836  0.15263041  0.16543850  1
  In  In64  1  0.50394464  0.16652265  0.67392117  1
  In  In65  1  0.50673420  0.49780327  0.34269710  1
  In  In66  1  -0.00210803  0.50829680  0.50532193  1
  In  In67  1  0.83084187  -0.03147280  0.15582158  1
  In  In68  1  0.48819143  0.48255185  -0.01105665  1
  In  In69  1  0.18117105  0.80117698  0.33537708  1
  In  In70  1  0.34930779  -0.01520317  0.34055335  1
  In  In71  1  0.69577095  0.65544230  0.00015978  1
  Te  Te72  1  0.08761820  0.07405085  0.05497943  1
  Te  Te73  1  0.06925813  0.09265262  0.40876830  1
  Te  Te74  1  0.11675262  0.01796436  0.77817448  1
  Te  Te75  1  0.08558473  0.41673122  0.08639733  1
  Te  Te76  1  0.09760621  0.43258058  0.42348027  1
  Te  Te77  1  0.04488029  0.40864455  0.70971263  1
  Te  Te78  1  0.03567987  0.74340906  0.07419007  1
  Te  Te79  1  0.07143853  0.76999970  0.43762455  1
  Te  Te80  1  0.08859861  0.77713709  0.72445343  1
  Te  Te81  1  0.44034890  0.04289388  0.09181362  1
  Te  Te82  1  0.42348355  0.07592572  0.43650454  1
  Te  Te83  1  0.39940893  0.06999325  0.73264348  1
  Te  Te84  1  0.41350509  0.41658389  0.10518593  1
  Te  Te85  1  0.42866855  0.41164132  0.44208649  1
  Te  Te86  1  0.41121416  0.42317716  0.75532242  1
  Te  Te87  1  0.41354113  0.74783751  0.10359133  1
  Te  Te88  1  0.39876381  0.73616657  0.40331720  1
  Te  Te89  1  0.41012165  0.76012836  0.75285440  1
  Te  Te90  1  0.75574504  0.08402141  0.08205527  1
  Te  Te91  1  0.77673393  0.07014097  0.44747542  1
  Te  Te92  1  0.74038451  0.07727298  0.74772232  1
  Te  Te93  1  0.76221507  0.43089354  0.08519733  1
  Te  Te94  1  0.77161812  0.42258274  0.43384118  1
  Te  Te95  1  0.74388888  0.41719333  0.73416922  1
  Te  Te96  1  0.75374925  0.76414841  0.08557503  1
  Te  Te97  1  0.72410187  0.77027186  0.45866050  1
  Te  Te98  1  0.77709783  0.74634535  0.75014066  1
  Te  Te99  1  0.07271164  0.25844948  0.24592848  1
  Te  Te100  1  0.06868702  0.27997170  0.62559161  1
  Te  Te101  1  0.06175889  0.23480081  0.87830542  1
  Te  Te102  1  0.10127356  0.59360936  0.27103873  1
  Te  Te103  1  0.08791588  0.58396085  0.60502547  1
  Te  Te104  1  0.06783154  0.61197335  0.90470156  1
  Te  Te105  1  0.08202831  0.88769944  0.24626940  1
  Te  Te106  1  0.05002992  0.90333289  0.61970086  1
  Te  Te107  1  0.07883196  0.89997741  0.88142219  1
  Te  Te108  1  0.41617082  0.26139643  0.25740679  1
  Te  Te109  1  0.41673473  0.25276636  0.58148367  1
  Te  Te110  1  0.41211169  0.25467726  0.91682770  1
  Te  Te111  1  0.41018166  0.58289331  0.25947575  1
  Te  Te112  1  0.43495669  0.61061856  0.57378310  1
  Te  Te113  1  0.40134788  0.56953722  0.89805308  1
  Te  Te114  1  0.40977840  0.89339242  0.24511967  1
  Te  Te115  1  0.40385910  0.92951454  0.58870169  1
  Te  Te116  1  0.40692008  0.90993692  0.91590385  1
  Te  Te117  1  0.74557871  0.23967337  0.25570813  1
  Te  Te118  1  0.74924798  0.27066123  0.58657906  1
  Te  Te119  1  0.76396283  0.25352516  0.90162870  1
  Te  Te120  1  0.73992882  0.60207162  0.28967790  1
  Te  Te121  1  0.76612700  0.59280262  0.57692074  1
  Te  Te122  1  0.75825140  0.57655649  0.89462419  1
  Te  Te123  1  0.75158670  0.91120347  0.27042187  1
  Te  Te124  1  0.76138998  0.86713254  0.57636034  1
  Te  Te125  1  0.77361108  0.92371738  0.92626970  1
  Te  Te126  1  0.25121865  0.23075977  0.08513879  1
  Te  Te127  1  0.21868393  0.28005961  0.45480075  1
  Te  Te128  1  0.22996200  0.23346912  0.73220254  1
  Te  Te129  1  0.20835168  0.62604000  0.09946527  1
  Te  Te130  1  0.26917423  0.61286225  0.41703760  1
  Te  Te131  1  0.24003238  0.56238174  0.74380549  1
  Te  Te132  1  0.24069250  0.89475819  0.08253210  1
  Te  Te133  1  0.22759778  0.93110122  0.41535750  1
  Te  Te134  1  0.22660497  0.95248283  0.69642485  1
  Te  Te135  1  0.57041994  0.26193407  0.08390731  1
  Te  Te136  1  0.58405224  0.25562130  0.42627955  1
  Te  Te137  1  0.60668500  0.25017018  0.73877029  1
  Te  Te138  1  0.57259411  0.58378372  0.06947748  1
  Te  Te139  1  0.60530011  0.59280542  0.40041345  1
  Te  Te140  1  0.59829715  0.58547629  0.73572172  1
  Te  Te141  1  0.60080540  0.90312572  0.09988890  1
  Te  Te142  1  0.56922224  0.91608702  0.44138030  1
  Te  Te143  1  0.58278989  0.91721597  0.75597590  1
  Te  Te144  1  0.90732717  0.25169630  0.06902488  1
  Te  Te145  1  0.91833767  0.26240363  0.44612383  1
  Te  Te146  1  0.93493710  0.24369844  0.73615749  1
  Te  Te147  1  0.94129973  0.60887768  0.08235578  1
  Te  Te148  1  0.90010870  0.59820110  0.43918446  1
  Te  Te149  1  0.92421435  0.60814252  0.76227548  1
  Te  Te150  1  0.93883129  0.89162164  0.08036396  1
  Te  Te151  1  0.91198227  0.91573238  0.44895005  1
  Te  Te152  1  0.93041875  0.87255718  0.71777444  1
  Te  Te153  1  0.24884596  0.08714800  0.24889972  1
  Te  Te154  1  0.22360661  0.08989764  0.58469480  1
  Te  Te155  1  0.22852042  0.05075680  0.89061855  1
  Te  Te156  1  0.25250885  0.44120143  0.27476604  1
  Te  Te157  1  0.24131359  0.44618016  0.60273550  1
  Te  Te158  1  0.23044504  0.41946373  0.90892570  1
  Te  Te159  1  0.23073041  0.71557239  0.22813196  1
  Te  Te160  1  0.24389026  0.76575023  0.59484391  1
  Te  Te161  1  0.25975041  0.74623321  0.91409960  1
  Te  Te162  1  0.57688596  0.06089556  0.25532081  1
  Te  Te163  1  0.58291670  0.06838843  0.58422421  1
  Te  Te164  1  0.60009774  0.10374392  0.90202751  1
  Te  Te165  1  0.58648123  0.41484865  0.23969489  1
  Te  Te166  1  0.59113631  0.40200515  0.59012314  1
  Te  Te167  1  0.60292668  0.42804786  0.90447500  1
  Te  Te168  1  0.61135510  0.74368646  0.27269232  1
  Te  Te169  1  0.58255248  0.75095525  0.54893934  1
  Te  Te170  1  0.58810059  0.74923166  0.91571057  1
  Te  Te171  1  0.91071751  0.06943095  0.25020842  1
  Te  Te172  1  0.93106795  0.06872402  0.60127851  1
  Te  Te173  1  0.93000577  0.07775221  0.86169694  1
  Te  Te174  1  0.90120002  0.45051954  0.27696112  1
  Te  Te175  1  0.92779236  0.40728729  0.59512627  1
  Te  Te176  1  0.94210580  0.43804318  0.89603959  1
  Te  Te177  1  0.91557110  0.75421684  0.25489891  1
  Te  Te178  1  0.88872264  0.77517750  0.57358083  1
  Te  Te179  1  0.93896589  0.71499038  0.87809585  1
