# generated using pymatgen
data_In2Te3
_symmetry_space_group_name_H-M   'P 1'
_cell_length_a   18.95022015
_cell_length_b   18.92673382
_cell_length_c   18.93034378
_cell_angle_alpha   89.97792701
_cell_angle_beta   90.15435252
_cell_angle_gamma   90.03727116
_symmetry_Int_Tables_number   1
_chemical_formula_structural   In2Te3
_chemical_formula_sum   'In72 Te108'
_cell_volume   6789.63980305
_cell_formula_units_Z   36
loop_
 _symmetry_equiv_pos_site_id
 _symmetry_equiv_pos_as_xyz
  1  'x, y, z'
loop_
 _atom_site_type_symbol
 _atom_site_label
 _atom_site_symmetry_multiplicity
 _atom_site_fract_x
 _atom_site_fract_y
 _atom_site_fract_z
 _atom_site_occupancy
  In  In0  1  0.86203978  0.27987729  0.15313887  1
  In  In1  1  0.52541982  0.15121217  -0.01133779  1
  In  In2  1  0.50356146  0.19644873  0.67333919  1
  In  In3  1  0.34368925  0.84302086  0.49671244  1
  In  In4  1  0.33755540  0.67519369  0.67402079  1
  In  In5  1  0.48775023  0.66903473  0.84853503  1
  In  In6  1  0.84545651  0.83938191  -0.00857749  1
  In  In7  1  0.18332678  0.50371136  0.02383210  1
  In  In8  1  0.66933146  0.84769546  0.49331093  1
  In  In9  1  0.80462745  -0.00299068  0.14073151  1
  In  In10  1  0.18724556  0.31637564  0.18331290  1
  In  In11  1  0.49999060  0.64924359  0.49702833  1
  In  In12  1  0.66098197  0.49642342  0.15908140  1
  In  In13  1  0.49586332  0.34371361  0.84738407  1
  In  In14  1  0.49074446  0.01910218  0.49531433  1
  In  In15  1  0.17677447  -0.00706000  0.16025306  1
  In  In16  1  0.82108449  0.50410357  0.36150337  1
  In  In17  1  0.00175812  0.84094331  0.15397627  1
  In  In18  1  0.83470699  0.85096991  0.68351038  1
  In  In19  1  0.31505160  0.52022319  0.49401158  1
  In  In20  1  -0.01741852  0.52815611  0.82395535  1
  In  In21  1  0.84483783  0.31483495  0.51967471  1
  In  In22  1  0.66807277  0.51407809  0.83279987  1
  In  In23  1  0.84982191  0.14172503  0.32445359  1
  In  In24  1  0.33055049  0.83828140  0.83583779  1
  In  In25  1  0.31484686  0.16123622  0.15779926  1
  In  In26  1  0.49550650  0.34274971  0.50589340  1
  In  In27  1  0.66507878  0.65119577  0.00490053  1
  In  In28  1  0.49033414  0.83232750  0.34063453  1
  In  In29  1  -0.01799053  -0.00200927  0.66427776  1
  In  In30  1  0.02188008  0.13856819  0.50596115  1
  In  In31  1  0.66128050  0.31756840  -0.01392173  1
  In  In32  1  0.67628825  0.17467366  0.50375909  1
  In  In33  1  0.00223717  0.67812577  0.33393083  1
  In  In34  1  0.31973901  -0.00653163  0.00113218  1
  In  In35  1  0.17286381  -0.01445799  0.48087421  1
  In  In36  1  0.45310129  0.66908324  0.18841363  1
  In  In37  1  0.85526856  0.65638248  0.17246848  1
  In  In38  1  0.66070122  0.83456614  0.82572941  1
  In  In39  1  0.01445905  0.83825057  0.48123353  1
  In  In40  1  0.33272150  0.15858044  0.84225981  1
  In  In41  1  0.16891867  0.54816447  0.69061504  1
  In  In42  1  0.83654625  -0.01788069  0.50072819  1
  In  In43  1  0.34060815  0.69085006  0.00159377  1
  In  In44  1  0.19420761  0.34651530  0.46890889  1
  In  In45  1  -0.00003978  0.31864185  0.67596940  1
  In  In46  1  0.18712178  0.50312613  0.31835128  1
  In  In47  1  0.65862052  0.67818870  0.65415878  1
  In  In48  1  0.64274747  0.49674362  0.51455722  1
  In  In49  1  0.48031682  0.35886177  0.12607174  1
  In  In50  1  -0.01320736  0.12590721  0.87123672  1
  In  In51  1  0.65614994  0.32880973  0.31303667  1
  In  In52  1  -0.02141730  0.29795755  0.01567059  1
  In  In53  1  0.14676062  -0.02599621  0.83995964  1
  In  In54  1  0.80883999  0.32818453  0.83355066  1
  In  In55  1  0.15451367  0.81074005  0.70047919  1
  In  In56  1  -0.01114889  0.66845857  -0.01433203  1
  In  In57  1  0.18915197  0.71529360  0.19309449  1
  In  In58  1  0.50907937  0.00783947  0.82391749  1
  In  In59  1  0.34403478  0.33882605  0.67171003  1
  In  In60  1  0.01368048  0.30602202  0.29674783  1
  In  In61  1  0.02641780  0.49533561  0.52057812  1
  In  In62  1  0.33937039  0.32811221  0.33759591  1
  In  In63  1  -0.00129573  0.47371355  0.18252674  1
  In  In64  1  0.79609271  0.14369365  0.70821728  1
  In  In65  1  0.51886999  -0.02119624  0.16618680  1
  In  In66  1  0.18401729  0.15054095  0.65340061  1
  In  In67  1  0.81349553  0.47698903  -0.01687510  1
  In  In68  1  0.81953823  0.69534259  0.50881858  1
  In  In69  1  0.16365050  0.35455928  0.85897087  1
  In  In70  1  0.64545514  0.83967819  0.15472322  1
  In  In71  1  0.49327558  0.13482335  0.30942382  1
  Te  Te72  1  0.09974313  0.10927877  0.10066510  1
  Te  Te73  1  0.07328191  0.05773688  0.39695773  1
  Te  Te74  1  0.07955844  0.09100832  0.74488886  1
  Te  Te75  1  0.08397593  0.39432266  0.08576751  1
  Te  Te76  1  0.07443445  0.41900957  0.39688440  1
  Te  Te77  1  0.08509518  0.42536643  0.74751887  1
  Te  Te78  1  0.08445096  0.73699112  0.08032834  1
  Te  Te79  1  0.10701897  0.75187995  0.40639314  1
  Te  Te80  1  0.04957516  0.74056453  0.77773592  1
  Te  Te81  1  0.42374066  0.07886013  0.07820725  1
  Te  Te82  1  0.39424170  0.06619967  0.39127034  1
  Te  Te83  1  0.41172063  0.09067700  0.73577834  1
  Te  Te84  1  0.40488404  0.45065339  0.03990524  1
  Te  Te85  1  0.41424643  0.43379343  0.41622284  1
  Te  Te86  1  0.40802055  0.42911474  0.76599241  1
  Te  Te87  1  0.41705150  0.77678617  0.09457654  1
  Te  Te88  1  0.40378062  0.72894514  0.41238194  1
  Te  Te89  1  0.43206251  0.76799191  0.74777588  1
  Te  Te90  1  0.75256012  0.10402085  0.05373550  1
  Te  Te91  1  0.74847131  0.07458018  0.41635096  1
  Te  Te92  1  0.73924589  0.04543227  0.80164147  1
  Te  Te93  1  0.75412966  0.39331352  0.09506208  1
  Te  Te94  1  0.74413768  0.38989148  0.42914456  1
  Te  Te95  1  0.76277863  0.43847721  0.74963119  1
  Te  Te96  1  0.76486120  0.74037779  0.08198419  1
  Te  Te97  1  0.75138741  0.76710534  0.40284773  1
  Te  Te98  1  0.75638324  0.74009140  0.75179738  1
  Te  Te99  1  0.09638088  0.20342896  0.22681049  1
  Te  Te100  1  0.09293510  0.25690303  0.57229709  1
  Te  Te101  1  0.08046101  0.24245732  0.91620216  1
  Te  Te102  1  0.08289578  0.58766213  0.23511581  1
  Te  Te103  1  0.08468934  0.61395593  0.58882163  1
  Te  Te104  1  0.08912620  0.57319179  0.92228196  1
  Te  Te105  1  0.09643192  0.90308115  0.24700652  1
  Te  Te106  1  0.09094713  0.91685761  0.59889778  1
  Te  Te107  1  0.07234326  0.91397998  0.94770395  1
  Te  Te108  1  0.42378855  0.25505761  0.23439889  1
  Te  Te109  1  0.39794268  0.24445362  0.56715633  1
  Te  Te110  1  0.41774866  0.24437420  0.93295275  1
  Te  Te111  1  0.36341100  0.56933402  0.24853478  1
  Te  Te112  1  0.41573431  0.57117722  0.59608958  1
  Te  Te113  1  0.42114122  0.57540744  0.94523032  1
  Te  Te114  1  0.40784290  0.89942318  0.23171858  1
  Te  Te115  1  0.42599211  0.92331410  0.58619280  1
  Te  Te116  1  0.42567736  0.92191751  0.91887609  1
  Te  Te117  1  0.75066351  0.22979523  0.24704825  1
  Te  Te118  1  0.74263294  0.25579562  0.61457061  1
  Te  Te119  1  0.77829974  0.22985858  0.94590484  1
  Te  Te120  1  0.74968531  0.58248456  0.25249492  1
  Te  Te121  1  0.75227355  0.58251759  0.58271136  1
  Te  Te122  1  0.77136529  0.60034157  0.90761154  1
  Te  Te123  1  0.73769747  0.91464752  0.24203482  1
  Te  Te124  1  0.73563418  0.93250284  0.60158431  1
  Te  Te125  1  0.74196469  0.92017517  0.91871959  1
  Te  Te126  1  0.25792247  0.26189634  0.06788662  1
  Te  Te127  1  0.23302083  0.23660572  0.38199840  1
  Te  Te128  1  0.24282509  0.25646928  0.75711878  1
  Te  Te129  1  0.25578123  0.61095203  0.10274131  1
  Te  Te130  1  0.22536751  0.60647305  0.41519707  1
  Te  Te131  1  0.25963590  0.61344406  0.78577977  1
  Te  Te132  1  0.23582068  0.89376030  0.06681806  1
  Te  Te133  1  0.25173563  0.89557611  0.38871845  1
  Te  Te134  1  0.25113680  0.92741704  0.74229275  1
  Te  Te135  1  0.58175366  0.24838176  0.09348202  1
  Te  Te136  1  0.57310033  0.24342735  0.41152015  1
  Te  Te137  1  0.59315736  0.25403979  0.77799427  1
  Te  Te138  1  0.56370786  0.59455618  0.10052320  1
  Te  Te139  1  0.59192529  0.57982128  0.40693058  1
  Te  Te140  1  0.57241142  0.59325565  0.74638207  1
  Te  Te141  1  0.59824534  0.93300640  0.05043974  1
  Te  Te142  1  0.58114340  0.93490585  0.40537889  1
  Te  Te143  1  0.57590920  0.91261348  0.73420940  1
  Te  Te144  1  0.95706811  0.17257227  0.09901801  1
  Te  Te145  1  0.93099911  0.24287184  0.41748233  1
  Te  Te146  1  0.91383327  0.23224802  0.76520505  1
  Te  Te147  1  0.91746474  0.55380985  0.07711592  1
  Te  Te148  1  0.92592768  0.58784132  0.43267346  1
  Te  Te149  1  0.96710334  0.62563926  0.71509066  1
  Te  Te150  1  0.95280068  0.93574006  0.04400554  1
  Te  Te151  1  0.93399087  0.93393023  0.40319455  1
  Te  Te152  1  0.91665343  0.93150226  0.77632397  1
  Te  Te153  1  0.27300805  0.06081390  0.25502103  1
  Te  Te154  1  0.26045220  0.08197166  0.55111881  1
  Te  Te155  1  0.22854487  0.08261306  0.91845883  1
  Te  Te156  1  0.28604180  0.43373635  0.22747957  1
  Te  Te157  1  0.23824089  0.42608782  0.59069329  1
  Te  Te158  1  0.27157129  0.42376779  0.93364558  1
  Te  Te159  1  0.28537753  0.80484330  0.26195431  1
  Te  Te160  1  0.24777267  0.76233085  0.59078864  1
  Te  Te161  1  0.24141830  0.73893037  0.89987957  1
  Te  Te162  1  0.60443202  0.07408035  0.23933166  1
  Te  Te163  1  0.58610507  0.09576685  0.59516777  1
  Te  Te164  1  0.61272756  0.11164396  0.87049774  1
  Te  Te165  1  0.55955870  0.42355404  0.24571884  1
  Te  Te166  1  0.57603329  0.40793625  0.60830209  1
  Te  Te167  1  0.58579535  0.43652868  0.93326202  1
  Te  Te168  1  0.57577300  0.74531945  0.25114316  1
  Te  Te169  1  0.56784115  0.76419749  0.57029342  1
  Te  Te170  1  0.58153496  0.75371997  0.93168374  1
  Te  Te171  1  0.91251733  0.04867952  0.23041149  1
  Te  Te172  1  0.89488146  0.10115832  0.59071714  1
  Te  Te173  1  0.85835688  0.09330162  0.93999331  1
  Te  Te174  1  0.89141817  0.40485598  0.26335073  1
  Te  Te175  1  0.91762008  0.42227292  0.59937013  1
  Te  Te176  1  0.92839911  0.40619459  0.91123527  1
  Te  Te177  1  0.90950364  0.76967983  0.25611624  1
  Te  Te178  1  0.92290607  0.77391436  0.58468229  1
  Te  Te179  1  0.92967071  0.76525721  0.88967443  1
