# generated using pymatgen
data_In2Te3
_symmetry_space_group_name_H-M   'P 1'
_cell_length_a   18.77437350
_cell_length_b   18.77673183
_cell_length_c   18.78242235
_cell_angle_alpha   90.04659320
_cell_angle_beta   89.95335937
_cell_angle_gamma   90.00355523
_symmetry_Int_Tables_number   1
_chemical_formula_structural   In2Te3
_chemical_formula_sum   'In72 Te108'
_cell_volume   6621.20098223
_cell_formula_units_Z   36
loop_
 _symmetry_equiv_pos_site_id
 _symmetry_equiv_pos_as_xyz
  1  'x, y, z'
loop_
 _atom_site_type_symbol
 _atom_site_label
 _atom_site_symmetry_multiplicity
 _atom_site_fract_x
 _atom_site_fract_y
 _atom_site_fract_z
 _atom_site_occupancy
  In  In0  1  -0.00973241  0.35012985  0.67367644  1
  In  In1  1  0.83350405  0.69045985  0.83801949  1
  In  In2  1  0.54865835  0.85414542  0.01056943  1
  In  In3  1  0.83589777  0.31914729  0.85196783  1
  In  In4  1  0.15479106  0.66543620  0.48019835  1
  In  In5  1  -0.01022436  0.32351145  0.32730506  1
  In  In6  1  0.67179394  0.33235963  0.32366040  1
  In  In7  1  0.13999265  0.64827953  0.81783799  1
  In  In8  1  0.67254170  0.68278350  0.01572653  1
  In  In9  1  0.83293170  0.85233143  0.32139554  1
  In  In10  1  -0.00061953  0.15190520  0.48511949  1
  In  In11  1  0.49494324  0.31276339  0.84710560  1
  In  In12  1  0.65940625  0.83421219  0.49454561  1
  In  In13  1  0.83486572  0.16208130  0.01680954  1
  In  In14  1  0.17459693  0.49651095  0.31738739  1
  In  In15  1  0.84375565  0.83000027  0.66935361  1
  In  In16  1  0.67972687  0.15736289  0.15218166  1
  In  In17  1  0.31462352  0.15735875  0.15550903  1
  In  In18  1  0.82634490  -0.02063357  0.84574264  1
  In  In19  1  0.32322256  0.01120868  0.00189991  1
  In  In20  1  0.17526232  0.83124122  0.00451729  1
  In  In21  1  0.34983442  0.48530277  0.19925187  1
  In  In22  1  -0.01302189  -0.00069028  0.02598120  1
  In  In23  1  0.34920867  0.00198358  0.65697944  1
  In  In24  1  0.51464681  0.87647429  0.68484905  1
  In  In25  1  0.34445320  0.17904642  0.50117847  1
  In  In26  1  0.83252494  0.33653810  0.17463107  1
  In  In27  1  0.81794912  0.02139508  0.47311693  1
  In  In28  1  0.18521429  0.48481064  0.65390617  1
  In  In29  1  0.65830186  0.49474120  0.84003709  1
  In  In30  1  0.51529711  0.49504489  0.67068425  1
  In  In31  1  0.50668971  0.51127434  0.00515297  1
  In  In32  1  0.49998596  0.16024271  0.68020535  1
  In  In33  1  0.15920327  0.02161876  0.85111811  1
  In  In34  1  0.49754451  0.66511444  0.16085644  1
  In  In35  1  0.82940121  0.16483417  0.66251549  1
  In  In36  1  0.83732682  0.46892465  0.00571230  1
  In  In37  1  0.32107892  0.83524799  0.16575777  1
  In  In38  1  0.82860604  0.01617305  0.16567032  1
  In  In39  1  0.16980825  0.32019516  0.49007271  1
  In  In40  1  0.52679100  0.31558051  0.16399457  1
  In  In41  1  0.34146602  0.47768814  0.87170843  1
  In  In42  1  0.66662241  0.66406032  0.31511600  1
  In  In43  1  0.33179884  0.47644255  0.49549912  1
  In  In44  1  0.00187337  0.66480418  0.33686769  1
  In  In45  1  0.83517312  0.49939182  0.64479717  1
  In  In46  1  0.52320867  0.16486737  0.31869949  1
  In  In47  1  0.68121134  0.31457274  0.64702361  1
  In  In48  1  0.50914536  0.83758735  0.32840749  1
  In  In49  1  0.32757413  0.31184341  -0.00394986  1
  In  In50  1  0.51117935  -0.00837888  0.51197368  1
  In  In51  1  0.82569009  0.67569407  0.16967928  1
  In  In52  1  -0.00918768  0.70109306  0.65618403  1
  In  In53  1  0.33902072  0.85043345  0.85147768  1
  In  In54  1  0.32956000  -0.00370339  0.31517191  1
  In  In55  1  0.69165759  0.65572211  0.68070949  1
  In  In56  1  0.15251196  0.84903689  0.31226320  1
  In  In57  1  0.32865581  0.64507067  0.01438316  1
  In  In58  1  0.16277978  0.27351927  0.85126964  1
  In  In59  1  0.66799793  0.01247004  0.68841840  1
  In  In60  1  0.50434484  0.67915525  0.49157524  1
  In  In61  1  0.68216942  0.49267244  0.49200737  1
  In  In62  1  0.32391647  0.33554022  0.34430583  1
  In  In63  1  -0.01183655  0.50259277  0.85227981  1
  In  In64  1  -0.02443872  0.51934847  0.49563654  1
  In  In65  1  -0.02465314  0.68141669  -0.00295539  1
  In  In66  1  0.00789897  0.14912856  0.18662538  1
  In  In67  1  0.15028409  0.83328229  0.66252486  1
  In  In68  1  0.15987656  0.66574910  0.16017900  1
  In  In69  1  0.17258643  0.16764930  0.69351781  1
  In  In70  1  0.33247501  0.68070996  0.67334761  1
  In  In71  1  0.14628651  -0.00930681  0.48759921  1
  Te  Te72  1  0.09240636  0.08733567  0.07972890  1
  Te  Te73  1  0.08409986  0.07878963  0.38639925  1
  Te  Te74  1  0.07029777  0.07730411  0.74722358  1
  Te  Te75  1  0.11697723  0.46359076  0.04583531  1
  Te  Te76  1  0.08822532  0.43259908  0.42819550  1
  Te  Te77  1  0.09035103  0.42587626  0.75937832  1
  Te  Te78  1  0.06695790  0.76369051  0.09063255  1
  Te  Te79  1  0.06889260  0.77470549  0.42013541  1
  Te  Te80  1  0.06190197  0.76940787  0.77344744  1
  Te  Te81  1  0.42048149  0.07123653  0.09674682  1
  Te  Te82  1  0.42382282  0.07695773  0.41595142  1
  Te  Te83  1  0.41951008  0.07041277  0.77249456  1
  Te  Te84  1  0.41547107  0.41201632  0.07925483  1
  Te  Te85  1  0.43185019  0.41118176  0.40960403  1
  Te  Te86  1  0.41964758  0.41190621  0.75653081  1
  Te  Te87  1  0.41324434  0.76150003  0.06767840  1
  Te  Te88  1  0.41324531  0.75981638  0.40935874  1
  Te  Te89  1  0.42565265  0.76780200  0.75571553  1
  Te  Te90  1  0.71720032  0.04821909  0.02521076  1
  Te  Te91  1  0.71701949  0.12495865  0.43975616  1
  Te  Te92  1  0.75286013  0.10119752  0.77781795  1
  Te  Te93  1  0.73378532  0.39762803  0.08130666  1
  Te  Te94  1  0.76846120  0.41525440  0.40212077  1
  Te  Te95  1  0.75571961  0.41593728  0.74824519  1
  Te  Te96  1  0.77159255  0.77820308  0.07324428  1
  Te  Te97  1  0.75239002  0.75271664  0.40696663  1
  Te  Te98  1  0.73301939  0.77673880  0.76280674  1
  Te  Te99  1  0.09109425  0.26386910  0.23794944  1
  Te  Te100  1  0.07805759  0.24943312  0.58972349  1
  Te  Te101  1  0.04072544  0.24908543  0.92588863  1
  Te  Te102  1  0.06796776  0.56907207  0.23645611  1
  Te  Te103  1  0.08314353  0.58518141  0.59648787  1
  Te  Te104  1  0.09048986  0.57940436  0.95080753  1
  Te  Te105  1  0.09851691  0.93338096  0.20550580  1
  Te  Te106  1  0.06003710  0.91821291  0.58329076  1
  Te  Te107  1  0.07833068  0.91691432  0.92507446  1
  Te  Te108  1  0.41324147  0.24859360  0.24681897  1
  Te  Te109  1  0.43455030  0.25621352  0.58763692  1
  Te  Te110  1  0.43244719  0.20999971  0.94109392  1
  Te  Te111  1  0.42112354  0.59555335  0.26581033  1
  Te  Te112  1  0.41509330  0.58031146  0.58644297  1
  Te  Te113  1  0.42873519  0.59849316  0.90746500  1
  Te  Te114  1  0.43053270  0.92331164  0.22633544  1
  Te  Te115  1  0.41105593  0.89291007  0.57091119  1
  Te  Te116  1  0.43633115  0.93119332  0.93380589  1
  Te  Te117  1  0.76317401  0.22700439  0.25625386  1
  Te  Te118  1  0.76302350  0.23754833  0.54690815  1
  Te  Te119  1  0.74066292  0.24789724  0.93874982  1
  Te  Te120  1  0.75816399  0.56906754  0.24744186  1
  Te  Te121  1  0.76518801  0.60490127  0.55954632  1
  Te  Te122  1  0.76120048  0.57861785  0.91716383  1
  Te  Te123  1  0.73266858  0.93532192  0.24824008  1
  Te  Te124  1  0.74507452  0.92591618  0.58290319  1
  Te  Te125  1  0.70712537  0.93010511  0.92382950  1
  Te  Te126  1  0.22323566  0.24521795  0.07613642  1
  Te  Te127  1  0.23773587  0.22066718  0.39839445  1
  Te  Te128  1  0.27699109  0.24607225  0.76218375  1
  Te  Te129  1  0.24398122  0.54720497  0.09406367  1
  Te  Te130  1  0.26196901  0.58265904  0.40962510  1
  Te  Te131  1  0.26354045  0.57269938  0.75861554  1
  Te  Te132  1  0.22066576  0.93738987  0.10819218  1
  Te  Te133  1  0.25290193  0.90784867  0.41354825  1
  Te  Te134  1  0.24889960  0.92103059  0.74902542  1
  Te  Te135  1  0.58195429  0.22411811  0.06265461  1
  Te  Te136  1  0.59351554  0.24547101  0.42068026  1
  Te  Te137  1  0.60359459  0.24618231  0.75903688  1
  Te  Te138  1  0.60647163  0.57409418  0.10053508  1
  Te  Te139  1  0.58226691  0.57765503  0.41002402  1
  Te  Te140  1  0.57657964  0.59895892  0.76397322  1
  Te  Te141  1  0.62098104  0.94936789  0.09857734  1
  Te  Te142  1  0.60102730  0.93811879  0.40026786  1
  Te  Te143  1  0.59375191  0.93792741  0.79612154  1
  Te  Te144  1  0.93103353  0.24888879  0.09616351  1
  Te  Te145  1  0.90434207  0.23923656  0.41328777  1
  Te  Te146  1  0.92620968  0.24030741  0.75697732  1
  Te  Te147  1  0.91199776  0.57503778  0.08567475  1
  Te  Te148  1  0.89179166  0.58032269  0.39129416  1
  Te  Te149  1  0.91402178  0.58909884  0.74436591  1
  Te  Te150  1  0.88449797  0.90510424  0.08277384  1
  Te  Te151  1  0.92294242  0.94801671  0.39458879  1
  Te  Te152  1  0.92273543  0.92849575  0.74557562  1
  Te  Te153  1  0.22909016  0.08617414  0.25633431  1
  Te  Te154  1  0.24784207  0.08261623  0.57723842  1
  Te  Te155  1  0.25228328  0.11381688  0.91892954  1
  Te  Te156  1  0.23314370  0.38532304  0.23104448  1
  Te  Te157  1  0.27064511  0.37486246  0.59314576  1
  Te  Te158  1  0.21922277  0.40646181  0.92509946  1
  Te  Te159  1  0.25151255  0.73702194  0.25842246  1
  Te  Te160  1  0.24391004  0.75178582  0.57233686  1
  Te  Te161  1  0.24708205  0.73312502  0.91005179  1
  Te  Te162  1  0.59459677  0.06455322  0.23485424  1
  Te  Te163  1  0.59917726  0.09567821  0.57962580  1
  Te  Te164  1  0.53129327  0.11777802  0.87113605  1
  Te  Te165  1  0.57845514  0.42203357  0.24960276  1
  Te  Te166  1  0.58369592  0.40402255  0.57045334  1
  Te  Te167  1  0.58748931  0.40060277  0.93449723  1
  Te  Te168  1  0.59547365  0.76447042  0.22472131  1
  Te  Te169  1  0.58568921  0.75132379  0.60093739  1
  Te  Te170  1  0.57856922  0.74179619  0.91968808  1
  Te  Te171  1  0.91438431  0.07005076  0.27548730  1
  Te  Te172  1  0.91610022  0.06818182  0.58302430  1
  Te  Te173  1  0.91763759  0.08189062  0.91693253  1
  Te  Te174  1  0.92473169  0.42892725  0.24584322  1
  Te  Te175  1  0.90444731  0.39700674  0.55643806  1
  Te  Te176  1  0.95391401  0.37868940  0.94095708  1
  Te  Te177  1  0.92919059  0.76219447  0.24350315  1
  Te  Te178  1  0.90213212  0.75648634  0.55385616  1
  Te  Te179  1  0.90517367  0.78817026  0.92194377  1
