# generated using pymatgen
data_In2Te3
_symmetry_space_group_name_H-M   'P 1'
_cell_length_a   19.01513619
_cell_length_b   18.99837355
_cell_length_c   19.01849904
_cell_angle_alpha   90.17161950
_cell_angle_beta   90.00193834
_cell_angle_gamma   90.05004162
_symmetry_Int_Tables_number   1
_chemical_formula_structural   In2Te3
_chemical_formula_sum   'In72 Te108'
_cell_volume   6870.52600536
_cell_formula_units_Z   36
loop_
 _symmetry_equiv_pos_site_id
 _symmetry_equiv_pos_as_xyz
  1  'x, y, z'
loop_
 _atom_site_type_symbol
 _atom_site_label
 _atom_site_symmetry_multiplicity
 _atom_site_fract_x
 _atom_site_fract_y
 _atom_site_fract_z
 _atom_site_occupancy
  In  In0  1  0.18707455  0.86007617  0.01417104  1
  In  In1  1  0.17716826  0.51523696  0.31259992  1
  In  In2  1  0.02022620  0.69616916  0.32372062  1
  In  In3  1  0.67418818  0.65564700  0.31224697  1
  In  In4  1  0.50500597  0.67371861  0.14873463  1
  In  In5  1  0.49125250  0.68318708  0.48150385  1
  In  In6  1  0.48417230  0.83668134  0.64699379  1
  In  In7  1  0.49682325  0.49931775  0.00104790  1
  In  In8  1  0.01725259  -0.01410067  0.31351181  1
  In  In9  1  0.17343485  0.15856942  0.00204814  1
  In  In10  1  0.49127347  0.01937961  0.49954037  1
  In  In11  1  0.65314311  0.46264652  0.50357122  1
  In  In12  1  0.82765253  0.83564956  0.64921108  1
  In  In13  1  0.51092229  0.50554005  0.66319279  1
  In  In14  1  0.47138457  0.84596967  0.32989911  1
  In  In15  1  0.01395130  0.67928640  0.65870236  1
  In  In16  1  0.35418025  0.07992611  0.67761565  1
  In  In17  1  0.50266849  0.32909107  0.16536766  1
  In  In18  1  0.00377889  0.83555348  0.49603317  1
  In  In19  1  0.29302882  -0.02353492  0.33322271  1
  In  In20  1  -0.03418749  0.14638484  0.48696844  1
  In  In21  1  0.49746066  0.48739999  0.33896006  1
  In  In22  1  0.80145231  0.32480870  0.81037978  1
  In  In23  1  0.83910830  0.48239150  0.66310376  1
  In  In24  1  0.63337130  0.31165321  0.33712279  1
  In  In25  1  0.80787231  0.01954843  0.17683808  1
  In  In26  1  0.87029140  0.49198475  0.01061847  1
  In  In27  1  0.68841157  0.49957185  0.82681278  1
  In  In28  1  0.01249175  0.50020912  0.82907396  1
  In  In29  1  0.18980409  0.32978367  0.53009556  1
  In  In30  1  0.84339468  0.32627844  0.18669921  1
  In  In31  1  0.15632641  0.66242341  0.49840004  1
  In  In32  1  0.68303680  0.33125390  0.00419989  1
  In  In33  1  0.82130291  0.83634494  -0.00845588  1
  In  In34  1  0.48126125  0.68057152  0.87133261  1
  In  In35  1  -0.01127356  0.33222420  0.66107518  1
  In  In36  1  0.47924353  0.30872935  0.84887077  1
  In  In37  1  0.66786045  -0.00138616  0.62717715  1
  In  In38  1  0.33694501  0.33287843  0.69053113  1
  In  In39  1  0.33615529  0.17874865  0.49981405  1
  In  In40  1  -0.01121025  0.47820328  0.49830804  1
  In  In41  1  0.67027509  0.85772856  0.16314305  1
  In  In42  1  0.36268777  0.50127367  0.16220561  1
  In  In43  1  0.01840666  0.83426361  0.16156537  1
  In  In44  1  0.63251331  0.15510549  0.15647741  1
  In  In45  1  0.02912796  0.32799712  -0.00313988  1
  In  In46  1  0.68924427  0.64829847  0.66763688  1
  In  In47  1  0.32334570  0.83928562  0.83382449  1
  In  In48  1  0.49120867  0.84717970  0.01303560  1
  In  In49  1  -0.00494722  -0.00633965  -0.00367623  1
  In  In50  1  0.80005230  0.17028706  0.64154258  1
  In  In51  1  0.02089895  0.31198144  0.36128772  1
  In  In52  1  -0.00847336  0.15206183  0.13994987  1
  In  In53  1  0.16192924  0.65853212  0.84566816  1
  In  In54  1  0.62889467  0.85290852  0.84723163  1
  In  In55  1  0.17293449  0.15307946  0.34022505  1
  In  In56  1  0.68040591  0.81012433  0.47618832  1
  In  In57  1  0.81916504  0.67342893  0.84237941  1
  In  In58  1  0.18710601  0.33727524  0.18512030  1
  In  In59  1  0.62560639  0.14770566  0.84725491  1
  In  In60  1  0.64784656  0.03501321  0.35027669  1
  In  In61  1  0.83131456  0.51603906  0.34426060  1
  In  In62  1  0.36676535  0.15151331  0.14364428  1
  In  In63  1  0.82301698  -0.00525027  0.84033750  1
  In  In64  1  0.20278535  0.03262984  0.82528063  1
  In  In65  1  0.18264202  0.47904826  0.69179018  1
  In  In66  1  0.00377499  0.51748633  0.18253233  1
  In  In67  1  0.21065435  0.86045663  0.59211171  1
  In  In68  1  0.24952529  0.50733982  -0.04086989  1
  In  In69  1  -0.01165823  0.84311678  0.84615183  1
  In  In70  1  0.31422509  0.70627129  0.31115501  1
  In  In71  1  0.18119788  0.18777975  0.68550101  1
  Te  Te72  1  0.09622223  0.05759944  0.09001733  1
  Te  Te73  1  0.08328207  0.06878148  0.42407065  1
  Te  Te74  1  0.09035397  0.09891345  0.75706938  1
  Te  Te75  1  0.08926048  0.41654636  0.10132651  1
  Te  Te76  1  0.11150456  0.42521572  0.42244501  1
  Te  Te77  1  0.08760347  0.38509708  0.76328612  1
  Te  Te78  1  0.08538491  0.76298625  0.05291956  1
  Te  Te79  1  0.11932047  0.77548459  0.40662945  1
  Te  Te80  1  0.08506904  0.75977641  0.76222681  1
  Te  Te81  1  0.46225945  0.06799030  0.06562044  1
  Te  Te82  1  0.38977032  0.07500973  0.40517760  1
  Te  Te83  1  0.43986336  0.09097107  0.79982710  1
  Te  Te84  1  0.40919805  0.39419940  0.06471813  1
  Te  Te85  1  0.45410737  0.38800259  0.43307313  1
  Te  Te86  1  0.42861601  0.42724297  0.76613210  1
  Te  Te87  1  0.40092258  0.75262381  0.08405510  1
  Te  Te88  1  0.38390363  0.77642367  0.43182080  1
  Te  Te89  1  0.41847864  0.74984458  0.75216262  1
  Te  Te90  1  0.73711382  0.09379673  0.07456547  1
  Te  Te91  1  0.72525662  0.12601162  0.43762669  1
  Te  Te92  1  0.72988211  0.07550641  0.74961568  1
  Te  Te93  1  0.76588312  0.41889585  0.09506392  1
  Te  Te94  1  0.74185622  0.40546135  0.39657192  1
  Te  Te95  1  0.71815207  0.40414327  0.71234370  1
  Te  Te96  1  0.74648022  0.75832251  0.08930830  1
  Te  Te97  1  0.77034066  0.73319234  0.39235794  1
  Te  Te98  1  0.74061877  0.77492219  0.76323166  1
  Te  Te99  1  0.08062316  0.23834973  0.24092535  1
  Te  Te100  1  0.07393293  0.24396365  0.57182281  1
  Te  Te101  1  0.06879219  0.21464340  0.91459442  1
  Te  Te102  1  0.10914483  0.61864787  0.22814711  1
  Te  Te103  1  0.07208802  0.54966579  0.60387611  1
  Te  Te104  1  0.09661585  0.55792615  0.93652448  1
  Te  Te105  1  0.12233058  0.90722000  0.24138639  1
  Te  Te106  1  0.07229012  0.90562562  0.60355367  1
  Te  Te107  1  0.09972502  0.93067408  0.90263381  1
  Te  Te108  1  0.43523734  0.23010444  0.25141727  1
  Te  Te109  1  0.40866219  0.21757185  0.62570738  1
  Te  Te110  1  0.38301112  0.20091960  0.88903587  1
  Te  Te111  1  0.42224863  0.60557503  0.26747859  1
  Te  Te112  1  0.43148814  0.59739138  0.58247909  1
  Te  Te113  1  0.39152226  0.57500280  0.92559528  1
  Te  Te114  1  0.39762063  0.93061481  0.23484896  1
  Te  Te115  1  0.40060415  0.95149886  0.59925138  1
  Te  Te116  1  0.42827931  0.92035965  0.89995292  1
  Te  Te117  1  0.72983689  0.24291099  0.24023903  1
  Te  Te118  1  0.71204483  0.24090520  0.54468656  1
  Te  Te119  1  0.74309851  0.22936736  0.91040538  1
  Te  Te120  1  0.77047232  0.58139081  0.23003763  1
  Te  Te121  1  0.75662600  0.56486478  0.56430940  1
  Te  Te122  1  0.75802133  0.57486151  0.93674617  1
  Te  Te123  1  0.73549652  0.93493434  0.27915154  1
  Te  Te124  1  0.76460670  0.92039718  0.54062896  1
  Te  Te125  1  0.72085569  0.93496652  0.93494292  1
  Te  Te126  1  0.26108407  0.25124365  0.08770234  1
  Te  Te127  1  0.25236458  0.26388530  0.40729163  1
  Te  Te128  1  0.25657098  0.25918244  0.79791117  1
  Te  Te129  1  0.25581272  0.56976320  0.09101568  1
  Te  Te130  1  0.26006746  0.59709968  0.40937986  1
  Te  Te131  1  0.25405080  0.59083739  0.75232824  1
  Te  Te132  1  0.29745936  0.89244932  0.10940154  1
  Te  Te133  1  0.23207053  0.90559358  0.44603767  1
  Te  Te134  1  0.24610909  0.92013029  0.73400424  1
  Te  Te135  1  0.56762961  0.24870884  0.05466961  1
  Te  Te136  1  0.59294757  0.21372568  0.44414023  1
  Te  Te137  1  0.58185476  0.25566965  0.75974686  1
  Te  Te138  1  0.58796981  0.57063602  0.08944253  1
  Te  Te139  1  0.59244314  0.58443085  0.42627202  1
  Te  Te140  1  0.58869037  0.60161390  0.77178134  1
  Te  Te141  1  0.56245722  0.94126944  0.10577388  1
  Te  Te142  1  0.57037380  0.90882030  0.42930617  1
  Te  Te143  1  0.57520480  0.92741351  0.72779880  1
  Te  Te144  1  0.91286577  0.25901253  0.06848989  1
  Te  Te145  1  0.89930634  0.24267936  0.40038610  1
  Te  Te146  1  0.90131482  0.23721538  0.73860473  1
  Te  Te147  1  0.92175859  0.59948580  0.09483859  1
  Te  Te148  1  0.94638544  0.59027783  0.40963126  1
  Te  Te149  1  0.90824846  0.58967011  0.75076921  1
  Te  Te150  1  0.90074172  0.92399118  0.09378331  1
  Te  Te151  1  0.92430478  0.91389289  0.40113301  1
  Te  Te152  1  0.91288904  0.92113832  0.74149847  1
  Te  Te153  1  0.25749780  0.08851087  0.23524584  1
  Te  Te154  1  0.23797716  0.09530991  0.58073661  1
  Te  Te155  1  0.27914534  0.07074376  0.94545369  1
  Te  Te156  1  0.28535304  0.41943185  0.26518542  1
  Te  Te157  1  0.28494848  0.43082152  0.58462975  1
  Te  Te158  1  0.22906089  0.38284523  0.88970396  1
  Te  Te159  1  0.24173657  0.80070633  0.22246707  1
  Te  Te160  1  0.23714048  0.71637322  0.60671940  1
  Te  Te161  1  0.25173077  0.74835648  0.92903854  1
  Te  Te162  1  0.54748780  0.10071167  0.26598938  1
  Te  Te163  1  0.57464994  0.10568105  0.58595518  1
  Te  Te164  1  0.53466512  0.05989757  0.92762554  1
  Te  Te165  1  0.59207786  0.42502848  0.24039058  1
  Te  Te166  1  0.53567867  0.39275051  0.56379898  1
  Te  Te167  1  0.59428194  0.41466120  0.91061510  1
  Te  Te168  1  0.57680260  0.76442166  0.25742207  1
  Te  Te169  1  0.60185470  0.74722572  0.59255633  1
  Te  Te170  1  0.59266736  0.74578892  0.94672295  1
  Te  Te171  1  0.91675517  0.09015958  0.25414691  1
  Te  Te172  1  0.89983992  0.07444396  0.59404962  1
  Te  Te173  1  0.91098597  0.08233216  0.91741694  1
  Te  Te174  1  0.93790302  0.41286360  0.27179503  1
  Te  Te175  1  0.88913070  0.38330393  0.55846730  1
  Te  Te176  1  0.90794490  0.40636202  0.88919585  1
  Te  Te177  1  0.92035251  0.77666998  0.25492426  1
  Te  Te178  1  0.90636933  0.73329037  0.57123275  1
  Te  Te179  1  0.92350030  0.73718651  0.93078211  1
