# generated using pymatgen
data_In2Te3
_symmetry_space_group_name_H-M   'P 1'
_cell_length_a   18.97746966
_cell_length_b   18.99847308
_cell_length_c   18.99798687
_cell_angle_alpha   90.20370857
_cell_angle_beta   90.09074056
_cell_angle_gamma   90.07246877
_symmetry_Int_Tables_number   1
_chemical_formula_structural   In2Te3
_chemical_formula_sum   'In72 Te108'
_cell_volume   6849.53275236
_cell_formula_units_Z   36
loop_
 _symmetry_equiv_pos_site_id
 _symmetry_equiv_pos_as_xyz
  1  'x, y, z'
loop_
 _atom_site_type_symbol
 _atom_site_label
 _atom_site_symmetry_multiplicity
 _atom_site_fract_x
 _atom_site_fract_y
 _atom_site_fract_z
 _atom_site_occupancy
  In  In0  1  0.67608239  0.83141629  0.50245166  1
  In  In1  1  0.36222960  0.14633710  0.15934576  1
  In  In2  1  0.84161005  0.32428421  0.14584757  1
  In  In3  1  0.68238970  0.33772137  0.68130059  1
  In  In4  1  0.82787297  0.65422735  0.49798236  1
  In  In5  1  0.33422483  -0.01470258  0.32564057  1
  In  In6  1  0.67298065  0.86827039  0.18840912  1
  In  In7  1  0.15315170  0.65218153  0.82717973  1
  In  In8  1  0.16435539  0.85929607  0.29588505  1
  In  In9  1  -0.01540933  0.64234727  0.68333366  1
  In  In10  1  0.65855605  0.32504107  -0.00521092  1
  In  In11  1  0.47346856  0.33366459  0.17132065  1
  In  In12  1  0.33535395  0.83578575  0.83638759  1
  In  In13  1  -0.03835361  0.70837092  -0.02928547  1
  In  In14  1  0.34433890  0.18726122  0.84571166  1
  In  In15  1  0.65771282  -0.00204853  0.00086535  1
  In  In16  1  0.32845945  0.66247917  0.33471064  1
  In  In17  1  -0.02238402  0.12840889  0.18478588  1
  In  In18  1  0.64543449  0.52557189  0.17025649  1
  In  In19  1  0.67521675  0.17567655  0.83147970  1
  In  In20  1  0.83252366  0.70093062  0.18898177  1
  In  In21  1  0.50664463  -0.00021279  0.84374595  1
  In  In22  1  -0.01176196  -0.03296399  0.65993951  1
  In  In23  1  0.18722949  0.65283893  0.49230681  1
  In  In24  1  0.50776408  0.33265953  0.48766607  1
  In  In25  1  0.15930683  0.87805691  0.05759731  1
  In  In26  1  -0.00723221  0.48320220  0.83529469  1
  In  In27  1  0.83037059  0.47640107  0.34510253  1
  In  In28  1  0.51789209  0.15093365  0.68088627  1
  In  In29  1  0.47887260  0.48890871  0.67069991  1
  In  In30  1  0.00550084  0.17224943  0.82821190  1
  In  In31  1  0.50169669  0.67808003  0.85123691  1
  In  In32  1  0.33118601  0.34471907  -0.00162853  1
  In  In33  1  0.00590904  0.15604077  0.47635205  1
  In  In34  1  0.49061483  0.69451601  0.15046783  1
  In  In35  1  0.66545139  0.65570109  0.63892060  1
  In  In36  1  0.34204871  0.32857406  0.68470492  1
  In  In37  1  0.82515736  0.16039270  0.67780995  1
  In  In38  1  0.34258466  0.15912849  0.48205131  1
  In  In39  1  0.66724011  0.02236288  0.33408211  1
  In  In40  1  0.48135319  0.82417247  0.33073224  1
  In  In41  1  0.66338890  0.67673529  0.01731690  1
  In  In42  1  0.18152201  0.50206405  0.65170568  1
  In  In43  1  0.15570150  0.01311213  0.83585351  1
  In  In44  1  0.19717669  0.36034621  0.20201592  1
  In  In45  1  0.83501029  0.49842428  -0.00927371  1
  In  In46  1  0.19910311  0.15997862  0.64474669  1
  In  In47  1  0.66239727  0.84414098  0.83362319  1
  In  In48  1  -0.02717154  0.35449463  0.63078990  1
  In  In49  1  0.66669410  0.49283285  0.83642652  1
  In  In50  1  0.67416985  0.32010988  0.35142003  1
  In  In51  1  0.16689239  0.34824550  0.49712787  1
  In  In52  1  0.50330894  0.50502798  0.34693200  1
  In  In53  1  0.32874598  -0.01407835  0.64173996  1
  In  In54  1  0.18309986  0.50064789  -0.00591841  1
  In  In55  1  0.81790635  0.16031326  -0.01327842  1
  In  In56  1  0.83553428  0.81998993  0.68310913  1
  In  In57  1  0.67528874  0.16368049  0.17930935  1
  In  In58  1  0.15470749  0.66830203  0.16430582  1
  In  In59  1  0.32235647  0.67158041  0.00346254  1
  In  In60  1  0.82859918  -0.01437277  0.48011421  1
  In  In61  1  0.50636718  0.00788829  0.51145768  1
  In  In62  1  -0.00067186  0.67399596  0.30932713  1
  In  In63  1  -0.00190232  0.83454471  0.47293191  1
  In  In64  1  0.01066943  0.51590735  0.14291250  1
  In  In65  1  0.00515353  0.32929987  0.35155922  1
  In  In66  1  0.15188580  0.80203205  0.65924978  1
  In  In67  1  0.66383210  0.67083269  0.36767917  1
  In  In68  1  0.15450186  0.16513144  0.32147448  1
  In  In69  1  -0.02040683  -0.00358799  0.00497889  1
  In  In70  1  0.16864285  0.18240633  0.00495917  1
  In  In71  1  0.34879654  0.66065896  0.67100447  1
  Te  Te72  1  0.08249783  0.08511715  0.08115684  1
  Te  Te73  1  0.07828657  0.05983123  0.39117847  1
  Te  Te74  1  0.08321767  0.08153471  0.72149677  1
  Te  Te75  1  0.10620279  0.40983019  0.09156733  1
  Te  Te76  1  0.06661556  0.43302494  0.43348078  1
  Te  Te77  1  0.07478746  0.42002819  0.72383495  1
  Te  Te78  1  0.07784914  0.74669533  0.06234965  1
  Te  Te79  1  0.10073609  0.74558851  0.40161236  1
  Te  Te80  1  0.05726480  0.75103531  0.76491542  1
  Te  Te81  1  0.38758400  0.04252239  0.05717166  1
  Te  Te82  1  0.43512808  0.07610119  0.39732574  1
  Te  Te83  1  0.39687703  0.07922281  0.74344654  1
  Te  Te84  1  0.39723306  0.43232927  0.09713103  1
  Te  Te85  1  0.41076002  0.39956057  0.39606515  1
  Te  Te86  1  0.42189004  0.40737308  0.77744683  1
  Te  Te87  1  0.40512943  0.77625375  0.06597204  1
  Te  Te88  1  0.43312908  0.72072288  0.42092257  1
  Te  Te89  1  0.43195156  0.76379235  0.74678126  1
  Te  Te90  1  0.75824338  0.07141916  0.09064448  1
  Te  Te91  1  0.73757494  0.09408392  0.44201692  1
  Te  Te92  1  0.74505584  0.07012544  0.75976770  1
  Te  Te93  1  0.73977261  0.42702884  0.09365371  1
  Te  Te94  1  0.75509027  0.40156561  0.44783213  1
  Te  Te95  1  0.77136827  0.41950190  0.76525153  1
  Te  Te96  1  0.74941683  0.77869368  0.09061694  1
  Te  Te97  1  0.77601209  0.76501048  0.40797358  1
  Te  Te98  1  0.73236135  0.73558798  0.75111546  1
  Te  Te99  1  0.06368614  0.25124251  0.23606632  1
  Te  Te100  1  0.08844067  0.24332296  0.57703871  1
  Te  Te101  1  0.08473910  0.26049450  0.91312858  1
  Te  Te102  1  0.09439482  0.56705398  0.25867776  1
  Te  Te103  1  0.07959474  0.58658154  0.57859669  1
  Te  Te104  1  0.06931448  0.58384304  0.93246525  1
  Te  Te105  1  0.08307840  0.92128205  0.18631697  1
  Te  Te106  1  0.09242587  0.90735538  0.56814635  1
  Te  Te107  1  0.08561423  0.91830405  0.92714829  1
  Te  Te108  1  0.41739296  0.23503078  0.26267976  1
  Te  Te109  1  0.42072470  0.23597925  0.58737012  1
  Te  Te110  1  0.42834733  0.24656580  0.94829774  1
  Te  Te111  1  0.43116288  0.59195113  0.24642955  1
  Te  Te112  1  0.41111702  0.57291542  0.57253848  1
  Te  Te113  1  0.40081931  0.59081783  0.90897447  1
  Te  Te114  1  0.40496704  0.89764491  0.22758370  1
  Te  Te115  1  0.42554389  0.90346976  0.57195960  1
  Te  Te116  1  0.40269661  0.93324484  0.92577551  1
  Te  Te117  1  0.77442684  0.24916020  0.25696202  1
  Te  Te118  1  0.73024919  0.23199234  0.59055653  1
  Te  Te119  1  0.76762147  0.27509444  0.90352423  1
  Te  Te120  1  0.75940207  0.58424010  0.25559122  1
  Te  Te121  1  0.77859981  0.56257470  0.60421083  1
  Te  Te122  1  0.74715569  0.59899948  0.91996631  1
  Te  Te123  1  0.77713514  0.94888789  0.25991314  1
  Te  Te124  1  0.75685907  0.91615212  0.59745746  1
  Te  Te125  1  0.75863103  0.91522108  0.92619785  1
  Te  Te126  1  0.25457438  0.25211474  0.11180629  1
  Te  Te127  1  0.24363964  0.24874449  0.41043339  1
  Te  Te128  1  0.23330727  0.25180166  0.75801525  1
  Te  Te129  1  0.25746218  0.57536830  0.10281294  1
  Te  Te130  1  0.25267020  0.55269082  0.40426581  1
  Te  Te131  1  0.26102170  0.57266665  0.75960511  1
  Te  Te132  1  0.28659978  0.94077057  0.10843664  1
  Te  Te133  1  0.25662431  0.88937697  0.40519216  1
  Te  Te134  1  0.23258414  0.91246644  0.74194195  1
  Te  Te135  1  0.58023088  0.24702053  0.09589944  1
  Te  Te136  1  0.56910832  0.23186389  0.40110682  1
  Te  Te137  1  0.57272466  0.26313359  0.76334986  1
  Te  Te138  1  0.55469748  0.58315493  0.06526975  1
  Te  Te139  1  0.61169914  0.55283783  0.43403219  1
  Te  Te140  1  0.57813894  0.58756982  0.74662133  1
  Te  Te141  1  0.57271798  0.93503326  0.10416338  1
  Te  Te142  1  0.58663271  0.90830280  0.40479842  1
  Te  Te143  1  0.58126396  0.92563473  0.74376596  1
  Te  Te144  1  0.92529876  0.22418015  0.07292172  1
  Te  Te145  1  0.90738535  0.24912119  0.42269412  1
  Te  Te146  1  0.91912316  0.26235311  0.73970062  1
  Te  Te147  1  0.90346526  0.60746475  0.08415242  1
  Te  Te148  1  0.92321437  0.58273661  0.40490199  1
  Te  Te149  1  0.90070353  0.58807635  0.78859717  1
  Te  Te150  1  0.94402146  0.90719099  0.11621916  1
  Te  Te151  1  0.94194457  0.94479984  0.38893494  1
  Te  Te152  1  0.92024938  0.90264779  0.77402881  1
  Te  Te153  1  0.24881578  0.07961461  0.24172979  1
  Te  Te154  1  0.24253288  0.06104201  0.54011390  1
  Te  Te155  1  0.25396745  0.08786529  0.92147423  1
  Te  Te156  1  0.27535163  0.42964110  0.30353598  1
  Te  Te157  1  0.27846991  0.41451557  0.57629877  1
  Te  Te158  1  0.23985744  0.40485158  0.90035251  1
  Te  Te159  1  0.25583085  0.75337801  0.23643032  1
  Te  Te160  1  0.26673776  0.74978621  0.57747318  1
  Te  Te161  1  0.23311312  0.75295894  0.90937447  1
  Te  Te162  1  0.57520275  0.06435146  0.22538072  1
  Te  Te163  1  0.60714484  0.09175349  0.57965213  1
  Te  Te164  1  0.57978588  0.10337950  0.92605650  1
  Te  Te165  1  0.59387727  0.40955316  0.25236364  1
  Te  Te166  1  0.58279574  0.41306715  0.59075653  1
  Te  Te167  1  0.57669314  0.42573552  0.92974923  1
  Te  Te168  1  0.60144562  0.74140626  0.24994580  1
  Te  Te169  1  0.57703557  0.74528199  0.56565452  1
  Te  Te170  1  0.57768189  0.77481348  0.93921205  1
  Te  Te171  1  0.88712967  0.05964877  0.27700411  1
  Te  Te172  1  0.91690796  0.07287610  0.57897669  1
  Te  Te173  1  0.90914376  0.07867256  0.89706776  1
  Te  Te174  1  0.92185473  0.42585158  0.22970496  1
  Te  Te175  1  0.86814504  0.43648761  0.57270546  1
  Te  Te176  1  0.93763302  0.40491184  0.94700521  1
  Te  Te177  1  0.94313078  0.78936734  0.23430906  1
  Te  Te178  1  0.92727406  0.74940609  0.57716360  1
  Te  Te179  1  0.87621754  0.81202314  0.91458384  1
