# generated using pymatgen
data_In2Te3
_symmetry_space_group_name_H-M   'P 1'
_cell_length_a   18.97758708
_cell_length_b   18.98248552
_cell_length_c   18.95827321
_cell_angle_alpha   90.25231753
_cell_angle_beta   90.01558286
_cell_angle_gamma   90.06323084
_symmetry_Int_Tables_number   1
_chemical_formula_structural   In2Te3
_chemical_formula_sum   'In72 Te108'
_cell_volume   6829.49128715
_cell_formula_units_Z   36
loop_
 _symmetry_equiv_pos_site_id
 _symmetry_equiv_pos_as_xyz
  1  'x, y, z'
loop_
 _atom_site_type_symbol
 _atom_site_label
 _atom_site_symmetry_multiplicity
 _atom_site_fract_x
 _atom_site_fract_y
 _atom_site_fract_z
 _atom_site_occupancy
  In  In0  1  0.17345711  0.84269965  -0.02974142  1
  In  In1  1  0.82892683  0.17630212  0.02609281  1
  In  In2  1  0.81300661  0.16947228  0.34145533  1
  In  In3  1  0.47624468  0.50111694  0.34062323  1
  In  In4  1  0.16350444  0.31167207  0.17934411  1
  In  In5  1  0.67329443  0.01349154  0.67993503  1
  In  In6  1  0.65137827  0.82078554  0.51123746  1
  In  In7  1  0.31847407  0.49522698  0.80046250  1
  In  In8  1  0.62572094  0.18989141  0.80091303  1
  In  In9  1  0.31542265  0.46174227  0.51676602  1
  In  In10  1  0.83813819  -0.00620057  0.17242719  1
  In  In11  1  0.83832397  0.83813269  0.33778367  1
  In  In12  1  0.31458937  0.83216179  0.49787088  1
  In  In13  1  0.15611343  0.18584080  0.65771214  1
  In  In14  1  0.35455935  0.19258801  0.53448887  1
  In  In15  1  0.65970861  0.18382350  0.49719233  1
  In  In16  1  0.83729905  0.52445919  0.00144721  1
  In  In17  1  0.34524204  0.16618548  0.83660794  1
  In  In18  1  0.65569911  0.33019962  0.34102516  1
  In  In19  1  0.32967150  0.69137384  0.33625756  1
  In  In20  1  0.49585994  0.16311504  -0.00740980  1
  In  In21  1  0.18833010  0.02166574  0.21488945  1
  In  In22  1  0.53401456  0.66321890  0.16472262  1
  In  In23  1  0.64419570  0.48819411  0.83971753  1
  In  In24  1  0.32012590  0.01151157  -0.00565469  1
  In  In25  1  0.00712610  0.81923725  0.82779592  1
  In  In26  1  0.00417483  0.32447102  0.64005646  1
  In  In27  1  0.48888183  0.47572690  0.64142649  1
  In  In28  1  0.86825838  0.14975709  0.64522958  1
  In  In29  1  0.81971381  0.50848319  0.67911556  1
  In  In30  1  0.49962726  0.64836754  0.81919695  1
  In  In31  1  0.33431636  0.17996004  0.18064855  1
  In  In32  1  0.03575767  -0.02422789  0.63123423  1
  In  In33  1  0.66409668  0.67108585  -0.01182538  1
  In  In34  1  0.29484073  -0.00444543  0.64561220  1
  In  In35  1  -0.03372817  0.52668314  0.23258118  1
  In  In36  1  0.15738073  0.51162545  -0.00866137  1
  In  In37  1  0.02431801  0.33025340  0.02256042  1
  In  In38  1  0.34366818  0.84817385  0.81231477  1
  In  In39  1  0.85291635  -0.01823837  0.50817979  1
  In  In40  1  0.47638998  0.85374444  0.35827229  1
  In  In41  1  0.14423357  0.66381884  0.17980674  1
  In  In42  1  0.02800198  0.48915356  0.80657735  1
  In  In43  1  -0.00406126  0.81674138  0.17277816  1
  In  In44  1  0.65825174  0.13920791  0.18443972  1
  In  In45  1  0.48252243  0.33906209  0.16366736  1
  In  In46  1  0.14547021  0.34060062  0.81533675  1
  In  In47  1  0.68688534  0.81762057  0.81646567  1
  In  In48  1  0.02559137  0.15319583  0.20399366  1
  In  In49  1  0.47549324  0.01898665  0.83173441  1
  In  In50  1  0.85921619  0.80942076  0.66950537  1
  In  In51  1  0.16880725  0.48349940  0.33419812  1
  In  In52  1  0.50722845  -0.02174237  0.18658502  1
  In  In53  1  0.66716464  0.34065938  -0.00348456  1
  In  In54  1  0.82973750  0.37330668  0.84114048  1
  In  In55  1  0.67853053  0.50161643  0.14794314  1
  In  In56  1  0.35202115  0.67912672  -0.00782590  1
  In  In57  1  0.31639466  0.48902734  0.17189091  1
  In  In58  1  0.01483040  -0.00554842  0.04499052  1
  In  In59  1  0.50505089  0.80994347  0.67475107  1
  In  In60  1  0.66773268  0.65942379  0.33919383  1
  In  In61  1  0.48217860  0.02075823  0.51055714  1
  In  In62  1  0.81083123  0.34384646  0.50990497  1
  In  In63  1  0.66811124  0.49791298  0.51145943  1
  In  In64  1  -0.01200422  0.36842508  0.36175043  1
  In  In65  1  0.33221017  0.81944564  0.17581394  1
  In  In66  1  0.67412876  0.83447904  0.15775476  1
  In  In67  1  -0.00615943  0.66114619  -0.02955496  1
  In  In68  1  0.16531331  0.68604497  0.48382640  1
  In  In69  1  0.02752475  0.66837482  0.64729834  1
  In  In70  1  -0.01296258  0.15861608  0.82743106  1
  In  In71  1  0.83635872  -0.00989552  0.84470237  1
  Te  Te72  1  0.11460285  0.09344118  0.09715984  1
  Te  Te73  1  0.13009335  0.02493986  0.35650163  1
  Te  Te74  1  0.08017130  0.08168750  0.73784210  1
  Te  Te75  1  0.09936794  0.43306394  0.10685266  1
  Te  Te76  1  0.08842694  0.43563887  0.44929544  1
  Te  Te77  1  0.12156116  0.43808607  0.69049475  1
  Te  Te78  1  0.08860688  0.75140224  0.06099349  1
  Te  Te79  1  0.06109232  0.79084504  0.45501269  1
  Te  Te80  1  0.09894002  0.77440452  0.72409784  1
  Te  Te81  1  0.42036097  0.07517911  0.09183606  1
  Te  Te82  1  0.38355275  0.09089458  0.42998188  1
  Te  Te83  1  0.39854202  0.08257971  0.72056246  1
  Te  Te84  1  0.40153343  0.42133554  0.07534455  1
  Te  Te85  1  0.41941385  0.39721796  0.42640498  1
  Te  Te86  1  0.42712980  0.40260006  0.75653749  1
  Te  Te87  1  0.43947445  0.75796154  0.08731520  1
  Te  Te88  1  0.42690290  0.73941050  0.44128280  1
  Te  Te89  1  0.39709831  0.72508300  0.73822625  1
  Te  Te90  1  0.74120062  0.06608225  0.07977152  1
  Te  Te91  1  0.75118352  0.07469940  0.44121484  1
  Te  Te92  1  0.77118824  0.09833395  0.75892432  1
  Te  Te93  1  0.77648195  0.40903717  0.07740697  1
  Te  Te94  1  0.75262750  0.43010481  0.40038766  1
  Te  Te95  1  0.72504541  0.40441690  0.73828148  1
  Te  Te96  1  0.75112700  0.72858080  0.09196924  1
  Te  Te97  1  0.75464822  0.74735114  0.42824358  1
  Te  Te98  1  0.74913893  0.72803545  0.72038341  1
  Te  Te99  1  0.08046383  0.26009195  0.29483281  1
  Te  Te100  1  0.08397104  0.24827804  0.54512367  1
  Te  Te101  1  0.08303707  0.24170459  0.91327067  1
  Te  Te102  1  0.07966434  0.61040595  0.30734716  1
  Te  Te103  1  0.07895494  0.57795708  0.53922093  1
  Te  Te104  1  0.10275082  0.60139464  0.88190053  1
  Te  Te105  1  0.07019365  0.92421773  0.24308905  1
  Te  Te106  1  0.12770085  0.90352543  0.53725316  1
  Te  Te107  1  0.06773935  0.93373347  0.91589316  1
  Te  Te108  1  0.44025200  0.24231154  0.26446923  1
  Te  Te109  1  0.46654895  0.27385880  0.59203465  1
  Te  Te110  1  0.40928199  0.26080896  0.92943674  1
  Te  Te111  1  0.41230846  0.60020990  0.23588892  1
  Te  Te112  1  0.38972011  0.56830260  0.58773931  1
  Te  Te113  1  0.40777081  0.56776988  0.90800839  1
  Te  Te114  1  0.38479737  0.92974595  0.26702126  1
  Te  Te115  1  0.41830199  0.90816237  0.59369307  1
  Te  Te116  1  0.41735934  0.91593155  0.92639043  1
  Te  Te117  1  0.74158912  0.25439185  0.23932015  1
  Te  Te118  1  0.75360535  0.24086656  0.60444971  1
  Te  Te119  1  0.76323567  0.25420457  0.91373890  1
  Te  Te120  1  0.75019541  0.59612126  0.23460441  1
  Te  Te121  1  0.77743247  0.58267779  0.56070081  1
  Te  Te122  1  0.75022397  0.58430938  0.89559153  1
  Te  Te123  1  0.73896194  0.92361175  0.26310016  1
  Te  Te124  1  0.75052801  0.91171381  0.59850021  1
  Te  Te125  1  0.74612310  0.90395810  0.91852897  1
  Te  Te126  1  0.25286630  0.24991450  0.08194043  1
  Te  Te127  1  0.28063066  0.31254096  0.47445855  1
  Te  Te128  1  0.25745220  0.26219720  0.74312081  1
  Te  Te129  1  0.25017214  0.60508656  0.08192768  1
  Te  Te130  1  0.26876669  0.57422764  0.40831970  1
  Te  Te131  1  0.20430068  0.56080862  0.73777399  1
  Te  Te132  1  0.24659098  0.90898645  0.08555389  1
  Te  Te133  1  0.22995588  0.91961456  0.41573652  1
  Te  Te134  1  0.22880740  0.91095091  0.74613256  1
  Te  Te135  1  0.59062631  0.24562576  0.08933193  1
  Te  Te136  1  0.56507748  0.22515802  0.39096581  1
  Te  Te137  1  0.51630018  0.26397729  0.73919480  1
  Te  Te138  1  0.57694140  0.56623106  0.05628369  1
  Te  Te139  1  0.57110072  0.58208123  0.42636665  1
  Te  Te140  1  0.58561385  0.56787097  0.72626127  1
  Te  Te141  1  0.58209747  0.91484732  0.07883805  1
  Te  Te142  1  0.58198685  0.93065376  0.43524583  1
  Te  Te143  1  0.57462790  0.92449340  0.75314603  1
  Te  Te144  1  0.93819912  0.23923767  0.10853711  1
  Te  Te145  1  0.90155566  0.25610754  0.42721848  1
  Te  Te146  1  0.92004837  0.27558001  0.75641274  1
  Te  Te147  1  0.93849800  0.58995656  0.09141644  1
  Te  Te148  1  0.93359455  0.59472590  0.35848328  1
  Te  Te149  1  0.93432606  0.58663367  0.74320671  1
  Te  Te150  1  0.90523651  0.89471919  0.07893719  1
  Te  Te151  1  0.94288995  0.91007353  0.41522324  1
  Te  Te152  1  0.92381417  0.93364518  0.73379484  1
  Te  Te153  1  0.24892411  0.13446267  0.29455690  1
  Te  Te154  1  0.23106349  0.09821332  0.55690496  1
  Te  Te155  1  0.24082950  0.08372895  0.89705542  1
  Te  Te156  1  0.26545201  0.38670804  0.26788937  1
  Te  Te157  1  0.25147948  0.36889705  0.61706090  1
  Te  Te158  1  0.23813729  0.41501315  0.91036517  1
  Te  Te159  1  0.21985369  0.76663308  0.26502638  1
  Te  Te160  1  0.25986728  0.73049919  0.58667606  1
  Te  Te161  1  0.25852872  0.74510066  0.89417816  1
  Te  Te162  1  0.57924175  0.06488102  0.28153859  1
  Te  Te163  1  0.58101952  0.09881856  0.59745560  1
  Te  Te164  1  0.59255719  0.08542735  0.90539199  1
  Te  Te165  1  0.58058454  0.43463673  0.24781029  1
  Te  Te166  1  0.57881805  0.38744377  0.55840024  1
  Te  Te167  1  0.56062217  0.39331727  0.91278892  1
  Te  Te168  1  0.57239622  0.76538417  0.27203051  1
  Te  Te169  1  0.58555397  0.71984126  0.59290185  1
  Te  Te170  1  0.57333261  0.75296094  0.89989556  1
  Te  Te171  1  0.91392589  0.07721409  0.27380649  1
  Te  Te172  1  0.96292137  0.08122526  0.54873314  1
  Te  Te173  1  0.92259010  0.08351903  0.94538175  1
  Te  Te174  1  0.90697655  0.39422511  0.24234613  1
  Te  Te175  1  0.91265418  0.42878223  0.58348920  1
  Te  Te176  1  0.94570002  0.42666045  0.92711534  1
  Te  Te177  1  0.91719428  0.73243691  0.26617665  1
  Te  Te178  1  0.93604010  0.74926079  0.55852864  1
  Te  Te179  1  0.90242746  0.75048235  0.90132559  1
