# generated using pymatgen
data_In2Te3
_symmetry_space_group_name_H-M   'P 1'
_cell_length_a   18.97276642
_cell_length_b   18.95677103
_cell_length_c   18.98378539
_cell_angle_alpha   90.10293860
_cell_angle_beta   90.06876971
_cell_angle_gamma   90.10677929
_symmetry_Int_Tables_number   1
_chemical_formula_structural   In2Te3
_chemical_formula_sum   'In72 Te108'
_cell_volume   6827.72578065
_cell_formula_units_Z   36
loop_
 _symmetry_equiv_pos_site_id
 _symmetry_equiv_pos_as_xyz
  1  'x, y, z'
loop_
 _atom_site_type_symbol
 _atom_site_label
 _atom_site_symmetry_multiplicity
 _atom_site_fract_x
 _atom_site_fract_y
 _atom_site_fract_z
 _atom_site_occupancy
  In  In0  1  0.34792488  -0.01210698  0.35148926  1
  In  In1  1  0.02144635  0.34359022  0.66669390  1
  In  In2  1  0.51799440  0.15578186  -0.00995856  1
  In  In3  1  0.16636251  0.65334450  0.83129397  1
  In  In4  1  0.64784102  0.84363296  0.15027999  1
  In  In5  1  0.18143121  -0.00212791  0.50301742  1
  In  In6  1  0.32977764  0.32497045  0.31323886  1
  In  In7  1  0.66449652  0.49164565  0.15822724  1
  In  In8  1  0.66009456  0.63922261  0.35161297  1
  In  In9  1  0.29899419  0.29359629  0.01712400  1
  In  In10  1  0.18450101  0.35555627  0.49711595  1
  In  In11  1  0.83283378  0.12516855  0.68916681  1
  In  In12  1  0.16847789  0.14527525  0.31575638  1
  In  In13  1  0.47494173  0.01966964  0.15149077  1
  In  In14  1  0.00460524  -0.00424116  0.24557818  1
  In  In15  1  0.81254497  -0.01581550  0.49878496  1
  In  In16  1  0.00376291  0.17845394  0.50217497  1
  In  In17  1  0.34919971  0.84842878  0.51284032  1
  In  In18  1  0.83776336  0.45748163  0.33134812  1
  In  In19  1  0.32640528  0.00249942  0.69006428  1
  In  In20  1  0.01322198  0.50208094  0.14799279  1
  In  In21  1  0.00561021  0.68445937  0.65253378  1
  In  In22  1  0.85781249  0.87897157  0.01307759  1
  In  In23  1  0.16992372  0.49895022  0.36640124  1
  In  In24  1  0.02155611  0.00235610  0.68446906  1
  In  In25  1  0.83190185  0.68249791  0.83525403  1
  In  In26  1  0.17751266  -0.00097206  0.15593777  1
  In  In27  1  0.82846965  0.83529337  0.31354066  1
  In  In28  1  -0.01199515  0.52816519  0.50877607  1
  In  In29  1  0.47875659  0.16186158  0.34909919  1
  In  In30  1  0.32082161  0.81648599  0.18512471  1
  In  In31  1  0.33010911  0.50902526  0.81163996  1
  In  In32  1  0.17517855  0.51171817  -0.00999426  1
  In  In33  1  0.80076792  0.51057165  0.67291039  1
  In  In34  1  -0.01086411  0.15491303  0.83528714  1
  In  In35  1  -0.00795450  0.34242102  -0.02370071  1
  In  In36  1  0.49050808  0.35180014  0.82587084  1
  In  In37  1  0.35924949  0.86398727  0.84879593  1
  In  In38  1  0.33715439  0.68221331  -0.01289806  1
  In  In39  1  0.50821626  0.49403343  0.36039371  1
  In  In40  1  0.68152922  0.29646995  -0.02181133  1
  In  In41  1  0.66952877  0.14778399  0.15135072  1
  In  In42  1  0.84613846  0.29736894  0.51894461  1
  In  In43  1  0.64016986  0.66571109  0.67465097  1
  In  In44  1  0.64558072  0.84299929  0.53356450  1
  In  In45  1  0.51078778  0.82379613  0.36134111  1
  In  In46  1  0.50133303  0.67547471  0.82727581  1
  In  In47  1  0.82658579  0.71029064  0.51943279  1
  In  In48  1  0.02128991  0.30127231  0.32139986  1
  In  In49  1  0.48577563  0.65701784  0.16941171  1
  In  In50  1  0.50267852  0.31790262  0.51995354  1
  In  In51  1  -0.02577744  0.66823019  0.32454005  1
  In  In52  1  0.49823792  0.15074947  0.67273346  1
  In  In53  1  0.66932243  -0.02300051  0.33657867  1
  In  In54  1  0.49542576  0.47308612  0.02233920  1
  In  In55  1  0.68319545  0.01175482  -0.03126716  1
  In  In56  1  -0.00046042  0.86188279  0.83809897  1
  In  In57  1  0.03187708  0.67195138  0.01257163  1
  In  In58  1  0.17948120  0.33207226  0.80655186  1
  In  In59  1  0.18823821  0.68320252  0.51124130  1
  In  In60  1  0.31398891  0.49512983  0.18122870  1
  In  In61  1  0.30454494  0.16762481  0.84828630  1
  In  In62  1  0.84086726  0.29366113  0.13515051  1
  In  In63  1  0.82130337  0.68827004  0.16218655  1
  In  In64  1  0.63700465  0.85280085  0.81320681  1
  In  In65  1  0.83705304  0.50036358  -0.03545304  1
  In  In66  1  0.14552383  0.85761372  0.01728763  1
  In  In67  1  0.68717219  0.31701855  0.66590461  1
  In  In68  1  0.01315666  0.85280234  0.49794235  1
  In  In69  1  0.35907747  0.50930311  0.54339699  1
  In  In70  1  0.64764893  0.32039444  0.33114446  1
  In  In71  1  0.63903811  0.49910024  0.47478417  1
  Te  Te72  1  0.14260944  0.08536120  0.03552168  1
  Te  Te73  1  0.08133036  0.07650687  0.41854854  1
  Te  Te74  1  0.09795511  0.10883169  0.74841479  1
  Te  Te75  1  0.09867594  0.40756507  0.07033026  1
  Te  Te76  1  0.04973271  0.41261456  0.42773690  1
  Te  Te77  1  0.09847555  0.43901091  0.74548831  1
  Te  Te78  1  0.10644845  0.74937529  0.11460948  1
  Te  Te79  1  0.07004523  0.73318811  0.42430249  1
  Te  Te80  1  0.08107847  0.75859401  0.76055647  1
  Te  Te81  1  0.39943650  0.09467884  0.05214510  1
  Te  Te82  1  0.39823047  0.08790979  0.44805480  1
  Te  Te83  1  0.41419610  0.08484515  0.78360786  1
  Te  Te84  1  0.38887502  0.39488089  0.09687927  1
  Te  Te85  1  0.40892181  0.39982164  0.42600235  1
  Te  Te86  1  0.41918761  0.43136658  0.72500105  1
  Te  Te87  1  0.42569489  0.76212493  0.08051558  1
  Te  Te88  1  0.39195382  0.75380759  0.40642579  1
  Te  Te89  1  0.38954360  0.74765375  0.76203635  1
  Te  Te90  1  0.77282492  0.08749278  0.06285633  1
  Te  Te91  1  0.75643350  0.07589668  0.40023924  1
  Te  Te92  1  0.73354658  0.10200560  0.79736382  1
  Te  Te93  1  0.75932987  0.40889202  0.07360213  1
  Te  Te94  1  0.74611776  0.38968323  0.43432815  1
  Te  Te95  1  0.75828869  0.40320040  0.76352226  1
  Te  Te96  1  0.75042155  0.77382393  0.06253260  1
  Te  Te97  1  0.73394766  0.76998627  0.41500199  1
  Te  Te98  1  0.73955927  0.75783678  0.74157673  1
  Te  Te99  1  0.08112282  0.21546530  0.21729104  1
  Te  Te100  1  0.10776796  0.25140532  0.58343567  1
  Te  Te101  1  0.09148661  0.25433146  0.89966493  1
  Te  Te102  1  0.07509870  0.57135776  0.26710342  1
  Te  Te103  1  0.10070751  0.58346653  0.59147019  1
  Te  Te104  1  0.06232974  0.56813792  0.90640371  1
  Te  Te105  1  0.12194714  0.91246334  0.26300675  1
  Te  Te106  1  0.10845542  0.90878468  0.60192439  1
  Te  Te107  1  0.06589100  0.95292099  0.93507909  1
  Te  Te108  1  0.42018199  0.23802725  0.23956773  1
  Te  Te109  1  0.40530728  0.24571612  0.60361492  1
  Te  Te110  1  0.41809938  0.25833336  0.92239468  1
  Te  Te111  1  0.41107184  0.57245212  0.26751276  1
  Te  Te112  1  0.46082768  0.60456524  0.58680213  1
  Te  Te113  1  0.41909054  0.56742964  0.92958117  1
  Te  Te114  1  0.43823779  0.90394870  0.25106661  1
  Te  Te115  1  0.43255772  0.93049580  0.60857809  1
  Te  Te116  1  0.48773374  0.90553021  0.90630231  1
  Te  Te117  1  0.74570752  0.24457834  0.24405070  1
  Te  Te118  1  0.74839227  0.20398892  0.58556430  1
  Te  Te119  1  0.77478829  0.21391694  0.89816291  1
  Te  Te120  1  0.75798389  0.57398666  0.24775080  1
  Te  Te121  1  0.73433606  0.59477742  0.56343636  1
  Te  Te122  1  0.74259187  0.59791261  0.91384689  1
  Te  Te123  1  0.75297230  0.92786985  0.22090198  1
  Te  Te124  1  0.72773958  0.93970957  0.61237588  1
  Te  Te125  1  0.75939357  0.90159602  0.89900228  1
  Te  Te126  1  0.20335358  0.21602351  0.09597386  1
  Te  Te127  1  0.24000669  0.24756373  0.40740446  1
  Te  Te128  1  0.28281152  0.25665467  0.73271390  1
  Te  Te129  1  0.24837215  0.59905498  0.09058808  1
  Te  Te130  1  0.27324973  0.58263461  0.43434122  1
  Te  Te131  1  0.27462608  0.62280786  0.73474117  1
  Te  Te132  1  0.27606384  0.91108458  0.07632680  1
  Te  Te133  1  0.24168531  0.89622151  0.40809082  1
  Te  Te134  1  0.24042860  0.93674909  0.79517349  1
  Te  Te135  1  0.58394774  0.25387543  0.08689178  1
  Te  Te136  1  0.58802721  0.22722435  0.43400159  1
  Te  Te137  1  0.58106888  0.25364365  0.75307312  1
  Te  Te138  1  0.58491393  0.58969344  0.07614979  1
  Te  Te139  1  0.53916781  0.61852964  0.44790827  1
  Te  Te140  1  0.58229211  0.56955291  0.76737758  1
  Te  Te141  1  0.58114896  0.95031769  0.06760069  1
  Te  Te142  1  0.56777134  0.93758236  0.44209963  1
  Te  Te143  1  0.54084704  0.92550244  0.72252303  1
  Te  Te144  1  0.94192784  0.22454888  0.05321259  1
  Te  Te145  1  0.90863862  0.23124630  0.39569270  1
  Te  Te146  1  0.92390978  0.23991674  0.72663684  1
  Te  Te147  1  0.90859453  0.58951582  0.08145509  1
  Te  Te148  1  0.88265465  0.59350607  0.41946333  1
  Te  Te149  1  0.90866440  0.59799528  0.73473333  1
  Te  Te150  1  0.94514494  0.95852752  0.10688489  1
  Te  Te151  1  0.91806781  0.92117266  0.40103146  1
  Te  Te152  1  0.90830977  0.94585254  0.75967801  1
  Te  Te153  1  0.28028693  0.07257754  0.24642139  1
  Te  Te154  1  0.27334920  0.08467519  0.57733651  1
  Te  Te155  1  0.22771967  0.05617347  0.90796762  1
  Te  Te156  1  0.21551099  0.40604119  0.25422942  1
  Te  Te157  1  0.25080365  0.43170490  0.60309667  1
  Te  Te158  1  0.26484048  0.41295472  0.91819510  1
  Te  Te159  1  0.23491797  0.70513339  0.21958617  1
  Te  Te160  1  0.25679793  0.77501224  0.60181062  1
  Te  Te161  1  0.22384513  0.75888966  0.92453759  1
  Te  Te162  1  0.57857669  0.07756227  0.25503941  1
  Te  Te163  1  0.59742191  0.04147194  0.64225326  1
  Te  Te164  1  0.59513041  0.09287136  0.87867880  1
  Te  Te165  1  0.56700610  0.41357036  0.24362354  1
  Te  Te166  1  0.59252519  0.41520351  0.59222293  1
  Te  Te167  1  0.59326225  0.41052692  0.92517464  1
  Te  Te168  1  0.59658204  0.73956670  0.24926996  1
  Te  Te169  1  0.54700431  0.75018289  0.59435829  1
  Te  Te170  1  0.56795939  0.77187858  0.92106534  1
  Te  Te171  1  0.89855365  0.08051118  0.19520220  1
  Te  Te172  1  0.92671487  0.06875303  0.57445955  1
  Te  Te173  1  0.88630160  0.11047044  0.93499288  1
  Te  Te174  1  0.93082141  0.39531969  0.22587930  1
  Te  Te175  1  0.90388270  0.42168313  0.58757423  1
  Te  Te176  1  0.89875791  0.40014925  0.87709697  1
  Te  Te177  1  0.93298719  0.77178586  0.22218022  1
  Te  Te178  1  0.91510223  0.79742018  0.60203778  1
  Te  Te179  1  0.93162231  0.75916378  0.93903017  1
