# generated using pymatgen
data_In2Te3
_symmetry_space_group_name_H-M   'P 1'
_cell_length_a   19.05105913
_cell_length_b   19.02935086
_cell_length_c   19.01347001
_cell_angle_alpha   89.93760419
_cell_angle_beta   89.96956330
_cell_angle_gamma   89.97218863
_symmetry_Int_Tables_number   1
_chemical_formula_structural   In2Te3
_chemical_formula_sum   'In72 Te108'
_cell_volume   6892.93388332
_cell_formula_units_Z   36
loop_
 _symmetry_equiv_pos_site_id
 _symmetry_equiv_pos_as_xyz
  1  'x, y, z'
loop_
 _atom_site_type_symbol
 _atom_site_label
 _atom_site_symmetry_multiplicity
 _atom_site_fract_x
 _atom_site_fract_y
 _atom_site_fract_z
 _atom_site_occupancy
  In  In0  1  0.19929655  0.81905957  0.65687197  1
  In  In1  1  0.67185087  0.79695816  0.48663557  1
  In  In2  1  0.61561027  0.66061015  0.66520816  1
  In  In3  1  0.15665661  0.84141176  0.33550912  1
  In  In4  1  0.79688039  0.65637490  0.16547728  1
  In  In5  1  0.16205132  0.01195482  0.86475267  1
  In  In6  1  0.66624128  -0.00868491  0.31417166  1
  In  In7  1  0.00099603  0.51195078  0.84138840  1
  In  In8  1  0.64212705  0.16747370  0.49290425  1
  In  In9  1  0.02416297  0.66364718  0.68328612  1
  In  In10  1  0.37083070  0.44566562  0.16170769  1
  In  In11  1  0.46424593  0.37519720  0.47848351  1
  In  In12  1  0.84940460  0.35603452  0.81494250  1
  In  In13  1  0.63948418  0.52511982  0.46437992  1
  In  In14  1  0.67979127  0.84463388  0.82228241  1
  In  In15  1  0.39935509  0.50851025  0.71173858  1
  In  In16  1  0.83636577  -0.02235952  0.49145676  1
  In  In17  1  0.64850874  0.17328348  0.84603697  1
  In  In18  1  0.50703327  -0.01277591  0.81911060  1
  In  In19  1  0.84421354  0.67312382  0.51731276  1
  In  In20  1  0.66116017  0.31998372  -0.01213765  1
  In  In21  1  0.01447664  0.68300491  0.35387631  1
  In  In22  1  0.33809384  0.01011411  0.30588761  1
  In  In23  1  0.65087264  0.33222234  0.32365449  1
  In  In24  1  0.85666163  0.17833948  0.35170704  1
  In  In25  1  0.82918056  0.17014823  0.02855439  1
  In  In26  1  0.20128170  0.51515838  0.67864168  1
  In  In27  1  0.17735343  0.32877688  0.82279485  1
  In  In28  1  0.16666959  0.16606017  0.66947175  1
  In  In29  1  0.01926367  0.85172299  0.81076186  1
  In  In30  1  -0.00074008  -0.00270315  0.32373198  1
  In  In31  1  0.33517450  0.17099920  0.51275573  1
  In  In32  1  0.82702480  0.49047084  0.34950544  1
  In  In33  1  0.86810194  0.82497664  0.02433148  1
  In  In34  1  0.16419138  0.17366228  0.01183631  1
  In  In35  1  0.35270258  0.00792477  0.67324526  1
  In  In36  1  0.62892212  0.48541752  0.14645295  1
  In  In37  1  -0.00199378  0.51521338  0.20553514  1
  In  In38  1  0.19953943  0.35053331  0.50022285  1
  In  In39  1  -0.00852964  0.18256137  0.85602580  1
  In  In40  1  0.84277744  0.83946421  0.28404455  1
  In  In41  1  0.82106850  0.64497297  0.86055468  1
  In  In42  1  0.15335460  0.66652084  0.16524916  1
  In  In43  1  0.33610922  0.64466061  0.32840508  1
  In  In44  1  0.33735033  0.84727632  0.15747610  1
  In  In45  1  0.17282676  0.15766934  0.34611927  1
  In  In46  1  0.16585276  0.48372256  -0.00384855  1
  In  In47  1  0.81732515  0.01946195  0.85160928  1
  In  In48  1  0.35973030  0.21954847  0.14334871  1
  In  In49  1  0.79918925  0.50035918  0.00116377  1
  In  In50  1  0.02219477  0.48304483  0.52369495  1
  In  In51  1  0.31763638  0.66853952  -0.01844142  1
  In  In52  1  0.52715410  0.68222405  0.18136967  1
  In  In53  1  0.33029358  0.83331454  0.84025443  1
  In  In54  1  0.48574376  -0.00852623  0.47597705  1
  In  In55  1  0.50765134  0.17844358  -0.01150586  1
  In  In56  1  0.17598999  0.33221742  0.18295789  1
  In  In57  1  0.67036792  0.35796134  0.64800460  1
  In  In58  1  0.49900160  0.84965211  -0.01194902  1
  In  In59  1  0.82766582  0.82047784  0.67572654  1
  In  In60  1  -0.00178871  0.15965775  0.18149187  1
  In  In61  1  0.01883678  -0.01566093  0.65342929  1
  In  In62  1  0.82720858  0.13916963  0.66545967  1
  In  In63  1  0.47097742  0.66675674  0.83345809  1
  In  In64  1  0.32768934  0.80773205  0.48380852  1
  In  In65  1  0.51293109  0.01093168  0.15200166  1
  In  In66  1  -0.00857335  0.67115993  0.00622877  1
  In  In67  1  0.51305298  0.18002104  0.66548218  1
  In  In68  1  0.68752053  0.15497936  0.17662884  1
  In  In69  1  0.82052823  0.47749546  0.64314004  1
  In  In70  1  0.16341242  -0.00103531  0.19705621  1
  In  In71  1  0.02220219  0.32676624  0.63937656  1
  Te  Te72  1  0.08203960  0.07437065  0.09015046  1
  Te  Te73  1  0.08222238  0.06956391  0.41844684  1
  Te  Te74  1  0.06367208  0.09186703  0.75794673  1
  Te  Te75  1  0.08400078  0.42964319  0.11004075  1
  Te  Te76  1  0.10061182  0.42092026  0.41882562  1
  Te  Te77  1  0.07924883  0.42269654  0.74149402  1
  Te  Te78  1  0.08306686  0.75937082  0.07697325  1
  Te  Te79  1  0.11652313  0.74438765  0.43753414  1
  Te  Te80  1  0.11934253  0.74711632  0.76462391  1
  Te  Te81  1  0.41380436  0.09469827  0.07392815  1
  Te  Te82  1  0.41318840  0.10040789  0.40180217  1
  Te  Te83  1  0.42650605  0.10441701  0.76354247  1
  Te  Te84  1  0.44726649  0.40266639  0.03549831  1
  Te  Te85  1  0.37312584  0.45186518  0.39036080  1
  Te  Te86  1  0.39577359  0.38966479  0.80239027  1
  Te  Te87  1  0.41811577  0.75184289  0.07201231  1
  Te  Te88  1  0.42622692  0.74347709  0.39388833  1
  Te  Te89  1  0.39496001  0.75101898  0.73799154  1
  Te  Te90  1  0.74755816  0.06316345  0.08151542  1
  Te  Te91  1  0.74403783  0.07897068  0.41962403  1
  Te  Te92  1  0.72015550  0.07478907  0.74974815  1
  Te  Te93  1  0.74221791  0.39540120  0.09142280  1
  Te  Te94  1  0.72896218  0.40733142  0.42973047  1
  Te  Te95  1  0.73471010  0.43819881  0.76279562  1
  Te  Te96  1  0.75503709  0.73710809  0.05179185  1
  Te  Te97  1  0.77723224  0.73709209  0.40024215  1
  Te  Te98  1  0.74387119  0.71501628  0.74562814  1
  Te  Te99  1  0.08065751  0.24997948  0.26991683  1
  Te  Te100  1  0.10255185  0.23741587  0.55258657  1
  Te  Te101  1  0.08081013  0.27655879  0.92787436  1
  Te  Te102  1  0.10710289  0.58462071  0.28378650  1
  Te  Te103  1  0.11059136  0.59049468  0.58321316  1
  Te  Te104  1  0.09478301  0.59503366  0.92103824  1
  Te  Te105  1  0.06257275  0.88994584  0.22873513  1
  Te  Te106  1  0.10626731  0.89853122  0.57591892  1
  Te  Te107  1  0.06114688  0.92724564  0.92751178  1
  Te  Te108  1  0.42965756  0.32113284  0.22333390  1
  Te  Te109  1  0.42230707  0.26932734  0.58584215  1
  Te  Te110  1  0.43809660  0.29011767  0.91598284  1
  Te  Te111  1  0.41862457  0.58378416  0.21754073  1
  Te  Te112  1  0.38987888  0.57691260  0.57942184  1
  Te  Te113  1  0.42365963  0.57719089  0.94015363  1
  Te  Te114  1  0.43846121  0.91480757  0.24708522  1
  Te  Te115  1  0.40640089  0.90844481  0.57355689  1
  Te  Te116  1  0.40187192  0.94103169  0.91793117  1
  Te  Te117  1  0.76435333  0.25574512  0.25877514  1
  Te  Te118  1  0.73792115  0.23614037  0.58794788  1
  Te  Te119  1  0.77107661  0.25001719  0.89679756  1
  Te  Te120  1  0.73160100  0.54994729  0.24803190  1
  Te  Te121  1  0.73346420  0.58655107  0.57443323  1
  Te  Te122  1  0.70610320  0.57794364  0.91957357  1
  Te  Te123  1  0.71617963  0.88842280  0.22313305  1
  Te  Te124  1  0.74266655  0.90044864  0.58094211  1
  Te  Te125  1  0.76865667  0.90095863  0.92991547  1
  Te  Te126  1  0.25404459  0.28669356  0.05965134  1
  Te  Te127  1  0.27224103  0.25569471  0.40437932  1
  Te  Te128  1  0.26480610  0.24770395  0.73885066  1
  Te  Te129  1  0.24495197  0.57847911  0.08379299  1
  Te  Te130  1  0.29831041  0.56914938  0.45380686  1
  Te  Te131  1  0.28165826  0.56549862  0.79127122  1
  Te  Te132  1  0.24545377  0.93934081  0.09200206  1
  Te  Te133  1  0.26262585  0.92447249  0.40396415  1
  Te  Te134  1  0.24059601  0.93691899  0.75294194  1
  Te  Te135  1  0.59122938  0.24246308  0.09656555  1
  Te  Te136  1  0.55404391  0.26281250  0.41849705  1
  Te  Te137  1  0.59090919  0.27681181  0.75079660  1
  Te  Te138  1  0.59367397  0.60746204  0.07320158  1
  Te  Te139  1  0.54487974  0.62263366  0.40100777  1
  Te  Te140  1  0.54296139  0.56145135  0.74711213  1
  Te  Te141  1  0.58941469  0.89971235  0.09307070  1
  Te  Te142  1  0.58936723  0.90439401  0.41065281  1
  Te  Te143  1  0.57741819  0.89445221  0.73193635  1
  Te  Te144  1  0.92926544  0.25239751  0.09231869  1
  Te  Te145  1  0.91125632  0.26686501  0.44971934  1
  Te  Te146  1  0.91866544  0.24911091  0.72932477  1
  Te  Te147  1  0.90989974  0.57092640  0.08455303  1
  Te  Te148  1  0.92892527  0.57621894  0.43613858  1
  Te  Te149  1  0.91574308  0.56612194  0.72656515  1
  Te  Te150  1  0.90409895  0.88876404  0.15107461  1
  Te  Te151  1  0.92527261  0.89375472  0.40632346  1
  Te  Te152  1  0.89893432  0.93491049  0.74674168  1
  Te  Te153  1  0.26338001  0.11798831  0.22548225  1
  Te  Te154  1  0.24799175  0.07044609  0.58289059  1
  Te  Te155  1  0.25005646  0.11930153  0.90685694  1
  Te  Te156  1  0.26027524  0.42692727  0.26012262  1
  Te  Te157  1  0.28243151  0.41714937  0.60355356  1
  Te  Te158  1  0.26212622  0.43471690  0.88991692  1
  Te  Te159  1  0.25371026  0.75663729  0.24845041  1
  Te  Te160  1  0.29599912  0.71673763  0.60083171  1
  Te  Te161  1  0.23708118  0.78277503  0.94044343  1
  Te  Te162  1  0.57447307  0.09834881  0.26008057  1
  Te  Te163  1  0.56883369  0.06856580  0.58020022  1
  Te  Te164  1  0.58624882  0.06301565  0.92664701  1
  Te  Te165  1  0.55853173  0.43256952  0.26603205  1
  Te  Te166  1  0.56944531  0.43857201  0.56886345  1
  Te  Te167  1  0.55733743  0.40881842  0.93278738  1
  Te  Te168  1  0.61824482  0.69722534  0.29549865  1
  Te  Te169  1  0.55689719  0.73705464  0.55714038  1
  Te  Te170  1  0.57480812  0.76020216  0.89376872  1
  Te  Te171  1  0.89350333  0.07331492  0.24905954  1
  Te  Te172  1  0.92443368  0.07213972  0.57064867  1
  Te  Te173  1  0.92244164  0.08000958  0.94047766  1
  Te  Te174  1  0.91817130  0.41153565  0.26820326  1
  Te  Te175  1  0.90186453  0.38306086  0.55407953  1
  Te  Te176  1  0.91667737  0.42488523  0.93014875  1
  Te  Te177  1  0.91705690  0.71163814  0.24264303  1
  Te  Te178  1  0.94028851  0.75823297  0.59677001  1
  Te  Te179  1  0.92830738  0.74634466  0.88292902  1
