# generated using pymatgen
data_In2Te3
_symmetry_space_group_name_H-M   'P 1'
_cell_length_a   18.81046978
_cell_length_b   18.80724680
_cell_length_c   18.80410342
_cell_angle_alpha   90.02307780
_cell_angle_beta   90.09258507
_cell_angle_gamma   89.95137756
_symmetry_Int_Tables_number   1
_chemical_formula_structural   In2Te3
_chemical_formula_sum   'In72 Te108'
_cell_volume   6652.37523619
_cell_formula_units_Z   36
loop_
 _symmetry_equiv_pos_site_id
 _symmetry_equiv_pos_as_xyz
  1  'x, y, z'
loop_
 _atom_site_type_symbol
 _atom_site_label
 _atom_site_symmetry_multiplicity
 _atom_site_fract_x
 _atom_site_fract_y
 _atom_site_fract_z
 _atom_site_occupancy
  In  In0  1  0.49208432  0.00934379  0.47785669  1
  In  In1  1  -0.01441433  0.48481376  0.85398480  1
  In  In2  1  0.67271418  0.81324998  0.84609613  1
  In  In3  1  0.30885985  0.00344246  0.66558260  1
  In  In4  1  0.15904972  0.83777029  0.65402196  1
  In  In5  1  0.68281844  0.63376184  0.32334066  1
  In  In6  1  0.82481187  0.66158074  0.84049748  1
  In  In7  1  0.32313550  0.82474942  0.50626574  1
  In  In8  1  0.16942687  0.83457148  0.30698090  1
  In  In9  1  0.66133294  0.34664843  0.70317958  1
  In  In10  1  0.18651956  0.66731022  0.82925335  1
  In  In11  1  0.16844904  0.50994274  0.66211639  1
  In  In12  1  0.01428342  0.02533722  0.01641692  1
  In  In13  1  0.15948433  0.33278720  0.50236919  1
  In  In14  1  0.51234573  0.46297393  -0.00671689  1
  In  In15  1  0.65701119  0.85832644  0.51595169  1
  In  In16  1  0.02364572  0.65239335  0.35495163  1
  In  In17  1  0.18776522  0.47499834  -0.01821516  1
  In  In18  1  0.65897843  0.64961897  0.67952482  1
  In  In19  1  -0.00545829  0.00020366  0.32547020  1
  In  In20  1  -0.01324787  0.85006287  0.82613245  1
  In  In21  1  0.49600355  0.83938174  0.70023139  1
  In  In22  1  0.02167806  0.50078963  0.49972206  1
  In  In23  1  0.35416271  0.84268809  0.85501940  1
  In  In24  1  0.69840829  0.01688957  0.66553796  1
  In  In25  1  0.49648384  0.32964146  0.51154049  1
  In  In26  1  0.51875991  0.66067700  0.83289902  1
  In  In27  1  0.14853583  0.04563796  0.83901010  1
  In  In28  1  0.00019041  0.84869283  0.16420536  1
  In  In29  1  0.68108256  0.16132357  0.49283417  1
  In  In30  1  0.15481080  0.67066887  0.18364501  1
  In  In31  1  0.83621231  0.15933576  0.31932639  1
  In  In32  1  0.00162716  0.15628384  0.50799817  1
  In  In33  1  -0.00946666  0.66044446  0.02216072  1
  In  In34  1  0.30573496  0.86102423  0.14525543  1
  In  In35  1  0.16050529  0.49483530  0.31216477  1
  In  In36  1  0.67065981  0.01019674  0.01247667  1
  In  In37  1  0.36184319  0.49026124  0.15566693  1
  In  In38  1  0.63613935  0.35639903  0.30052230  1
  In  In39  1  0.16347572  -0.00375437  0.51094638  1
  In  In40  1  0.84239037  0.68064668  0.51133208  1
  In  In41  1  0.49833158  0.15814155  0.30615415  1
  In  In42  1  0.33147507  0.17946670  0.14103838  1
  In  In43  1  0.50877762  0.64159075  0.49331400  1
  In  In44  1  0.32266079  0.02963030  0.30543631  1
  In  In45  1  0.83693754  0.02217987  0.14668283  1
  In  In46  1  0.17414432  0.64986987  0.50941588  1
  In  In47  1  0.33301665  0.49571154  0.49811614  1
  In  In48  1  0.49282184  0.65480932  0.15847204  1
  In  In49  1  0.65069239  0.65823849  -0.00166191  1
  In  In50  1  -0.01702763  0.32455640  0.68016615  1
  In  In51  1  0.49457208  0.83857255  0.33259743  1
  In  In52  1  0.50096345  0.00310482  0.86219372  1
  In  In53  1  0.66625593  0.83771603  0.15272858  1
  In  In54  1  0.81840904  0.49971636  0.67257718  1
  In  In55  1  0.67190201  0.17567524  0.15059310  1
  In  In56  1  0.32813023  0.32071673  0.33045149  1
  In  In57  1  0.83072381  0.83322660  0.32191666  1
  In  In58  1  0.33547606  0.66566833  -0.00164784  1
  In  In59  1  0.81770140  0.31487728  0.49282836  1
  In  In60  1  0.85662153  0.44956326  0.31939087  1
  In  In61  1  0.49586945  0.19317331  0.67149594  1
  In  In62  1  0.33071129  0.16419356  0.84532667  1
  In  In63  1  0.01050793  0.85452611  0.52942246  1
  In  In64  1  0.14982937  0.29788393  0.13735947  1
  In  In65  1  0.86363142  0.16035537  0.68756605  1
  In  In66  1  0.50366180  0.18644103  0.00836690  1
  In  In67  1  -0.01739251  0.31640384  0.00105820  1
  In  In68  1  0.48387293  0.46334647  0.69242880  1
  In  In69  1  0.82885424  0.65560789  0.16156278  1
  In  In70  1  0.16819756  0.30635916  0.84667218  1
  In  In71  1  0.84117488  0.02285761  0.85235231  1
  Te  Te72  1  0.12735529  0.08630402  0.09293642  1
  Te  Te73  1  0.09176733  0.08453555  0.40706492  1
  Te  Te74  1  0.06580672  0.08702329  0.72613515  1
  Te  Te75  1  0.08101120  0.41783442  0.07010423  1
  Te  Te76  1  0.07215188  0.40296503  0.39603795  1
  Te  Te77  1  0.08286633  0.41763796  0.75323739  1
  Te  Te78  1  0.09354679  0.76294424  0.07910529  1
  Te  Te79  1  0.09866374  0.76693135  0.42750938  1
  Te  Te80  1  0.08231949  0.75140446  0.75468948  1
  Te  Te81  1  0.43005078  0.08352245  0.08569635  1
  Te  Te82  1  0.39916703  0.10936393  0.41338527  1
  Te  Te83  1  0.42254472  0.06942202  0.74770591  1
  Te  Te84  1  0.39424970  0.39012073  0.05172454  1
  Te  Te85  1  0.42262037  0.41397137  0.40647648  1
  Te  Te86  1  0.40958062  0.37485745  0.78412830  1
  Te  Te87  1  0.41222987  0.76246537  0.08816867  1
  Te  Te88  1  0.41540488  0.74047255  0.41848541  1
  Te  Te89  1  0.40645668  0.73307614  0.75829018  1
  Te  Te90  1  0.77416674  0.12061798  0.04866032  1
  Te  Te91  1  0.76535263  0.06944713  0.41449431  1
  Te  Te92  1  0.74370886  0.11382403  0.77278347  1
  Te  Te93  1  0.71797720  0.37284784  0.06800815  1
  Te  Te94  1  0.73709168  0.41147381  0.40947171  1
  Te  Te95  1  0.78483370  0.39519851  0.77104628  1
  Te  Te96  1  0.75502116  0.74926826  0.06688269  1
  Te  Te97  1  0.73934554  0.75381246  0.41646974  1
  Te  Te98  1  0.75673406  0.75226396  0.73505413  1
  Te  Te99  1  0.04472322  0.25772927  0.23363382  1
  Te  Te100  1  0.08526764  0.24227999  0.60263986  1
  Te  Te101  1  0.07736413  0.22163518  0.93044792  1
  Te  Te102  1  0.05253528  0.56705253  0.23066336  1
  Te  Te103  1  0.06156741  0.60483417  0.60134634  1
  Te  Te104  1  0.08899188  0.58575162  0.92127917  1
  Te  Te105  1  0.10091339  0.94420776  0.22875797  1
  Te  Te106  1  0.06616734  0.96594015  0.63087613  1
  Te  Te107  1  0.08119057  0.93033534  0.91490039  1
  Te  Te108  1  0.42821983  0.26708939  0.22955339  1
  Te  Te109  1  0.39408264  0.25380491  0.58505912  1
  Te  Te110  1  0.43103500  0.26558169  0.89644933  1
  Te  Te111  1  0.42365628  0.57330731  0.26108573  1
  Te  Te112  1  0.42171765  0.57158667  0.59676054  1
  Te  Te113  1  0.42930699  0.57377779  0.92241219  1
  Te  Te114  1  0.41263400  0.92619589  0.23751215  1
  Te  Te115  1  0.42392194  0.91409599  0.58036143  1
  Te  Te116  1  0.40751722  0.93772724  0.95617434  1
  Te  Te117  1  0.74869458  0.26538257  0.25052587  1
  Te  Te118  1  0.73936240  0.24823841  0.60535358  1
  Te  Te119  1  0.72798372  0.27874340  0.95657811  1
  Te  Te120  1  0.76261235  0.53825324  0.23457789  1
  Te  Te121  1  0.73961844  0.58134711  0.56944689  1
  Te  Te122  1  0.73924514  0.57160978  0.91924999  1
  Te  Te123  1  0.75216247  0.93276253  0.23830669  1
  Te  Te124  1  0.77152729  0.91358628  0.58956308  1
  Te  Te125  1  0.75357178  0.91574993  0.92341735  1
  Te  Te126  1  0.26379113  0.27283546  0.04490435  1
  Te  Te127  1  0.22616087  0.24421111  0.40406104  1
  Te  Te128  1  0.23696416  0.22213655  0.74687915  1
  Te  Te129  1  0.24340069  0.58078959  0.08875126  1
  Te  Te130  1  0.25242663  0.58243731  0.39878576  1
  Te  Te131  1  0.26787878  0.56807626  0.75582423  1
  Te  Te132  1  0.23038252  0.97525819  0.07491944  1
  Te  Te133  1  0.25993563  0.92055754  0.40561152  1
  Te  Te134  1  0.24533397  0.90733678  0.76217357  1
  Te  Te135  1  0.58711861  0.28788733  0.08935196  1
  Te  Te136  1  0.58335237  0.24632168  0.41076674  1
  Te  Te137  1  0.57109967  0.25727903  0.78214946  1
  Te  Te138  1  0.59292342  0.55176892  0.10087239  1
  Te  Te139  1  0.58594615  0.55535331  0.40280623  1
  Te  Te140  1  0.59537905  0.54604649  0.76919709  1
  Te  Te141  1  0.57199044  0.92666898  0.08397540  1
  Te  Te142  1  0.59664014  0.93339086  0.39666139  1
  Te  Te143  1  0.60332423  0.92907968  0.75918331  1
  Te  Te144  1  0.91475699  0.25347131  0.11917364  1
  Te  Te145  1  0.92487656  0.24776459  0.41015005  1
  Te  Te146  1  0.91649083  0.25242646  0.79112722  1
  Te  Te147  1  0.89591188  0.55853111  0.07122898  1
  Te  Te148  1  0.90285556  0.57433990  0.41052231  1
  Te  Te149  1  0.92042716  0.58047415  0.75243643  1
  Te  Te150  1  0.90962603  0.91646021  0.06497116  1
  Te  Te151  1  0.91640171  0.91227809  0.42095235  1
  Te  Te152  1  0.89442984  0.93358105  0.74689455  1
  Te  Te153  1  0.23073606  0.12554317  0.23936993  1
  Te  Te154  1  0.25411250  0.09777161  0.56830919  1
  Te  Te155  1  0.26239588  0.06390617  0.93516059  1
  Te  Te156  1  0.24513839  0.40291748  0.22665781  1
  Te  Te157  1  0.25771236  0.40497549  0.59470630  1
  Te  Te158  1  0.26817374  0.41935882  0.86814012  1
  Te  Te159  1  0.27340630  0.74375299  0.24548330  1
  Te  Te160  1  0.25978037  0.73023767  0.60630234  1
  Te  Te161  1  0.24343720  0.76736721  0.93088317  1
  Te  Te162  1  0.60154562  0.07878762  0.23869678  1
  Te  Te163  1  0.57707348  0.08145888  0.58516223  1
  Te  Te164  1  0.59769352  0.10586092  0.91704525  1
  Te  Te165  1  0.55958219  0.45635095  0.22307769  1
  Te  Te166  1  0.59076645  0.42092010  0.58851805  1
  Te  Te167  1  0.62423873  0.39035644  0.92363737  1
  Te  Te168  1  0.59274172  0.74146223  0.25374671  1
  Te  Te169  1  0.57429091  0.75242957  0.59274483  1
  Te  Te170  1  0.55990614  0.76624825  0.93528264  1
  Te  Te171  1  0.94376854  0.10074382  0.22199043  1
  Te  Te172  1  0.88379207  0.08474846  0.56236305  1
  Te  Te173  1  0.94118291  0.11430654  0.91855417  1
  Te  Te174  1  0.93810522  0.37231226  0.21547327  1
  Te  Te175  1  0.91592522  0.41558010  0.57096525  1
  Te  Te176  1  0.88644254  0.41325829  0.93735400  1
  Te  Te177  1  0.93301008  0.74084211  0.25438546  1
  Te  Te178  1  0.93001818  0.75520327  0.60297934  1
  Te  Te179  1  0.91724579  0.75086083  0.92273040  1
