# generated using pymatgen
data_In2Te3
_symmetry_space_group_name_H-M   'P 1'
_cell_length_a   18.81338388
_cell_length_b   18.81697463
_cell_length_c   18.81678094
_cell_angle_alpha   90.00595844
_cell_angle_beta   89.94050032
_cell_angle_gamma   89.90900790
_symmetry_Int_Tables_number   1
_chemical_formula_structural   In2Te3
_chemical_formula_sum   'In72 Te108'
_cell_volume   6661.33479120
_cell_formula_units_Z   36
loop_
 _symmetry_equiv_pos_site_id
 _symmetry_equiv_pos_as_xyz
  1  'x, y, z'
loop_
 _atom_site_type_symbol
 _atom_site_label
 _atom_site_symmetry_multiplicity
 _atom_site_fract_x
 _atom_site_fract_y
 _atom_site_fract_z
 _atom_site_occupancy
  In  In0  1  0.84230579  0.33119833  0.83481700  1
  In  In1  1  0.48495984  -0.00734788  0.49176247  1
  In  In2  1  0.81485849  0.65696007  0.49528222  1
  In  In3  1  0.81944984  0.18621052  -0.00592335  1
  In  In4  1  0.01475679  0.66828573  0.33559662  1
  In  In5  1  0.32019022  0.33539167  0.67654960  1
  In  In6  1  0.83732310  0.49035680  0.00393449  1
  In  In7  1  0.47602886  0.85187542  0.65532923  1
  In  In8  1  0.66839553  0.51049957  0.13443364  1
  In  In9  1  0.83261563  0.17906248  0.67827650  1
  In  In10  1  0.51881159  0.85771168  0.00749555  1
  In  In11  1  0.68666928  0.48800078  0.84547128  1
  In  In12  1  0.65958506  0.49205194  0.49799671  1
  In  In13  1  0.32935845  0.83905223  0.16709691  1
  In  In14  1  0.17238314  0.34622467  0.50526244  1
  In  In15  1  0.03259298  0.31548453  -0.03161779  1
  In  In16  1  0.64757060  0.18275825  0.14375825  1
  In  In17  1  0.85104386  0.01175084  0.49003135  1
  In  In18  1  0.48341683  0.50065444  0.33336633  1
  In  In19  1  0.49772728  0.80767687  0.32513934  1
  In  In20  1  0.16490277  0.65925868  0.18905194  1
  In  In21  1  0.32310585  0.15669739  0.51506920  1
  In  In22  1  0.51487271  0.19109080  0.70322186  1
  In  In23  1  0.66562462  0.01631501  0.29345797  1
  In  In24  1  0.16059914  0.81653352  0.67079390  1
  In  In25  1  0.81808974  0.80593657  0.01670479  1
  In  In26  1  0.67481221  0.82739582  0.84672179  1
  In  In27  1  0.36036431  0.16887152  0.14206409  1
  In  In28  1  0.50314688  0.03293467  0.85079693  1
  In  In29  1  0.66720612  0.19024272  0.50795403  1
  In  In30  1  0.32102975  0.83526125  0.83052648  1
  In  In31  1  0.14665834  -0.00970673  0.15889221  1
  In  In32  1  0.86729899  0.17385186  0.33548403  1
  In  In33  1  0.65151394  0.65232362  0.30879851  1
  In  In34  1  0.85508925  0.64283514  0.82430190  1
  In  In35  1  0.29619552  0.63152288  0.66988640  1
  In  In36  1  0.83908825  -0.00600479  0.83804433  1
  In  In37  1  0.64115916  0.82906481  0.51153762  1
  In  In38  1  0.19224784  0.83335890  -0.00022634  1
  In  In39  1  0.17103798  0.17083621  0.34698308  1
  In  In40  1  0.16093905  0.49550601  -0.01376229  1
  In  In41  1  -0.00295988  0.65395879  -0.00860016  1
  In  In42  1  0.85800115  0.83836122  0.68477476  1
  In  In43  1  0.82646435  0.01436408  0.18196178  1
  In  In44  1  0.17464692  0.00290185  0.51155558  1
  In  In45  1  0.00704410  0.15762247  0.52271418  1
  In  In46  1  0.50991043  0.49151208  -0.01757620  1
  In  In47  1  0.02123301  0.81144789  0.51074743  1
  In  In48  1  0.84351742  0.50851367  0.34738845  1
  In  In49  1  0.02941613  0.37487211  0.66686753  1
  In  In50  1  -0.01209140  0.15921130  0.15517075  1
  In  In51  1  0.31528665  -0.00446009  0.33308577  1
  In  In52  1  0.67273389  -0.00251602  0.66551960  1
  In  In53  1  0.66751342  0.33189978  0.33916072  1
  In  In54  1  0.00135767  0.83714459  0.18222518  1
  In  In55  1  0.18431462  0.34901923  0.15603273  1
  In  In56  1  0.00741599  0.31737364  0.36273855  1
  In  In57  1  0.47616747  0.49240218  0.67122757  1
  In  In58  1  0.50724834  0.31560987  0.15410728  1
  In  In59  1  0.33053859  0.33483902  -0.02395536  1
  In  In60  1  0.32537308  0.50298148  0.18569650  1
  In  In61  1  0.33143347  0.16280294  0.82951768  1
  In  In62  1  0.66807334  0.65953765  0.63961537  1
  In  In63  1  0.00122261  0.00327399  -0.01466529  1
  In  In64  1  0.33837773  0.67703431  -0.02372729  1
  In  In65  1  0.83011629  0.84627682  0.32042194  1
  In  In66  1  0.81796455  0.36353542  0.16766278  1
  In  In67  1  0.04149934  0.63059190  0.65603306  1
  In  In68  1  0.50150199  0.66366963  0.83992608  1
  In  In69  1  0.17136203  0.01878908  0.83671961  1
  In  In70  1  0.49699899  0.35156063  0.48871687  1
  In  In71  1  0.32257296  0.65314387  0.35889705  1
  Te  Te72  1  0.09216655  0.09821957  0.06245058  1
  Te  Te73  1  0.07669696  0.07437694  0.41603485  1
  Te  Te74  1  0.06140886  0.10921813  0.79639445  1
  Te  Te75  1  0.07059682  0.41586118  0.08030509  1
  Te  Te76  1  0.07989811  0.42898056  0.42370986  1
  Te  Te77  1  0.11321179  0.43855056  0.77470041  1
  Te  Te78  1  0.08828517  0.75470594  0.08197812  1
  Te  Te79  1  0.11654722  0.72995362  0.42877122  1
  Te  Te80  1  0.06673386  0.73733126  0.75374736  1
  Te  Te81  1  0.46094657  0.06962508  0.08877603  1
  Te  Te82  1  0.40911822  0.09277231  0.40529465  1
  Te  Te83  1  0.42091182  0.07542747  0.73130907  1
  Te  Te84  1  0.40822645  0.42004708  0.08437152  1
  Te  Te85  1  0.39196427  0.43501588  0.42818287  1
  Te  Te86  1  0.41847861  0.39801549  0.76952593  1
  Te  Te87  1  0.41927148  0.75775444  0.07537636  1
  Te  Te88  1  0.41224853  0.74940117  0.42816337  1
  Te  Te89  1  0.40951541  0.74178085  0.74623502  1
  Te  Te90  1  0.74290921  0.08274595  0.07478946  1
  Te  Te91  1  0.74807564  0.08923718  0.40828969  1
  Te  Te92  1  0.74157487  0.08725604  0.76427587  1
  Te  Te93  1  0.72400291  0.39452474  0.05283454  1
  Te  Te94  1  0.76540097  0.40547036  0.42926332  1
  Te  Te95  1  0.76281156  0.41618593  0.74212577  1
  Te  Te96  1  0.72047975  0.75863914  0.11318780  1
  Te  Te97  1  0.73362965  0.75262911  0.40552605  1
  Te  Te98  1  0.74949770  0.74299157  0.74300437  1
  Te  Te99  1  0.08231526  0.24610844  0.24301355  1
  Te  Te100  1  0.09692031  0.25222102  0.59907630  1
  Te  Te101  1  0.11591993  0.22987958  0.87806052  1
  Te  Te102  1  0.07131123  0.56329563  0.24657400  1
  Te  Te103  1  0.13672384  0.55984016  0.56580189  1
  Te  Te104  1  0.07505404  0.57461879  0.89242936  1
  Te  Te105  1  0.10153632  0.90241521  0.26755245  1
  Te  Te106  1  0.07534165  0.92329752  0.59740611  1
  Te  Te107  1  0.09101219  0.90545466  0.91150254  1
  Te  Te108  1  0.40057434  0.26763943  0.24319849  1
  Te  Te109  1  0.42601724  0.25083096  0.58941758  1
  Te  Te110  1  0.42703842  0.23647250  0.91879880  1
  Te  Te111  1  0.41934601  0.60570814  0.24384564  1
  Te  Te112  1  0.39775829  0.57271257  0.57692556  1
  Te  Te113  1  0.40184029  0.56372838  0.89736331  1
  Te  Te114  1  0.42400668  0.92090041  0.25331789  1
  Te  Te115  1  0.37908264  0.92029799  0.56669146  1
  Te  Te116  1  0.41713292  0.92146258  0.91187284  1
  Te  Te117  1  0.75841776  0.23817692  0.24674534  1
  Te  Te118  1  0.74502696  0.27154682  0.60185633  1
  Te  Te119  1  0.72783132  0.25034409  0.89361459  1
  Te  Te120  1  0.76291379  0.57677893  0.23765972  1
  Te  Te121  1  0.76378942  0.55097977  0.59463312  1
  Te  Te122  1  0.75401665  0.59685249  0.92861805  1
  Te  Te123  1  0.73066111  0.89786896  0.21485775  1
  Te  Te124  1  0.75903971  0.90661230  0.57445560  1
  Te  Te125  1  0.74662127  0.92297996  0.93732714  1
  Te  Te126  1  0.24694553  0.24412401  0.06627582  1
  Te  Te127  1  0.26728139  0.26253030  0.41794496  1
  Te  Te128  1  0.22891967  0.24690153  0.75835680  1
  Te  Te129  1  0.25037983  0.59094150  0.07358539  1
  Te  Te130  1  0.20569736  0.59109774  0.42757649  1
  Te  Te131  1  0.22363760  0.54860526  0.76881441  1
  Te  Te132  1  0.26687405  0.94327574  0.07497282  1
  Te  Te133  1  0.25895784  0.90566096  0.43622138  1
  Te  Te134  1  0.24782762  0.92816046  0.73811618  1
  Te  Te135  1  0.55885248  0.24035444  0.03164743  1
  Te  Te136  1  0.56512287  0.24141427  0.40438771  1
  Te  Te137  1  0.61312055  0.26230815  0.78482173  1
  Te  Te138  1  0.55884031  0.59068109  0.07946154  1
  Te  Te139  1  0.57181428  0.59008080  0.42304006  1
  Te  Te140  1  0.59300660  0.58093928  0.74898597  1
  Te  Te141  1  0.57148226  0.96155790  0.09702875  1
  Te  Te142  1  0.59378576  0.92638031  0.40336716  1
  Te  Te143  1  0.58242798  0.90841740  0.75319731  1
  Te  Te144  1  0.91502907  0.27070694  0.07916687  1
  Te  Te145  1  0.90628886  0.25359317  0.45959892  1
  Te  Te146  1  0.94177704  0.26537476  0.73978835  1
  Te  Te147  1  0.90930783  0.58687010  0.08885148  1
  Te  Te148  1  0.93706476  0.58370847  0.43999483  1
  Te  Te149  1  0.92906866  0.55359004  0.72773915  1
  Te  Te150  1  0.91607181  0.92405286  0.08605330  1
  Te  Te151  1  0.93025924  0.90153510  0.42022909  1
  Te  Te152  1  0.94614762  0.92384589  0.76395195  1
  Te  Te153  1  0.24477569  0.09357178  0.23616175  1
  Te  Te154  1  0.22597295  0.10109526  0.60979493  1
  Te  Te155  1  0.27354438  0.07018195  0.93001946  1
  Te  Te156  1  0.23208698  0.42755693  0.27020163  1
  Te  Te157  1  0.24698295  0.44117682  0.59692641  1
  Te  Te158  1  0.23340577  0.40794532  0.88543068  1
  Te  Te159  1  0.24976342  0.75757679  0.26622590  1
  Te  Te160  1  0.25308439  0.74234795  0.58287624  1
  Te  Te161  1  0.22632781  0.73154672  0.88936169  1
  Te  Te162  1  0.55756398  0.09825380  0.23053356  1
  Te  Te163  1  0.58027751  0.08254449  0.57945365  1
  Te  Te164  1  0.58337706  0.10986895  0.94548790  1
  Te  Te165  1  0.59061538  0.42451795  0.24567985  1
  Te  Te166  1  0.58455699  0.40725054  0.59979057  1
  Te  Te167  1  0.56701097  0.40108671  0.87706218  1
  Te  Te168  1  0.58766140  0.75244873  0.21750085  1
  Te  Te169  1  0.54884767  0.73376888  0.58295950  1
  Te  Te170  1  0.59103380  0.73889604  0.93682120  1
  Te  Te171  1  0.94443051  0.06177456  0.26503110  1
  Te  Te172  1  0.91971535  0.06942477  0.61163522  1
  Te  Te173  1  0.91967524  0.10865437  0.90756149  1
  Te  Te174  1  0.92390756  0.40821909  0.26396528  1
  Te  Te175  1  0.93119059  0.46138497  0.59983711  1
  Te  Te176  1  0.93720627  0.42224611  0.91136895  1
  Te  Te177  1  0.90738101  0.73705617  0.24697744  1
  Te  Te178  1  0.91480870  0.73247658  0.59017726  1
  Te  Te179  1  0.91433410  0.75608403  0.90975444  1
