# generated using pymatgen
data_In2Te3
_symmetry_space_group_name_H-M   'P 1'
_cell_length_a   18.90892174
_cell_length_b   18.89425959
_cell_length_c   18.90968590
_cell_angle_alpha   89.89501112
_cell_angle_beta   89.93180890
_cell_angle_gamma   90.03773752
_symmetry_Int_Tables_number   1
_chemical_formula_structural   In2Te3
_chemical_formula_sum   'In72 Te108'
_cell_volume   6755.84731273
_cell_formula_units_Z   36
loop_
 _symmetry_equiv_pos_site_id
 _symmetry_equiv_pos_as_xyz
  1  'x, y, z'
loop_
 _atom_site_type_symbol
 _atom_site_label
 _atom_site_symmetry_multiplicity
 _atom_site_fract_x
 _atom_site_fract_y
 _atom_site_fract_z
 _atom_site_occupancy
  In  In0  1  0.31249279  0.14943946  0.15402395  1
  In  In1  1  0.48793808  0.84945366  0.31329641  1
  In  In2  1  0.85981531  0.32417774  0.47854831  1
  In  In3  1  0.15521795  0.34248197  0.17370184  1
  In  In4  1  0.17400209  0.50378318  -0.01042398  1
  In  In5  1  0.68333320  0.65919140  0.68330002  1
  In  In6  1  0.17621015  0.83903879  0.69111166  1
  In  In7  1  -0.01585084  0.00330819  0.66478157  1
  In  In8  1  0.32028891  0.83030849  0.18071526  1
  In  In9  1  -0.01420237  0.31752812  0.32193896  1
  In  In10  1  0.34644199  0.34202118  0.32781221  1
  In  In11  1  0.33276579  0.66605340  0.00695183  1
  In  In12  1  0.83201512  0.17206247  0.65947482  1
  In  In13  1  0.64851486  0.18047924  0.50069736  1
  In  In14  1  0.32131889  0.31957153  0.66148435  1
  In  In15  1  0.15786013  0.16465112  0.66305313  1
  In  In16  1  0.19692678  0.68500758  0.50452827  1
  In  In17  1  0.17609037  0.16229707  0.32104768  1
  In  In18  1  0.67231030  -0.00112830  0.03256614  1
  In  In19  1  0.14999418  0.52575769  0.34682869  1
  In  In20  1  0.50772624  0.51000213  0.65802929  1
  In  In21  1  0.49977896  0.34765822  0.15455978  1
  In  In22  1  0.47844784  0.26765577  0.81298754  1
  In  In23  1  0.49186505  0.13646880  0.33648105  1
  In  In24  1  0.81236041  0.83839631  0.67891762  1
  In  In25  1  0.67753470  0.47610008  0.46251501  1
  In  In26  1  0.48024436  0.86291616  0.66619900  1
  In  In27  1  0.85621782  0.53542381  0.02732727  1
  In  In28  1  0.66942760  0.01153690  0.32912238  1
  In  In29  1  0.83450161  -0.02351424  0.85662266  1
  In  In30  1  0.48138938  0.69716896  0.48814244  1
  In  In31  1  0.15828190  0.84285492  0.32422439  1
  In  In32  1  0.65116532  0.68034022  0.02278371  1
  In  In33  1  0.67442482  0.48315214  0.86292516  1
  In  In34  1  0.34186427  0.33588829  -0.03120685  1
  In  In35  1  0.00459400  0.66178604  0.68153747  1
  In  In36  1  0.34959107  0.53863659  0.17683585  1
  In  In37  1  -0.02332013  0.85759882  0.48120737  1
  In  In38  1  0.68627420  0.32065750  -0.00572985  1
  In  In39  1  0.34839853  0.83652027  0.85187971  1
  In  In40  1  0.84869991  0.85639599  0.33190586  1
  In  In41  1  0.18731871  -0.00098713  0.50008024  1
  In  In42  1  -0.02456687  0.31825830  0.00868598  1
  In  In43  1  0.51459925  0.16754999  0.00249017  1
  In  In44  1  0.66851072  -0.00041588  0.65463424  1
  In  In45  1  0.00294171  0.15037852  0.83397219  1
  In  In46  1  0.50567665  0.84968869  -0.00151272  1
  In  In47  1  0.63603495  0.31904697  0.68695821  1
  In  In48  1  0.81624929  0.66809462  0.50845347  1
  In  In49  1  -0.00463733  0.83488605  0.17679626  1
  In  In50  1  0.82503703  0.32416769  0.16878063  1
  In  In51  1  0.32081471  0.16477346  0.50933381  1
  In  In52  1  0.65224811  0.67709578  0.31309857  1
  In  In53  1  0.82863749  0.50180751  0.31073112  1
  In  In54  1  0.66115698  0.84548169  0.52001058  1
  In  In55  1  0.52855045  0.50316523  -0.00669506  1
  In  In56  1  0.33801398  0.50301084  0.82234878  1
  In  In57  1  0.00979250  0.68213793  0.30982716  1
  In  In58  1  0.01748103  0.50829807  0.49730591  1
  In  In59  1  0.13137895  0.35528733  0.58463978  1
  In  In60  1  0.83891193  0.31706023  0.83218434  1
  In  In61  1  0.85694140  0.79031108  -0.02771392  1
  In  In62  1  0.47497211  0.31680544  0.48654156  1
  In  In63  1  0.15915608  0.14944012  -0.00125315  1
  In  In64  1  0.33129522  -0.01394012  0.00598830  1
  In  In65  1  0.01451595  -0.00550790  0.00671060  1
  In  In66  1  0.49844047  0.50009826  0.32669717  1
  In  In67  1  0.84670451  0.01357703  0.17422049  1
  In  In68  1  0.01006900  0.48681803  0.81732319  1
  In  In69  1  0.15321021  0.82524096  -0.00059928  1
  In  In70  1  0.33165071  0.67281291  0.68882395  1
  In  In71  1  0.86531867  0.50839639  0.68451641  1
  Te  Te72  1  0.08524534  0.07972761  0.10437137  1
  Te  Te73  1  0.10056836  0.10062626  0.43468402  1
  Te  Te74  1  0.09274353  0.05910467  0.75455541  1
  Te  Te75  1  0.07408361  0.41719546  0.06987227  1
  Te  Te76  1  0.08263674  0.40175918  0.40608715  1
  Te  Te77  1  0.08290781  0.40981681  0.71530252  1
  Te  Te78  1  0.05923379  0.73808948  0.08033173  1
  Te  Te79  1  0.06825276  0.74384824  0.43385375  1
  Te  Te80  1  0.08121955  0.75475987  0.76751754  1
  Te  Te81  1  0.42565896  0.07434303  0.08778054  1
  Te  Te82  1  0.40712328  0.06554425  0.43591141  1
  Te  Te83  1  0.45331001  0.13518374  0.74783592  1
  Te  Te84  1  0.39881410  0.43322239  0.07098471  1
  Te  Te85  1  0.40452656  0.43886204  0.42959703  1
  Te  Te86  1  0.43066125  0.40798005  0.74428220  1
  Te  Te87  1  0.41769642  0.75809357  0.08875737  1
  Te  Te88  1  0.39279993  0.78789156  0.41267719  1
  Te  Te89  1  0.43811646  0.75044756  0.76263747  1
  Te  Te90  1  0.76255223  0.10291354  0.09152569  1
  Te  Te91  1  0.74360120  0.10331784  0.41908247  1
  Te  Te92  1  0.77052932  0.06583018  0.74870751  1
  Te  Te93  1  0.75607137  0.42567402  0.07677976  1
  Te  Te94  1  0.75385333  0.37344998  0.37434271  1
  Te  Te95  1  0.74987018  0.41658609  0.74720881  1
  Te  Te96  1  0.77103185  0.74386336  0.08259634  1
  Te  Te97  1  0.74668258  0.76269432  0.41323948  1
  Te  Te98  1  0.72935277  0.76397265  0.77473418  1
  Te  Te99  1  0.07185076  0.22954428  0.22997160  1
  Te  Te100  1  0.07589016  0.22195621  0.55220517  1
  Te  Te101  1  0.07820417  0.25220817  0.91823280  1
  Te  Te102  1  0.06300440  0.56783670  0.23439558  1
  Te  Te103  1  0.10388946  0.59382582  0.58766820  1
  Te  Te104  1  0.07643764  0.58341714  0.90778972  1
  Te  Te105  1  0.06229410  0.93471028  0.26190890  1
  Te  Te106  1  0.08140877  0.90940869  0.57963653  1
  Te  Te107  1  0.08553992  0.91580613  0.90493868  1
  Te  Te108  1  0.41230442  0.24550633  0.23208745  1
  Te  Te109  1  0.43205444  0.22630862  0.59905539  1
  Te  Te110  1  0.38752036  0.20232881  0.91924689  1
  Te  Te111  1  0.43020517  0.61659689  0.26943542  1
  Te  Te112  1  0.41070124  0.59594107  0.58138434  1
  Te  Te113  1  0.42403240  0.58500401  0.91650519  1
  Te  Te114  1  0.39225590  0.94282274  0.24687754  1
  Te  Te115  1  0.45097630  0.96383592  0.56306596  1
  Te  Te116  1  0.43889866  0.94865517  0.90363185  1
  Te  Te117  1  0.76672109  0.25031646  0.28248166  1
  Te  Te118  1  0.74862499  0.27631440  0.58146357  1
  Te  Te119  1  0.74516513  0.22674936  0.89827828  1
  Te  Te120  1  0.73657367  0.58574626  0.23352963  1
  Te  Te121  1  0.74903705  0.55307654  0.58287163  1
  Te  Te122  1  0.74945838  0.59119377  0.93410202  1
  Te  Te123  1  0.74775449  0.91636884  0.23763324  1
  Te  Te124  1  0.77659040  0.93204466  0.56497349  1
  Te  Te125  1  0.74277340  0.89458989  0.94220936  1
  Te  Te126  1  0.24932250  0.26863667  0.07755182  1
  Te  Te127  1  0.25127187  0.26014899  0.41225439  1
  Te  Te128  1  0.23719352  0.24649841  0.75621475  1
  Te  Te129  1  0.23265668  0.59603319  0.09705800  1
  Te  Te130  1  0.26141088  0.60173353  0.40255419  1
  Te  Te131  1  0.23636127  0.58249626  0.75378844  1
  Te  Te132  1  0.22817063  0.91669919  0.09392160  1
  Te  Te133  1  0.25850232  0.89544789  0.42062391  1
  Te  Te134  1  0.28264963  0.92206954  0.75065521  1
  Te  Te135  1  0.60163546  0.24917659  0.09954013  1
  Te  Te136  1  0.57161650  0.25529542  0.38949137  1
  Te  Te137  1  0.59767008  0.18893338  0.75225144  1
  Te  Te138  1  0.57851580  0.58022410  0.10609891  1
  Te  Te139  1  0.59023537  0.59751367  0.43139230  1
  Te  Te140  1  0.59027825  0.57272316  0.76795613  1
  Te  Te141  1  0.58249207  0.90787098  0.11177859  1
  Te  Te142  1  0.58208477  0.91773263  0.41520296  1
  Te  Te143  1  0.59017242  0.91607152  0.74681526  1
  Te  Te144  1  0.89366386  0.22167811  0.08491529  1
  Te  Te145  1  0.90415567  0.20848421  0.38961355  1
  Te  Te146  1  0.93756921  0.25035665  0.73908698  1
  Te  Te147  1  0.96248624  0.61451686  0.08883343  1
  Te  Te148  1  0.90402108  0.57805165  0.42078144  1
  Te  Te149  1  0.88763404  0.62657846  0.77615821  1
  Te  Te150  1  0.90662382  0.90537500  0.07289763  1
  Te  Te151  1  0.92643993  0.96912694  0.39413517  1
  Te  Te152  1  0.92434345  0.90020147  0.76117246  1
  Te  Te153  1  0.26795609  0.05968987  0.26390899  1
  Te  Te154  1  0.26423589  0.06661141  0.61229615  1
  Te  Te155  1  0.23763331  0.05724705  0.91605654  1
  Te  Te156  1  0.25362704  0.43263359  0.24774160  1
  Te  Te157  1  0.26099665  0.42080976  0.57427264  1
  Te  Te158  1  0.23635202  0.40784491  0.88851500  1
  Te  Te159  1  0.22226638  0.73922917  0.24341471  1
  Te  Te160  1  0.27690514  0.77800944  0.59327364  1
  Te  Te161  1  0.24458764  0.74090955  0.91003583  1
  Te  Te162  1  0.57845710  0.07866168  0.23421197  1
  Te  Te163  1  0.56885246  0.06805370  0.56384312  1
  Te  Te164  1  0.60387074  0.07871937  0.92771973  1
  Te  Te165  1  0.58964791  0.42329253  0.24254338  1
  Te  Te166  1  0.57749717  0.40780184  0.56719431  1
  Te  Te167  1  0.56578892  0.38005455  0.91031161  1
  Te  Te168  1  0.58869292  0.78051226  0.22683657  1
  Te  Te169  1  0.58343826  0.73992093  0.59724332  1
  Te  Te170  1  0.56647690  0.74163555  0.91912071  1
  Te  Te171  1  0.90789062  0.08815416  0.28575178  1
  Te  Te172  1  0.92257547  0.09717516  0.57076668  1
  Te  Te173  1  0.91187478  0.08242118  0.93243689  1
  Te  Te174  1  0.92795710  0.42217327  0.22855839  1
  Te  Te175  1  0.92841471  0.41527865  0.58053335  1
  Te  Te176  1  0.90580497  0.42781654  0.91439755  1
  Te  Te177  1  0.88842927  0.73889439  0.24379318  1
  Te  Te178  1  0.91337628  0.75294786  0.58720004  1
  Te  Te179  1  0.95186399  0.70495046  0.89502452  1
