# generated using pymatgen
data_In2Te3
_symmetry_space_group_name_H-M   'P 1'
_cell_length_a   18.80490053
_cell_length_b   18.80863194
_cell_length_c   18.80187717
_cell_angle_alpha   89.99249324
_cell_angle_beta   90.11120490
_cell_angle_gamma   89.93196363
_symmetry_Int_Tables_number   1
_chemical_formula_structural   In2Te3
_chemical_formula_sum   'In72 Te108'
_cell_volume   6650.10238239
_cell_formula_units_Z   36
loop_
 _symmetry_equiv_pos_site_id
 _symmetry_equiv_pos_as_xyz
  1  'x, y, z'
loop_
 _atom_site_type_symbol
 _atom_site_label
 _atom_site_symmetry_multiplicity
 _atom_site_fract_x
 _atom_site_fract_y
 _atom_site_fract_z
 _atom_site_occupancy
  In  In0  1  -0.02868569  0.48320098  0.19823799  1
  In  In1  1  0.67032232  0.65856860  0.67687836  1
  In  In2  1  0.16256980  0.66336459  0.83078251  1
  In  In3  1  0.31724482  -0.00423495  -0.00215160  1
  In  In4  1  0.15228583  0.18934556  0.66457583  1
  In  In5  1  0.66328092  0.00601835  -0.01010379  1
  In  In6  1  0.33841132  0.50590216  0.81501205  1
  In  In7  1  0.15292653  0.30869729  0.16273294  1
  In  In8  1  0.15862568  0.84601584  0.33693230  1
  In  In9  1  0.67236387  0.32851023  0.33707330  1
  In  In10  1  0.51421392  0.79787285  0.01279183  1
  In  In11  1  0.84156193  0.66363166  0.49079045  1
  In  In12  1  0.67316765  0.00062901  0.35002328  1
  In  In13  1  0.47845647  0.18286098  -0.01082715  1
  In  In14  1  0.83683821  0.00451118  0.81456735  1
  In  In15  1  0.67925421  0.17346603  0.18947912  1
  In  In16  1  -0.01356478  0.67092717  0.33190154  1
  In  In17  1  0.84083044  0.34856825  0.50042076  1
  In  In18  1  0.33241442  0.14909016  0.81621440  1
  In  In19  1  0.84598741  0.83157597  0.01654015  1
  In  In20  1  0.64739388  0.81452203  0.83211590  1
  In  In21  1  0.16840920  0.87225469  0.00929629  1
  In  In22  1  0.16197195  0.67454002  0.16167686  1
  In  In23  1  0.16286959  0.50773957  -0.01819733  1
  In  In24  1  0.01375637  0.01711540  0.00580831  1
  In  In25  1  0.18236149  0.67474154  0.51232347  1
  In  In26  1  0.15265117  0.00804900  0.17734116  1
  In  In27  1  0.49084399  -0.01335334  0.81217314  1
  In  In28  1  0.83303490  -0.00084498  0.48415449  1
  In  In29  1  0.02032001  0.17965393  0.50095612  1
  In  In30  1  0.32255633  0.17469834  0.17108462  1
  In  In31  1  0.17436355  0.82741486  0.65232497  1
  In  In32  1  0.16489537  0.01143814  0.84935820  1
  In  In33  1  0.80792149  0.66689435  0.17719784  1
  In  In34  1  -0.01055309  0.66825597  0.65628873  1
  In  In35  1  0.34165321  0.80571231  0.82254953  1
  In  In36  1  0.51190291  0.49647849  0.32529826  1
  In  In37  1  0.82810490  0.65459021  0.83274274  1
  In  In38  1  -0.00250209  0.33224636  0.00358083  1
  In  In39  1  0.47737852  0.33323836  0.16844635  1
  In  In40  1  0.66324813  0.48864682  0.50236506  1
  In  In41  1  0.34510319  0.65651443  0.33836136  1
  In  In42  1  0.64926230  0.32955782  0.67174259  1
  In  In43  1  -0.00501997  0.32927821  0.65508382  1
  In  In44  1  0.34704372  0.47271349  0.15921178  1
  In  In45  1  0.18370690  0.48742876  0.64376269  1
  In  In46  1  0.35127375  -0.01184842  0.65717038  1
  In  In47  1  0.67948984  0.83474569  0.48883652  1
  In  In48  1  0.83992669  0.83259268  0.34721816  1
  In  In49  1  0.02260705  0.67405958  0.00286629  1
  In  In50  1  0.65157738  0.12541486  0.49976566  1
  In  In51  1  0.67208832  0.79074741  0.17846962  1
  In  In52  1  0.15866930  0.32630401  0.83395801  1
  In  In53  1  0.81908040  0.33461841  0.83489926  1
  In  In54  1  0.49857612  -0.01952076  0.18834130  1
  In  In55  1  0.16332990  0.00997585  0.48737534  1
  In  In56  1  0.82774108  0.18919724  0.66713056  1
  In  In57  1  0.14128083  0.47577425  0.36767295  1
  In  In58  1  0.35950361  0.66665208  -0.00907232  1
  In  In59  1  0.66578418  0.36071683  0.01274903  1
  In  In60  1  0.01017208  -0.00423091  0.67114725  1
  In  In61  1  0.47196579  0.63718925  0.51846714  1
  In  In62  1  0.33571000  0.17332249  0.48531133  1
  In  In63  1  0.65220413  0.49067535  0.81389840  1
  In  In64  1  0.83469059  0.50041814  0.00363738  1
  In  In65  1  0.66268179  0.18836712  0.80092166  1
  In  In66  1  0.50357945  0.33907756  0.50960372  1
  In  In67  1  0.34510697  -0.00279761  0.33992188  1
  In  In68  1  0.32399033  0.32455610  0.33494931  1
  In  In69  1  0.85927884  0.02723935  0.21100847  1
  In  In70  1  0.85227290  0.17916498  0.02444440  1
  In  In71  1  0.48573313  0.82476931  0.66114348  1
  Te  Te72  1  0.09788232  0.10942806  0.08386279  1
  Te  Te73  1  0.06419992  0.07873918  0.39860088  1
  Te  Te74  1  0.07614905  0.09922616  0.76180482  1
  Te  Te75  1  0.08138668  0.43485108  0.08959610  1
  Te  Te76  1  0.04866920  0.38500985  0.43564358  1
  Te  Te77  1  0.08529539  0.42145113  0.74133237  1
  Te  Te78  1  0.07702938  0.78215399  0.09545140  1
  Te  Te79  1  0.07910871  0.74853794  0.42408070  1
  Te  Te80  1  0.07852236  0.75933158  0.74824120  1
  Te  Te81  1  0.42054603  0.07691687  0.08610211  1
  Te  Te82  1  0.43162494  0.07537386  0.43203731  1
  Te  Te83  1  0.44629397  0.09850110  0.71379918  1
  Te  Te84  1  0.44245142  0.42498096  0.05621795  1
  Te  Te85  1  0.41416176  0.42074908  0.41265459  1
  Te  Te86  1  0.41174887  0.43620957  0.70528587  1
  Te  Te87  1  0.40330415  0.75600765  0.09892062  1
  Te  Te88  1  0.41924982  0.74402128  0.43099369  1
  Te  Te89  1  0.43682599  0.71712293  0.75393062  1
  Te  Te90  1  0.75466972  0.07650666  0.08962138  1
  Te  Te91  1  0.76897600  0.11017241  0.40285091  1
  Te  Te92  1  0.73760145  0.07922161  0.72440847  1
  Te  Te93  1  0.76197557  0.42116582  0.10529817  1
  Te  Te94  1  0.76210261  0.43666183  0.39926354  1
  Te  Te95  1  0.75829227  0.42190872  0.72784451  1
  Te  Te96  1  0.73885418  0.73182451  0.05220263  1
  Te  Te97  1  0.73986448  0.72977965  0.39542363  1
  Te  Te98  1  0.76075122  0.76061196  0.74428414  1
  Te  Te99  1  0.06232664  0.23981406  0.25280774  1
  Te  Te100  1  0.11598668  0.29244365  0.55688276  1
  Te  Te101  1  0.08205357  0.23988613  0.92562623  1
  Te  Te102  1  0.08776235  0.58015997  0.25646825  1
  Te  Te103  1  0.08174744  0.57631370  0.57105978  1
  Te  Te104  1  0.05781294  0.57273874  0.89287981  1
  Te  Te105  1  0.06153089  0.91843969  0.25237276  1
  Te  Te106  1  0.07846963  0.90883405  0.56650019  1
  Te  Te107  1  0.06380586  0.91224386  0.90493511  1
  Te  Te108  1  0.42630758  0.23210803  0.26864667  1
  Te  Te109  1  0.40500792  0.25844293  0.58556323  1
  Te  Te110  1  0.40657535  0.25936038  0.88585270  1
  Te  Te111  1  0.42625278  0.58138985  0.23130112  1
  Te  Te112  1  0.38187794  0.53833216  0.59257578  1
  Te  Te113  1  0.42936388  0.55634010  0.92409842  1
  Te  Te114  1  0.42748344  0.88919866  0.27753306  1
  Te  Te115  1  0.43318556  0.91791022  0.55721650  1
  Te  Te116  1  0.41614359  0.90636605  0.92001793  1
  Te  Te117  1  0.78019455  0.26160678  0.25490085  1
  Te  Te118  1  0.73422587  0.25668278  0.56525867  1
  Te  Te119  1  0.74268428  0.24101926  0.92869007  1
  Te  Te120  1  0.71543221  0.56668597  0.23318725  1
  Te  Te121  1  0.75752795  0.57534104  0.58507482  1
  Te  Te122  1  0.73140058  0.57251502  0.91822017  1
  Te  Te123  1  0.74908573  0.91850239  0.24462088  1
  Te  Te124  1  0.75905518  0.91766809  0.58058859  1
  Te  Te125  1  0.75120090  0.90859468  0.91237249  1
  Te  Te126  1  0.27076211  0.27880312  0.08014501  1
  Te  Te127  1  0.22819059  0.23933900  0.40725434  1
  Te  Te128  1  0.26161041  0.26385360  0.73854873  1
  Te  Te129  1  0.25419067  0.58201057  0.08146261  1
  Te  Te130  1  0.24814593  0.57114209  0.42090118  1
  Te  Te131  1  0.25128125  0.59997174  0.72885493  1
  Te  Te132  1  0.26546225  0.91741734  0.11688739  1
  Te  Te133  1  0.25983003  0.90652970  0.43299850  1
  Te  Te134  1  0.25407074  0.92147219  0.76356494  1
  Te  Te135  1  0.58586239  0.23996831  0.08517599  1
  Te  Te136  1  0.58098203  0.24178039  0.42046249  1
  Te  Te137  1  0.54918639  0.27843359  0.76946894  1
  Te  Te138  1  0.61260167  0.62807772  0.14010229  1
  Te  Te139  1  0.58313509  0.59037461  0.42097972  1
  Te  Te140  1  0.56088361  0.59489577  0.75500862  1
  Te  Te141  1  0.59269357  0.90998456  0.08483032  1
  Te  Te142  1  0.57577488  0.91096291  0.41460233  1
  Te  Te143  1  0.59346842  0.91256181  0.72851321  1
  Te  Te144  1  0.92849557  0.26482024  0.11788422  1
  Te  Te145  1  0.93832706  0.27489187  0.40945675  1
  Te  Te146  1  0.92568568  0.24822957  0.76675466  1
  Te  Te147  1  0.92398491  0.59372541  0.08942066  1
  Te  Te148  1  0.91057075  0.56651278  0.40131906  1
  Te  Te149  1  0.91284213  0.57443577  0.74237056  1
  Te  Te150  1  0.91748284  0.93999869  0.09594856  1
  Te  Te151  1  0.93541650  0.93056542  0.40294276  1
  Te  Te152  1  0.91467868  0.90621866  0.73834851  1
  Te  Te153  1  0.24471397  0.09009010  0.26915850  1
  Te  Te154  1  0.23987105  0.08103668  0.59929956  1
  Te  Te155  1  0.24191116  0.11174491  0.93478611  1
  Te  Te156  1  0.23620093  0.42267506  0.25281506  1
  Te  Te157  1  0.29005222  0.41621107  0.56812951  1
  Te  Te158  1  0.25754245  0.41475886  0.91208650  1
  Te  Te159  1  0.24987629  0.75034379  0.25868104  1
  Te  Te160  1  0.28315276  0.75045692  0.59075204  1
  Te  Te161  1  0.23709880  0.75354754  0.93077619  1
  Te  Te162  1  0.57837463  0.08704548  0.26339276  1
  Te  Te163  1  0.57161035  0.09364416  0.61687421  1
  Te  Te164  1  0.57397482  0.08845419  0.89951820  1
  Te  Te165  1  0.59452511  0.41071575  0.23099742  1
  Te  Te166  1  0.56348390  0.44187476  0.60813407  1
  Te  Te167  1  0.57315617  0.40498078  0.90727018  1
  Te  Te168  1  0.56728034  0.71991867  0.25119295  1
  Te  Te169  1  0.58554505  0.73733907  0.57518374  1
  Te  Te170  1  0.57813949  0.71166143  0.91199107  1
  Te  Te171  1  0.96784766  0.11486409  0.25945669  1
  Te  Te172  1  0.92097162  0.09803517  0.58679699  1
  Te  Te173  1  0.91303877  0.09063852  0.91487598  1
  Te  Te174  1  0.90341335  0.37716564  0.27164563  1
  Te  Te175  1  0.91518674  0.43647673  0.59303294  1
  Te  Te176  1  0.92158681  0.42251258  0.90568231  1
  Te  Te177  1  0.91359663  0.76123117  0.23321335  1
  Te  Te178  1  0.91533433  0.76310467  0.56986520  1
  Te  Te179  1  0.92202867  0.74853024  0.91442498  1
