# generated using pymatgen
data_In2Te3
_symmetry_space_group_name_H-M   'P 1'
_cell_length_a   18.98738056
_cell_length_b   18.97880937
_cell_length_c   18.98072922
_cell_angle_alpha   90.05305381
_cell_angle_beta   90.10293196
_cell_angle_gamma   90.06782609
_symmetry_Int_Tables_number   1
_chemical_formula_structural   In2Te3
_chemical_formula_sum   'In72 Te108'
_cell_volume   6839.83649388
_cell_formula_units_Z   36
loop_
 _symmetry_equiv_pos_site_id
 _symmetry_equiv_pos_as_xyz
  1  'x, y, z'
loop_
 _atom_site_type_symbol
 _atom_site_label
 _atom_site_symmetry_multiplicity
 _atom_site_fract_x
 _atom_site_fract_y
 _atom_site_fract_z
 _atom_site_occupancy
  In  In0  1  0.00432177  0.68211807  0.02486095  1
  In  In1  1  0.50804480  0.51621171  -0.00144717  1
  In  In2  1  0.32239099  0.35022052  0.32981016  1
  In  In3  1  -0.00166390  0.66600718  0.33557475  1
  In  In4  1  0.32207316  0.00115695  0.33825954  1
  In  In5  1  0.81952831  0.32427127  0.82330560  1
  In  In6  1  0.66969247  0.33149900  -0.00117907  1
  In  In7  1  0.15844751  0.15571890  0.34080445  1
  In  In8  1  -0.02499334  0.16792778  0.50856317  1
  In  In9  1  0.53495737  0.51948977  0.33921731  1
  In  In10  1  -0.02011622  0.67256749  0.64832903  1
  In  In11  1  0.00420995  0.79678454  0.82911840  1
  In  In12  1  0.83507220  0.68818297  0.18949869  1
  In  In13  1  0.64422156  0.83823835  0.18169021  1
  In  In14  1  -0.01289287  0.83372141  0.51090869  1
  In  In15  1  0.15489533  -0.00536876  0.83305832  1
  In  In16  1  -0.00567292  0.33058971  0.66186915  1
  In  In17  1  0.83312372  0.66084426  0.81751610  1
  In  In18  1  0.34071350  0.15593105  0.83259241  1
  In  In19  1  0.67131883  0.16886269  0.18033167  1
  In  In20  1  0.55175422  0.10151428  -0.04008139  1
  In  In21  1  0.65528642  0.31985938  0.64080940  1
  In  In22  1  0.50646054  0.33012693  0.80868999  1
  In  In23  1  0.68307160  -0.02649758  0.66065287  1
  In  In24  1  0.34233617  0.16260565  0.20072956  1
  In  In25  1  0.14016832  0.34917315  0.47809611  1
  In  In26  1  0.67182185  0.64657731  0.67456761  1
  In  In27  1  0.83697600  0.11918995  0.01350523  1
  In  In28  1  0.17954896  0.65494120  0.86087054  1
  In  In29  1  0.36222416  0.48054558  0.82415645  1
  In  In30  1  -0.00859295  -0.01113979  0.34198530  1
  In  In31  1  0.84272500  0.36743194  0.23316620  1
  In  In32  1  0.67175540  0.82294310  0.83304585  1
  In  In33  1  0.19477605  0.12997471  0.63394320  1
  In  In34  1  0.81480965  0.32932203  0.48462877  1
  In  In35  1  0.50931301  0.37772138  0.17587813  1
  In  In36  1  0.17765533  0.31358355  0.80998294  1
  In  In37  1  0.18048581  0.84300453  0.66963813  1
  In  In38  1  0.49769660  -0.00802904  0.16238240  1
  In  In39  1  0.68224165  0.67642150  0.00821065  1
  In  In40  1  0.33002533  0.32950831  -0.02456526  1
  In  In41  1  0.67842646  0.51201200  0.18436312  1
  In  In42  1  -0.00742579  0.50549332  0.19526249  1
  In  In43  1  0.14793967  0.50988884  0.65601580  1
  In  In44  1  0.55238008  0.30426493  0.47986818  1
  In  In45  1  0.34419607  0.55974390  0.16066829  1
  In  In46  1  -0.01367466  0.19152838  0.84125089  1
  In  In47  1  0.00124956  0.13001276  0.17822937  1
  In  In48  1  0.32810623  0.69639333  0.33861291  1
  In  In49  1  0.49244892  0.16526470  0.65409576  1
  In  In50  1  0.16404351  0.33554976  0.18163552  1
  In  In51  1  0.35171239  0.86509453  0.83662065  1
  In  In52  1  0.50521110  0.64895347  0.82834052  1
  In  In53  1  0.83659250  -0.02077552  0.82657428  1
  In  In54  1  0.81734362  0.50116732  -0.01191758  1
  In  In55  1  0.15790323  0.82420311  0.02735117  1
  In  In56  1  -0.01300035  0.01255721  0.67895003  1
  In  In57  1  0.33410831  0.00302856  -0.00291559  1
  In  In58  1  0.34809807  0.81827261  0.16740616  1
  In  In59  1  0.67983031  0.81325486  0.48110792  1
  In  In60  1  -0.02437014  0.33400087  0.01704072  1
  In  In61  1  0.32810575  0.51349760  0.49656247  1
  In  In62  1  0.82845061  0.48571887  0.65315141  1
  In  In63  1  0.15397481  0.67641105  0.50506861  1
  In  In64  1  0.14232550  0.16209708  0.04786787  1
  In  In65  1  0.17773108  0.52954193  0.01565346  1
  In  In66  1  0.48403551  0.85500840  0.64334774  1
  In  In67  1  0.33426463  0.66757154  0.64674194  1
  In  In68  1  0.49447273  0.01924691  0.48216312  1
  In  In69  1  0.83994423  -0.00883433  0.18557096  1
  In  In70  1  0.66935744  0.01454154  0.35298537  1
  In  In71  1  0.49261314  0.67545056  0.49317388  1
  Te  Te72  1  0.05946316  0.04140398  0.07315003  1
  Te  Te73  1  0.07876578  0.07211762  0.43842617  1
  Te  Te74  1  0.08719959  0.10653008  0.75377942  1
  Te  Te75  1  0.07954074  0.42418554  0.08630627  1
  Te  Te76  1  0.09933565  0.43049823  0.36570805  1
  Te  Te77  1  0.07947691  0.41536398  0.75460179  1
  Te  Te78  1  0.06747504  0.76509342  0.12948515  1
  Te  Te79  1  0.08561240  0.77310933  0.41361903  1
  Te  Te80  1  0.10212859  0.72728418  0.73400364  1
  Te  Te81  1  0.41853250  0.09760776  0.08482394  1
  Te  Te82  1  0.41755116  0.10216632  0.38737329  1
  Te  Te83  1  0.43342631  0.07566999  0.75503648  1
  Te  Te84  1  0.40506501  0.42503422  0.07054993  1
  Te  Te85  1  0.42200531  0.43736420  0.40544852  1
  Te  Te86  1  0.40882483  0.39231695  0.71932397  1
  Te  Te87  1  0.38742319  0.69306783  0.09700097  1
  Te  Te88  1  0.41345264  0.77819732  0.42738386  1
  Te  Te89  1  0.41351172  0.75185252  0.74708861  1
  Te  Te90  1  0.73027462  0.05520569  0.09923939  1
  Te  Te91  1  0.73510320  0.10846289  0.44850490  1
  Te  Te92  1  0.74810498  0.07450172  0.75437564  1
  Te  Te93  1  0.75996034  0.40754560  0.09661912  1
  Te  Te94  1  0.71569473  0.42753690  0.43917904  1
  Te  Te95  1  0.73020022  0.41251158  0.74167526  1
  Te  Te96  1  0.75720211  0.77476257  0.09285491  1
  Te  Te97  1  0.69157574  0.72142967  0.36051299  1
  Te  Te98  1  0.76182010  0.75938760  0.72934755  1
  Te  Te99  1  0.07052975  0.24589908  0.25576007  1
  Te  Te100  1  0.09474793  0.24404613  0.58810824  1
  Te  Te101  1  0.08819741  0.26252138  0.93320708  1
  Te  Te102  1  0.09130704  0.60282033  0.23920903  1
  Te  Te103  1  0.05579624  0.57289310  0.55549373  1
  Te  Te104  1  0.06551859  0.58167483  0.92527125  1
  Te  Te105  1  0.03712682  0.92266735  0.21516295  1
  Te  Te106  1  0.08003726  0.92545541  0.59495204  1
  Te  Te107  1  0.07732325  0.89632419  0.91660937  1
  Te  Te108  1  0.43094144  0.27193485  0.25720086  1
  Te  Te109  1  0.43599804  0.25566621  0.55305482  1
  Te  Te110  1  0.43691656  0.24166696  0.91568755  1
  Te  Te111  1  0.43846031  0.61215645  0.26957606  1
  Te  Te112  1  0.43369502  0.57064413  0.58933091  1
  Te  Te113  1  0.39830971  0.58920035  0.92124954  1
  Te  Te114  1  0.42074529  0.91179555  0.26361742  1
  Te  Te115  1  0.39453925  0.94342125  0.56688240  1
  Te  Te116  1  0.44486896  0.93330644  0.92890305  1
  Te  Te117  1  0.75118019  0.25390606  0.27312767  1
  Te  Te118  1  0.73970794  0.22416925  0.56283620  1
  Te  Te119  1  0.76923737  0.23766655  0.93625075  1
  Te  Te120  1  0.78066905  0.57421057  0.27497271  1
  Te  Te121  1  0.77378295  0.60039830  0.57721814  1
  Te  Te122  1  0.72927707  0.58330554  0.89690889  1
  Te  Te123  1  0.74413821  0.91218176  0.27101233  1
  Te  Te124  1  0.76496362  0.91062439  0.55338307  1
  Te  Te125  1  0.75282103  0.90703779  0.92580425  1
  Te  Te126  1  0.26465027  0.25305229  0.09072453  1
  Te  Te127  1  0.24518406  0.25361369  0.41762353  1
  Te  Te128  1  0.27089605  0.23577866  0.72416905  1
  Te  Te129  1  0.23394313  0.64012304  0.09612841  1
  Te  Te130  1  0.23774879  0.59390798  0.40895916  1
  Te  Te131  1  0.25700592  0.57998010  0.74521835  1
  Te  Te132  1  0.25594666  0.91911898  0.09398364  1
  Te  Te133  1  0.21381953  0.96469617  0.43192128  1
  Te  Te134  1  0.26578875  0.94654882  0.74188278  1
  Te  Te135  1  0.57966617  0.26477528  0.09866893  1
  Te  Te136  1  0.64055229  0.21864059  0.39811548  1
  Te  Te137  1  0.60084898  0.23052946  0.75049463  1
  Te  Te138  1  0.58818618  0.59772086  0.09872675  1
  Te  Te139  1  0.61004453  0.60048423  0.43902742  1
  Te  Te140  1  0.57173885  0.55880451  0.73608031  1
  Te  Te141  1  0.55161225  0.88553146  0.07695468  1
  Te  Te142  1  0.58096914  0.90976653  0.41808700  1
  Te  Te143  1  0.57659363  0.91003481  0.75014072  1
  Te  Te144  1  0.90946177  0.22576294  0.09671652  1
  Te  Te145  1  0.92116378  0.25932003  0.40853626  1
  Te  Te146  1  0.89581558  0.23572094  0.72727440  1
  Te  Te147  1  0.90263432  0.57857247  0.08747719  1
  Te  Te148  1  0.89054747  0.57539797  0.38475043  1
  Te  Te149  1  0.92541139  0.56849044  0.74346772  1
  Te  Te150  1  0.93804704  0.91977242  0.10213120  1
  Te  Te151  1  0.89552917  0.92169692  0.43313424  1
  Te  Te152  1  0.92266480  0.88778429  0.74001050  1
  Te  Te153  1  0.22721413  0.07277192  0.23464346  1
  Te  Te154  1  0.27789291  0.05686913  0.53514966  1
  Te  Te155  1  0.23004848  0.09125107  0.92677211  1
  Te  Te156  1  0.26097361  0.44233546  0.22695568  1
  Te  Te157  1  0.23900546  0.42059266  0.57616806  1
  Te  Te158  1  0.23443556  0.42607229  0.90796747  1
  Te  Te159  1  0.24249000  0.78942122  0.26523148  1
  Te  Te160  1  0.26044376  0.76961888  0.56372848  1
  Te  Te161  1  0.25102749  0.77525907  0.91213616  1
  Te  Te162  1  0.57181506  0.08383861  0.25735339  1
  Te  Te163  1  0.59099238  0.07199070  0.58578005  1
  Te  Te164  1  0.67058216  0.05108396  0.89157466  1
  Te  Te165  1  0.61830520  0.40799386  0.27853244  1
  Te  Te166  1  0.60758032  0.42801366  0.54521241  1
  Te  Te167  1  0.58292335  0.41829931  0.91177472  1
  Te  Te168  1  0.58346657  0.72850642  0.25816896  1
  Te  Te169  1  0.58669930  0.75440748  0.59560322  1
  Te  Te170  1  0.57541573  0.74424501  0.92199083  1
  Te  Te171  1  0.89604120  0.09392069  0.28067391  1
  Te  Te172  1  0.89413203  0.07247246  0.58370936  1
  Te  Te173  1  0.93401181  0.06824077  0.90904660  1
  Te  Te174  1  0.95049739  0.43396245  0.32656690  1
  Te  Te175  1  0.92423103  0.41458545  0.56006719  1
  Te  Te176  1  0.91139641  0.41491574  0.90559494  1
  Te  Te177  1  0.90604790  0.77015457  0.28655699  1
  Te  Te178  1  0.89358511  0.72027071  0.53948315  1
  Te  Te179  1  0.90277310  0.74156564  0.92645515  1
