# generated using pymatgen
data_In2Te3
_symmetry_space_group_name_H-M   'P 1'
_cell_length_a   18.95407666
_cell_length_b   18.93240447
_cell_length_c   18.95711942
_cell_angle_alpha   89.89265508
_cell_angle_beta   90.00298946
_cell_angle_gamma   90.16782927
_symmetry_Int_Tables_number   1
_chemical_formula_structural   In2Te3
_chemical_formula_sum   'In72 Te108'
_cell_volume   6802.65000398
_cell_formula_units_Z   36
loop_
 _symmetry_equiv_pos_site_id
 _symmetry_equiv_pos_as_xyz
  1  'x, y, z'
loop_
 _atom_site_type_symbol
 _atom_site_label
 _atom_site_symmetry_multiplicity
 _atom_site_fract_x
 _atom_site_fract_y
 _atom_site_fract_z
 _atom_site_occupancy
  In  In0  1  0.82056442  0.50245151  0.65655190  1
  In  In1  1  -0.00984601  0.00486389  0.00637124  1
  In  In2  1  0.15659079  0.19348628  0.00461789  1
  In  In3  1  0.85514558  0.13147931  0.66290387  1
  In  In4  1  0.79889117  0.68059411  0.17305785  1
  In  In5  1  0.81857456  0.32691333  0.48978872  1
  In  In6  1  0.68395485  0.16747372  0.49737079  1
  In  In7  1  0.83016343  0.81131750  -0.00782066  1
  In  In8  1  0.65085574  0.17626542  0.84985487  1
  In  In9  1  0.34563726  0.66860958  0.33178546  1
  In  In10  1  0.17177657  0.66426214  0.48705343  1
  In  In11  1  0.50546321  0.16152268  0.67602065  1
  In  In12  1  0.50479732  0.31114113  0.17222732  1
  In  In13  1  0.35016721  0.36357417  0.33012726  1
  In  In14  1  0.48940082  0.65841735  0.82134332  1
  In  In15  1  0.80640694  0.80778503  0.66376708  1
  In  In16  1  0.18770572  0.52287864  0.67539586  1
  In  In17  1  0.81796167  0.15508538  0.32064967  1
  In  In18  1  0.02896904  0.49019842  0.15699481  1
  In  In19  1  0.32731348  0.16216328  0.51886666  1
  In  In20  1  -0.01551795  -0.01123905  0.32835954  1
  In  In21  1  0.01133265  0.01276164  0.63013155  1
  In  In22  1  0.66156687  0.34995341  0.34084318  1
  In  In23  1  0.50635997  0.81581773  0.34174319  1
  In  In24  1  0.50509578  0.52062152  0.01155148  1
  In  In25  1  0.65513813  -0.02910431  0.67498418  1
  In  In26  1  0.81155754  0.14974105  0.02460449  1
  In  In27  1  0.65343720  0.79863021  0.83520141  1
  In  In28  1  0.47981319  0.17033062  -0.00221802  1
  In  In29  1  0.34055833  0.17188739  0.16867218  1
  In  In30  1  0.31432011  0.35537223  0.70064149  1
  In  In31  1  0.17955915  0.81665358  0.65853008  1
  In  In32  1  0.64153382  0.64581038  0.36606053  1
  In  In33  1  0.85282076  0.35104487  0.84066100  1
  In  In34  1  0.16942227  0.18688254  0.66339251  1
  In  In35  1  0.62977279  0.69053761  0.63384063  1
  In  In36  1  0.17339776  0.81259739  0.31837786  1
  In  In37  1  0.51260988  -0.00024039  0.83568463  1
  In  In38  1  0.31726244  -0.02818924  0.04026793  1
  In  In39  1  0.01747159  0.65176045  0.00199686  1
  In  In40  1  0.16271799  0.35211379  0.52355419  1
  In  In41  1  0.65457371  0.34918113  0.67337917  1
  In  In42  1  0.86395094  0.33142451  0.17299658  1
  In  In43  1  0.15997189  -0.02197157  0.46544315  1
  In  In44  1  0.80240437  0.85305986  0.30717875  1
  In  In45  1  0.34793030  0.51599393  0.17704726  1
  In  In46  1  0.01537844  0.64263044  0.32635920  1
  In  In47  1  0.82687188  -0.01500817  0.82136133  1
  In  In48  1  0.02063509  0.49639987  0.83280722  1
  In  In49  1  0.84155982  0.67485670  0.47904879  1
  In  In50  1  0.01497214  0.34160431  0.34973484  1
  In  In51  1  0.01645870  0.83513860  0.81671186  1
  In  In52  1  0.18226117  0.17539084  0.33088783  1
  In  In53  1  0.55788662  -0.04576395  0.18489406  1
  In  In54  1  0.48697753  0.35823815  0.49937475  1
  In  In55  1  0.33288693  0.68806589  0.02348163  1
  In  In56  1  0.66833407  0.12693435  0.17633459  1
  In  In57  1  0.00922464  0.66717568  0.67306245  1
  In  In58  1  0.31654529  0.36647754  -0.02405756  1
  In  In59  1  -0.00905185  0.32854011  0.65417635  1
  In  In60  1  0.01158992  0.82120033  0.17467233  1
  In  In61  1  0.34291432  0.81521076  0.84554902  1
  In  In62  1  0.47740759  0.52238294  0.63613218  1
  In  In63  1  0.66932100  0.50468791  0.16777602  1
  In  In64  1  0.81111667  0.55999024  -0.01181216  1
  In  In65  1  0.65479454  0.36054412  0.00537296  1
  In  In66  1  0.32824094  -0.02140299  0.33410000  1
  In  In67  1  0.17448813  0.01122113  0.85154820  1
  In  In68  1  0.00491307  0.16886239  0.17518279  1
  In  In69  1  0.35138438  0.00397075  0.66763571  1
  In  In70  1  0.49212148  -0.03251288  0.49254917  1
  In  In71  1  0.03365149  0.18437499  0.86305098  1
  Te  Te72  1  0.09256999  0.08094635  0.08847002  1
  Te  Te73  1  0.07973506  0.08861014  0.40173677  1
  Te  Te74  1  0.07577511  0.07950801  0.75509453  1
  Te  Te75  1  0.07355944  0.38995996  0.06339452  1
  Te  Te76  1  0.10651963  0.43442134  0.41696023  1
  Te  Te77  1  0.09160826  0.41121708  0.72923230  1
  Te  Te78  1  0.09903479  0.74140401  0.08724123  1
  Te  Te79  1  0.07253293  0.75402988  0.41395337  1
  Te  Te80  1  0.11313518  0.72918869  0.76500320  1
  Te  Te81  1  0.42461582  0.06926482  0.09627105  1
  Te  Te82  1  0.40567415  0.07660111  0.42428438  1
  Te  Te83  1  0.40888672  0.09568507  0.77234201  1
  Te  Te84  1  0.42717449  0.40460257  0.08310214  1
  Te  Te85  1  0.43115128  0.46363556  0.40768483  1
  Te  Te86  1  0.42802547  0.43689571  0.74864055  1
  Te  Te87  1  0.44921201  0.78523266  0.05398850  1
  Te  Te88  1  0.43306445  0.73017574  0.44809942  1
  Te  Te89  1  0.40499746  0.74302719  0.73396208  1
  Te  Te90  1  0.75153627  0.03463969  0.09550654  1
  Te  Te91  1  0.73268073  0.06851215  0.40240518  1
  Te  Te92  1  0.72708045  0.08653260  0.75267045  1
  Te  Te93  1  0.76970958  0.41896634  0.08565586  1
  Te  Te94  1  0.75219810  0.43465872  0.41743138  1
  Te  Te95  1  0.74525223  0.42953029  0.76757224  1
  Te  Te96  1  0.72141844  0.77092792  0.08556095  1
  Te  Te97  1  0.73597058  0.75741395  0.40942084  1
  Te  Te98  1  0.76958776  0.71981393  0.77773292  1
  Te  Te99  1  0.09711488  0.26674681  0.24484631  1
  Te  Te100  1  0.06850709  0.23578140  0.56318978  1
  Te  Te101  1  0.08663522  0.30807117  0.93124749  1
  Te  Te102  1  0.10693322  0.59456692  0.22291701  1
  Te  Te103  1  0.08345588  0.57614924  0.57904399  1
  Te  Te104  1  0.11394932  0.56364910  0.92688539  1
  Te  Te105  1  0.09601301  0.92415806  0.24827823  1
  Te  Te106  1  0.08389468  0.89453916  0.56864783  1
  Te  Te107  1  0.08436222  0.91542614  0.92752633  1
  Te  Te108  1  0.42205234  0.24054344  0.27794941  1
  Te  Te109  1  0.41622533  0.25768362  0.59624103  1
  Te  Te110  1  0.40937816  0.26840205  0.91629157  1
  Te  Te111  1  0.44450653  0.61594782  0.23250364  1
  Te  Te112  1  0.39984942  0.63053178  0.57250144  1
  Te  Te113  1  0.40166591  0.58961937  0.92594601  1
  Te  Te114  1  0.42418243  0.90319721  0.24775260  1
  Te  Te115  1  0.40802322  0.89566489  0.58923057  1
  Te  Te116  1  0.40393617  0.93352621  0.91902111  1
  Te  Te117  1  0.74350035  0.26126338  0.23851004  1
  Te  Te118  1  0.75389479  0.25133861  0.61096053  1
  Te  Te119  1  0.75684094  0.25960652  0.92113464  1
  Te  Te120  1  0.74902157  0.57845015  0.27276080  1
  Te  Te121  1  0.74393787  0.60656375  0.57691040  1
  Te  Te122  1  0.72440426  0.64870412  0.91089456  1
  Te  Te123  1  0.70530990  0.92131138  0.21942424  1
  Te  Te124  1  0.74290564  0.90698645  0.57907942  1
  Te  Te125  1  0.73726743  0.90568968  0.90917408  1
  Te  Te126  1  0.26094021  0.26864189  0.08610849  1
  Te  Te127  1  0.25804816  0.26417918  0.42989998  1
  Te  Te128  1  0.24490122  0.24705640  0.77153795  1
  Te  Te129  1  0.25715045  0.57302147  0.07751049  1
  Te  Te130  1  0.24387841  0.58075428  0.39088764  1
  Te  Te131  1  0.29592733  0.54389923  0.77501158  1
  Te  Te132  1  0.25787704  0.85068933  0.10238422  1
  Te  Te133  1  0.26394387  0.87650230  0.42648203  1
  Te  Te134  1  0.24537016  0.92016771  0.75228569  1
  Te  Te135  1  0.60101940  0.23752664  0.07972949  1
  Te  Te136  1  0.58114990  0.25712375  0.43079918  1
  Te  Te137  1  0.56516123  0.26852744  0.76643817  1
  Te  Te138  1  0.61128880  0.60181756  0.07406930  1
  Te  Te139  1  0.55633338  0.55183031  0.44170576  1
  Te  Te140  1  0.58594690  0.58397977  0.73055886  1
  Te  Te141  1  0.57192158  0.87234852  0.05912513  1
  Te  Te142  1  0.59144754  0.92392695  0.39587771  1
  Te  Te143  1  0.55693973  0.88508499  0.74733620  1
  Te  Te144  1  0.92473874  0.24186430  0.06734882  1
  Te  Te145  1  0.90955791  0.24241435  0.40385110  1
  Te  Te146  1  0.92101057  0.24166997  0.75830213  1
  Te  Te147  1  0.90654188  0.59906236  0.09988608  1
  Te  Te148  1  0.93010987  0.57326680  0.42322554  1
  Te  Te149  1  0.91839525  0.57397179  0.75070059  1
  Te  Te150  1  0.91542517  0.89877638  0.08470223  1
  Te  Te151  1  0.89746430  0.90300314  0.40792152  1
  Te  Te152  1  0.92426385  0.91788394  0.72818377  1
  Te  Te153  1  0.25045844  0.07292759  0.24275162  1
  Te  Te154  1  0.22897460  0.06395895  0.58157170  1
  Te  Te155  1  0.25406248  0.08647978  0.95337532  1
  Te  Te156  1  0.25465763  0.41714255  0.23586231  1
  Te  Te157  1  0.27359763  0.43779911  0.58017612  1
  Te  Te158  1  0.23684190  0.45685740  0.88590086  1
  Te  Te159  1  0.27815247  0.75790210  0.22686806  1
  Te  Te160  1  0.26716028  0.71369188  0.59397893  1
  Te  Te161  1  0.23972104  0.76637229  0.93753631  1
  Te  Te162  1  0.55446758  0.08490425  0.25516929  1
  Te  Te163  1  0.58160995  0.07588388  0.57975379  1
  Te  Te164  1  0.59045578  0.07429092  0.94246984  1
  Te  Te165  1  0.56750929  0.42609908  0.24936441  1
  Te  Te166  1  0.59758520  0.43947091  0.56671846  1
  Te  Te167  1  0.58367386  0.44428238  0.91129314  1
  Te  Te168  1  0.57385583  0.71632777  0.25309602  1
  Te  Te169  1  0.55452889  0.76953942  0.53766294  1
  Te  Te170  1  0.54044235  0.75718669  0.92798389  1
  Te  Te171  1  0.90316531  0.07010792  0.22884701  1
  Te  Te172  1  0.90613409  0.06629659  0.54378679  1
  Te  Te173  1  0.90163811  0.08386306  0.90974503  1
  Te  Te174  1  0.92772535  0.43173598  0.26325301  1
  Te  Te175  1  0.91303956  0.42272453  0.56640756  1
  Te  Te176  1  0.90865168  0.45574871  0.93365411  1
  Te  Te177  1  0.90977439  0.74671332  0.26020393  1
  Te  Te178  1  0.92233621  0.75313918  0.58465624  1
  Te  Te179  1  0.93678045  0.74225221  0.90796939  1
