# generated using pymatgen
data_In2Te3
_symmetry_space_group_name_H-M   'P 1'
_cell_length_a   18.96857221
_cell_length_b   18.97393356
_cell_length_c   18.94815496
_cell_angle_alpha   90.13658623
_cell_angle_beta   89.96904547
_cell_angle_gamma   90.02125770
_symmetry_Int_Tables_number   1
_chemical_formula_structural   In2Te3
_chemical_formula_sum   'In72 Te108'
_cell_volume   6819.57983882
_cell_formula_units_Z   36
loop_
 _symmetry_equiv_pos_site_id
 _symmetry_equiv_pos_as_xyz
  1  'x, y, z'
loop_
 _atom_site_type_symbol
 _atom_site_label
 _atom_site_symmetry_multiplicity
 _atom_site_fract_x
 _atom_site_fract_y
 _atom_site_fract_z
 _atom_site_occupancy
  In  In0  1  0.15824337  0.84250902  0.70313948  1
  In  In1  1  0.66904713  0.64452334  0.69701256  1
  In  In2  1  0.34101842  0.15487283  0.84629575  1
  In  In3  1  0.18399013  0.81218363  0.25176242  1
  In  In4  1  0.67116175  0.18582303  0.50782931  1
  In  In5  1  -0.00225813  0.00709482  0.65578252  1
  In  In6  1  0.61981484  0.52889460  0.13254685  1
  In  In7  1  0.14115379  0.32554833  0.19274887  1
  In  In8  1  0.01598845  0.70261099  0.02799182  1
  In  In9  1  0.19520330  0.51352818  0.66811191  1
  In  In10  1  0.32479837  0.32060226  0.01053053  1
  In  In11  1  0.31579909  0.67065171  0.00386433  1
  In  In12  1  0.50154785  0.33783828  0.53083941  1
  In  In13  1  0.15667963  0.01322804  0.48689645  1
  In  In14  1  0.85541121  0.15168674  0.00282458  1
  In  In15  1  0.84077534  0.66489373  0.48422177  1
  In  In16  1  0.65729654  0.01456878  0.66430189  1
  In  In17  1  0.83298080  0.01445492  0.50018819  1
  In  In18  1  0.16141779  0.34466835  0.48791798  1
  In  In19  1  0.86496087  0.85377072  0.04113285  1
  In  In20  1  0.83510260  0.50337248  0.34174779  1
  In  In21  1  0.83159614  0.30748248  0.81171487  1
  In  In22  1  -0.01146754  0.33456974  0.66772545  1
  In  In23  1  0.33993371  0.82532059  0.84894110  1
  In  In24  1  0.50831686  0.32337101  0.17345627  1
  In  In25  1  0.15680120  0.33709185  0.85664346  1
  In  In26  1  0.83610186  0.64361893  0.83538712  1
  In  In27  1  0.83723432  0.66998424  0.16084514  1
  In  In28  1  0.32714855  0.00377940  0.32510155  1
  In  In29  1  0.33188949  0.19148564  0.51504652  1
  In  In30  1  0.33696155  0.84775814  0.51106498  1
  In  In31  1  0.69249910  0.17554376  0.15844300  1
  In  In32  1  0.31583637  0.32589220  0.35312623  1
  In  In33  1  0.50054155  0.50374070  0.31851137  1
  In  In34  1  0.01698808  0.66417503  0.64207525  1
  In  In35  1  0.66981994  -0.00571236  0.34566748  1
  In  In36  1  0.84317714  0.31723472  0.15707109  1
  In  In37  1  0.64320753  0.85536641  0.49876136  1
  In  In38  1  0.49567711  0.83204335  0.66302278  1
  In  In39  1  0.00371218  0.05202964  0.30358311  1
  In  In40  1  0.65103081  0.83189601  0.16714466  1
  In  In41  1  0.17442749  0.67815158  0.48344030  1
  In  In42  1  0.19472433  -0.01021957  0.85656827  1
  In  In43  1  0.33976808  0.66700833  0.68357484  1
  In  In44  1  0.85178659  0.83284204  0.30476992  1
  In  In45  1  0.15872472  -0.01154620  0.14607324  1
  In  In46  1  0.47737210  0.01106007  0.15570544  1
  In  In47  1  -0.02295877  0.30141593  0.00953400  1
  In  In48  1  0.51157895  0.16744903  0.35095503  1
  In  In49  1  0.49125285  0.82076657  0.00606943  1
  In  In50  1  0.67615665  0.81965996  0.86586064  1
  In  In51  1  0.31493344  0.50309425  0.51213884  1
  In  In52  1  0.30658056  0.15706470  0.16733980  1
  In  In53  1  0.18267504  0.51206216  0.32324113  1
  In  In54  1  0.64011068  0.33860745  0.00207202  1
  In  In55  1  0.85681314  0.31396485  0.47090161  1
  In  In56  1  0.82560011  0.47273046  0.64384700  1
  In  In57  1  0.66611210  0.32770039  0.66961510  1
  In  In58  1  0.16557439  0.16319655  0.67399292  1
  In  In59  1  0.66782827  0.16363444  0.84052040  1
  In  In60  1  0.82904464  0.48151945  -0.02199251  1
  In  In61  1  0.35480971  0.49163462  0.82655145  1
  In  In62  1  0.00517770  0.49799519  0.16476107  1
  In  In63  1  -0.00399254  0.84451795  0.83964876  1
  In  In64  1  0.66188212  0.67601718  0.32737468  1
  In  In65  1  0.34567080  0.52796597  0.15477288  1
  In  In66  1  0.50447946  0.00368497  0.84030169  1
  In  In67  1  0.83843578  0.00485857  0.83087242  1
  In  In68  1  0.63390338  0.49590160  0.85958209  1
  In  In69  1  0.49380954  0.67002663  0.48230803  1
  In  In70  1  0.01536160  0.52478173  0.84546200  1
  In  In71  1  0.01100786  0.81376906  0.47300300  1
  Te  Te72  1  0.05461359  0.06886724  0.07829412  1
  Te  Te73  1  0.04240588  0.09677396  0.44010592  1
  Te  Te74  1  0.09565928  0.05860523  0.75840049  1
  Te  Te75  1  0.07483560  0.39847862  0.07417501  1
  Te  Te76  1  0.08663308  0.42546806  0.39228538  1
  Te  Te77  1  0.09106125  0.42889083  0.74290798  1
  Te  Te78  1  0.11203987  0.77002334  0.12000080  1
  Te  Te79  1  0.10395198  0.74862594  0.37250782  1
  Te  Te80  1  0.07368973  0.73336717  0.76446206  1
  Te  Te81  1  0.38650713  0.08660874  0.06535830  1
  Te  Te82  1  0.40483503  0.09166625  0.42392106  1
  Te  Te83  1  0.42318138  0.08134691  0.74867928  1
  Te  Te84  1  0.42038770  0.41251374  0.08944032  1
  Te  Te85  1  0.41352203  0.42156631  0.41915272  1
  Te  Te86  1  0.38004630  0.40738725  0.70986629  1
  Te  Te87  1  0.38577499  0.76607634  0.09945196  1
  Te  Te88  1  0.41505673  0.77045791  0.41322716  1
  Te  Te89  1  0.43918482  0.74128663  0.77029219  1
  Te  Te90  1  0.74986710  0.07439644  0.06953491  1
  Te  Te91  1  0.75414017  0.10358993  0.40662881  1
  Te  Te92  1  0.75983425  0.09718639  0.73995447  1
  Te  Te93  1  0.74450303  0.41587653  0.08413341  1
  Te  Te94  1  0.75930861  0.41543922  0.42953453  1
  Te  Te95  1  0.75265120  0.43051464  0.77067424  1
  Te  Te96  1  0.74944954  0.75818691  0.07712059  1
  Te  Te97  1  0.74935948  0.76953966  0.41245037  1
  Te  Te98  1  0.76082290  0.74898224  0.75681638  1
  Te  Te99  1  0.06409866  0.24754039  0.28925043  1
  Te  Te100  1  0.08398049  0.25237013  0.58259363  1
  Te  Te101  1  0.06229845  0.23517525  0.90692094  1
  Te  Te102  1  0.11437054  0.58537369  0.21330796  1
  Te  Te103  1  0.10066956  0.56977235  0.55959817  1
  Te  Te104  1  0.08619287  0.59829149  0.94984440  1
  Te  Te105  1  0.08144522  0.92818275  0.26722427  1
  Te  Te106  1  0.08979017  0.89972213  0.57891996  1
  Te  Te107  1  0.09429652  0.90532981  0.93374731  1
  Te  Te108  1  0.40769103  0.24086710  0.25565212  1
  Te  Te109  1  0.41698147  0.25494134  0.61838557  1
  Te  Te110  1  0.42090125  0.25997450  0.91627091  1
  Te  Te111  1  0.42522649  0.61159141  0.24952058  1
  Te  Te112  1  0.41972627  0.58385385  0.58600289  1
  Te  Te113  1  0.41698044  0.58397066  0.93195428  1
  Te  Te114  1  0.38867018  0.91623534  0.22434900  1
  Te  Te115  1  0.43233827  0.93380406  0.58132549  1
  Te  Te116  1  0.41105464  0.92727933  0.93384495  1
  Te  Te117  1  0.75104777  0.26396719  0.25768403  1
  Te  Te118  1  0.77432112  0.25799888  0.59146237  1
  Te  Te119  1  0.75912301  0.26012929  0.93547089  1
  Te  Te120  1  0.74137375  0.58142337  0.23646114  1
  Te  Te121  1  0.75148760  0.58641237  0.57838060  1
  Te  Te122  1  0.73340542  0.58835388  0.93175497  1
  Te  Te123  1  0.75024382  0.92240292  0.23813774  1
  Te  Te124  1  0.74841529  0.92111963  0.58563342  1
  Te  Te125  1  0.77225894  0.91539423  0.93453853  1
  Te  Te126  1  0.21402830  0.24418977  0.08594807  1
  Te  Te127  1  0.22269756  0.22572661  0.41361630  1
  Te  Te128  1  0.24421269  0.24909791  0.76990567  1
  Te  Te129  1  0.22691175  0.57829397  0.08221202  1
  Te  Te130  1  0.27711561  0.60052859  0.40345034  1
  Te  Te131  1  0.24773575  0.59777999  0.78079055  1
  Te  Te132  1  0.20295511  0.87953993  0.05071973  1
  Te  Te133  1  0.24028085  0.91174116  0.41184022  1
  Te  Te134  1  0.27777491  0.92134445  0.74715557  1
  Te  Te135  1  0.57123489  0.22649599  0.07679816  1
  Te  Te136  1  0.58664995  0.27775423  0.41797657  1
  Te  Te137  1  0.58264139  0.25248447  0.76211373  1
  Te  Te138  1  0.53428263  0.59553835  0.03471520  1
  Te  Te139  1  0.59267675  0.57459684  0.41687991  1
  Te  Te140  1  0.55989947  0.56995389  0.75708418  1
  Te  Te141  1  0.57713406  0.92598401  0.07569633  1
  Te  Te142  1  0.55801154  0.91574872  0.39735656  1
  Te  Te143  1  0.60141139  0.90242021  0.76068488  1
  Te  Te144  1  0.94749083  0.20589351  0.12723726  1
  Te  Te145  1  0.94467569  0.22816161  0.38650574  1
  Te  Te146  1  0.94894777  0.23193870  0.76668069  1
  Te  Te147  1  0.91259076  0.57608879  0.06441323  1
  Te  Te148  1  0.93462234  0.60174108  0.39041776  1
  Te  Te149  1  0.91982292  0.57227228  0.72866859  1
  Te  Te150  1  0.94776962  0.96123669  0.10646355  1
  Te  Te151  1  0.91758393  0.91737568  0.41280932  1
  Te  Te152  1  0.91086923  0.90997474  0.73439982  1
  Te  Te153  1  0.21568161  0.08157110  0.25882611  1
  Te  Te154  1  0.25261859  0.07727204  0.58429776  1
  Te  Te155  1  0.25628818  0.08726668  0.94860606  1
  Te  Te156  1  0.26930309  0.41053767  0.23670240  1
  Te  Te157  1  0.26387317  0.39023026  0.60349486  1
  Te  Te158  1  0.25535940  0.42711069  0.92590924  1
  Te  Te159  1  0.30107410  0.72726760  0.22427074  1
  Te  Te160  1  0.24287890  0.74977543  0.59971495  1
  Te  Te161  1  0.22893878  0.76477553  0.92577087  1
  Te  Te162  1  0.58205538  0.08303217  0.24758928  1
  Te  Te163  1  0.57879141  0.09011315  0.56776170  1
  Te  Te164  1  0.59736719  0.07344266  0.93044890  1
  Te  Te165  1  0.60094821  0.42090705  0.24177025  1
  Te  Te166  1  0.59657603  0.42969958  0.59207787  1
  Te  Te167  1  0.53893480  0.39300057  0.90903784  1
  Te  Te168  1  0.56334745  0.73904391  0.23890502  1
  Te  Te169  1  0.59312865  0.73991515  0.58703468  1
  Te  Te170  1  0.58278660  0.72693132  0.93567649  1
  Te  Te171  1  0.89478201  0.07051510  0.20722587  1
  Te  Te172  1  0.91166861  0.10285821  0.58791084  1
  Te  Te173  1  0.94042079  0.06861656  0.91611462  1
  Te  Te174  1  0.91843050  0.41158249  0.25139265  1
  Te  Te175  1  0.93513931  0.42181455  0.55534258  1
  Te  Te176  1  0.93292962  0.40730059  0.89739523  1
  Te  Te177  1  0.93610379  0.72255638  0.25614185  1
  Te  Te178  1  0.91657853  0.75721983  0.57974054  1
  Te  Te179  1  0.90779918  0.74656297  0.92413555  1
