# generated using pymatgen
data_In2Te3
_symmetry_space_group_name_H-M   'P 1'
_cell_length_a   18.81164820
_cell_length_b   18.80909896
_cell_length_c   18.80712032
_cell_angle_alpha   90.03377379
_cell_angle_beta   90.09738052
_cell_angle_gamma   90.03666716
_symmetry_Int_Tables_number   1
_chemical_formula_structural   In2Te3
_chemical_formula_sum   'In72 Te108'
_cell_volume   6654.51411933
_cell_formula_units_Z   36
loop_
 _symmetry_equiv_pos_site_id
 _symmetry_equiv_pos_as_xyz
  1  'x, y, z'
loop_
 _atom_site_type_symbol
 _atom_site_label
 _atom_site_symmetry_multiplicity
 _atom_site_fract_x
 _atom_site_fract_y
 _atom_site_fract_z
 _atom_site_occupancy
  In  In0  1  0.83331864  0.00535241  0.84359177  1
  In  In1  1  0.32607105  0.15871883  0.18420987  1
  In  In2  1  0.53095391  -0.02475815  0.80038505  1
  In  In3  1  0.32738430  0.65107047  -0.00191193  1
  In  In4  1  0.14957675  0.85859473  -0.00883638  1
  In  In5  1  0.33138175  0.00633289  0.33752032  1
  In  In6  1  0.50634666  0.84334875  0.00121191  1
  In  In7  1  0.12949166  0.03147591  0.81176126  1
  In  In8  1  0.49740925  0.16505356  -0.01320253  1
  In  In9  1  0.49765590  0.48820016  0.30247111  1
  In  In10  1  0.32939309  0.35289152  0.00561901  1
  In  In11  1  0.16142612  0.49499010  0.34209896  1
  In  In12  1  0.83620669  0.80950427  0.35306200  1
  In  In13  1  -0.00600940  0.32120996  0.66793160  1
  In  In14  1  0.48343274  0.84356676  0.36425577  1
  In  In15  1  0.66581492  0.67983099  0.65321191  1
  In  In16  1  0.34847199  0.81327133  0.79220845  1
  In  In17  1  0.16157508  0.67375055  0.85073282  1
  In  In18  1  0.69283753  0.50231535  0.49116138  1
  In  In19  1  0.50012174  -0.00283526  0.52276493  1
  In  In20  1  0.83513011  0.66503055  0.18748496  1
  In  In21  1  -0.00066282  0.66915202  0.33116166  1
  In  In22  1  0.15451385  0.00208895  0.50328257  1
  In  In23  1  0.32949604  -0.00898956  0.66884791  1
  In  In24  1  -0.03802567  0.01505342  0.32177433  1
  In  In25  1  0.84411124  0.16671178  0.66126992  1
  In  In26  1  0.33385334  0.15365333  0.48799122  1
  In  In27  1  0.50382403  0.67729692  0.50459712  1
  In  In28  1  0.50635410  0.64074127  0.15957210  1
  In  In29  1  0.50827449  0.50574791  0.65757841  1
  In  In30  1  0.85047856  0.65062361  0.48415077  1
  In  In31  1  0.66650475  0.16752414  0.82422643  1
  In  In32  1  0.01003214  0.68412284  0.00024926  1
  In  In33  1  0.16768686  0.31728372  0.85723872  1
  In  In34  1  0.34406903  0.52354187  0.83140636  1
  In  In35  1  0.86424516  0.17208768  0.01782536  1
  In  In36  1  0.67487351  0.01047801  0.33342345  1
  In  In37  1  0.32967074  0.33552643  0.66391720  1
  In  In38  1  0.84083607  0.85568124  -0.00321649  1
  In  In39  1  0.51951576  0.00396161  0.18415172  1
  In  In40  1  0.81573985  0.85694097  0.65966877  1
  In  In41  1  0.51117738  0.30882750  0.48979371  1
  In  In42  1  0.00391002  0.51648710  0.49316738  1
  In  In43  1  0.33097900  0.52196794  0.51320635  1
  In  In44  1  0.00447521  0.85186174  0.49667723  1
  In  In45  1  0.83493278  0.00220654  0.15169472  1
  In  In46  1  0.65282901  0.82658628  0.16259447  1
  In  In47  1  0.17556037  0.48907176  0.66950190  1
  In  In48  1  -0.01219511  0.16294923  0.51590950  1
  In  In49  1  0.49520744  0.32295894  0.15322813  1
  In  In50  1  0.85146119  0.33088691  0.82389313  1
  In  In51  1  0.67018527  0.32313366  0.69246466  1
  In  In52  1  0.19072487  0.81311352  0.65385525  1
  In  In53  1  -0.00165333  0.48373030  0.16660638  1
  In  In54  1  0.33105118  0.15343179  0.83179852  1
  In  In55  1  0.85020060  0.66329830  0.82227369  1
  In  In56  1  0.66249978  0.15339461  0.49419771  1
  In  In57  1  0.83141228  0.47347967  -0.00352487  1
  In  In58  1  -0.00559808  0.31940625  0.32259259  1
  In  In59  1  0.29692046  0.82967039  0.15213103  1
  In  In60  1  0.66840687  0.48570956  0.84329211  1
  In  In61  1  0.33565169  0.31826191  0.35078353  1
  In  In62  1  0.84924369  0.34703798  0.48453442  1
  In  In63  1  0.66385492  0.34352630  0.00790542  1
  In  In64  1  0.00671061  0.66603040  0.67886828  1
  In  In65  1  0.32964588  0.51574842  0.16043386  1
  In  In66  1  0.31772547  -0.01860689  -0.00184903  1
  In  In67  1  0.16528004  0.84686113  0.33428902  1
  In  In68  1  0.68131825  0.66110985  0.33070270  1
  In  In69  1  0.12189978  0.14873018  0.03131585  1
  In  In70  1  0.14598319  0.33823466  0.15947687  1
  In  In71  1  0.63535335  0.67291406  -0.00571082  1
  Te  Te72  1  0.05594734  0.04006393  0.10626593  1
  Te  Te73  1  0.06892879  0.08463184  0.41092169  1
  Te  Te74  1  0.05806837  0.12101815  0.71770377  1
  Te  Te75  1  0.07331994  0.41571051  0.05753065  1
  Te  Te76  1  0.07703242  0.39938994  0.42426996  1
  Te  Te77  1  0.08532239  0.40583494  0.75821689  1
  Te  Te78  1  0.10139504  0.75892265  0.08905665  1
  Te  Te79  1  0.08686365  0.74537700  0.42848073  1
  Te  Te80  1  0.08613072  0.76869290  0.75833264  1
  Te  Te81  1  0.41286089  0.07285274  0.08039708  1
  Te  Te82  1  0.44283022  0.08298552  0.40753813  1
  Te  Te83  1  0.42992089  0.07893581  0.74454278  1
  Te  Te84  1  0.43282374  0.43988225  0.07591148  1
  Te  Te85  1  0.42451109  0.42289576  0.42860194  1
  Te  Te86  1  0.42293180  0.41898310  0.74990910  1
  Te  Te87  1  0.42220579  0.75385654  0.09212246  1
  Te  Te88  1  0.39042456  0.74605800  0.43109655  1
  Te  Te89  1  0.44373742  0.72679460  0.72468285  1
  Te  Te90  1  0.75046928  0.09696961  0.07634336  1
  Te  Te91  1  0.76981481  0.08924464  0.41634889  1
  Te  Te92  1  0.74497900  0.07666075  0.73303552  1
  Te  Te93  1  0.77539646  0.38178883  0.09934213  1
  Te  Te94  1  0.75201848  0.41094912  0.38690733  1
  Te  Te95  1  0.76812067  0.42905926  0.74255486  1
  Te  Te96  1  0.75395559  0.74798065  0.07966662  1
  Te  Te97  1  0.73363831  0.74511634  0.44693889  1
  Te  Te98  1  0.74947192  0.75689595  0.75642385  1
  Te  Te99  1  0.07786817  0.22897721  0.23476439  1
  Te  Te100  1  0.08992548  0.24674775  0.58499679  1
  Te  Te101  1  0.06402080  0.24837375  0.93914443  1
  Te  Te102  1  0.08816007  0.58324249  0.24137482  1
  Te  Te103  1  0.10093925  0.59267111  0.58305021  1
  Te  Te104  1  0.06372997  0.58020018  0.90808077  1
  Te  Te105  1  0.06187518  0.92399828  0.26068401  1
  Te  Te106  1  0.08563776  0.91624622  0.60821020  1
  Te  Te107  1  0.05743587  0.94262598  0.90692408  1
  Te  Te108  1  0.43094505  0.23727551  0.26290296  1
  Te  Te109  1  0.41813785  0.23742863  0.58680051  1
  Te  Te110  1  0.40758262  0.26114635  0.90984224  1
  Te  Te111  1  0.40138212  0.60157156  0.26442740  1
  Te  Te112  1  0.40590969  0.61153137  0.61443920  1
  Te  Te113  1  0.43819446  0.59304550  0.92202544  1
  Te  Te114  1  0.40921896  0.91187909  0.23985479  1
  Te  Te115  1  0.40806256  0.89694851  0.58569338  1
  Te  Te116  1  0.41887465  0.92257710  0.89975456  1
  Te  Te117  1  0.71650761  0.29988852  0.28033124  1
  Te  Te118  1  0.75652088  0.26409931  0.57893317  1
  Te  Te119  1  0.75634639  0.25215710  0.91445448  1
  Te  Te120  1  0.73588916  0.56452236  0.23388768  1
  Te  Te121  1  0.76931259  0.58231927  0.59632155  1
  Te  Te122  1  0.75503610  0.58972926  0.92130664  1
  Te  Te123  1  0.75586703  0.89960203  0.24965104  1
  Te  Te124  1  0.71621119  0.93562363  0.58389723  1
  Te  Te125  1  0.73641203  0.91601008  0.91301823  1
  Te  Te126  1  0.25132268  0.24362117  0.07904729  1
  Te  Te127  1  0.23433601  0.22903184  0.40837916  1
  Te  Te128  1  0.24085655  0.24199368  0.74575909  1
  Te  Te129  1  0.22688471  0.58413099  0.08089530  1
  Te  Te130  1  0.24062746  0.59128412  0.42025218  1
  Te  Te131  1  0.24631415  0.60252260  0.74489999  1
  Te  Te132  1  0.21533530  0.94958730  0.10626186  1
  Te  Te133  1  0.25981032  0.91483026  0.43603064  1
  Te  Te134  1  0.23741996  0.92370185  0.77047175  1
  Te  Te135  1  0.59490499  0.22864189  0.08489901  1
  Te  Te136  1  0.61070619  0.25409432  0.39239875  1
  Te  Te137  1  0.56238547  0.25175828  0.75994271  1
  Te  Te138  1  0.61814698  0.56731757  0.09695232  1
  Te  Te139  1  0.57601021  0.57327988  0.41622690  1
  Te  Te140  1  0.59470207  0.58675726  0.75329994  1
  Te  Te141  1  0.60242822  0.93861858  0.07338466  1
  Te  Te142  1  0.59874721  0.91672133  0.42848424  1
  Te  Te143  1  0.61212129  0.91077783  0.69066045  1
  Te  Te144  1  0.94658437  0.22566280  0.13196290  1
  Te  Te145  1  0.90187749  0.22893662  0.40610851  1
  Te  Te146  1  0.94291024  0.21100004  0.77413458  1
  Te  Te147  1  0.91104555  0.58692030  0.07997863  1
  Te  Te148  1  0.90817420  0.55671682  0.37949360  1
  Te  Te149  1  0.94172882  0.56323676  0.76320837  1
  Te  Te150  1  0.94585236  0.93043156  0.07798359  1
  Te  Te151  1  0.89221371  0.92910161  0.42964387  1
  Te  Te152  1  0.91409944  0.92777391  0.74387225  1
  Te  Te153  1  0.22919759  0.09059484  0.27169277  1
  Te  Te154  1  0.24209891  0.08963788  0.59305500  1
  Te  Te155  1  0.23070266  0.08823260  0.92731946  1
  Te  Te156  1  0.26083469  0.40571358  0.24767342  1
  Te  Te157  1  0.24340011  0.40529511  0.56005598  1
  Te  Te158  1  0.24486597  0.43918058  0.91374988  1
  Te  Te159  1  0.23833988  0.74462290  0.25511966  1
  Te  Te160  1  0.28099970  0.76507395  0.54995185  1
  Te  Te161  1  0.26575995  0.76924990  0.92278851  1
  Te  Te162  1  0.60788624  0.10561619  0.24215511  1
  Te  Te163  1  0.57849988  0.09687859  0.60064590  1
  Te  Te164  1  0.58797958  0.06931480  0.91047644  1
  Te  Te165  1  0.59805890  0.39779968  0.23895829  1
  Te  Te166  1  0.59780548  0.41240604  0.57559892  1
  Te  Te167  1  0.56838110  0.40592463  0.91451788  1
  Te  Te168  1  0.56823918  0.75116288  0.26471580  1
  Te  Te169  1  0.55798542  0.77794899  0.60576981  1
  Te  Te170  1  0.58513803  0.77149625  0.89818737  1
  Te  Te171  1  0.89052687  0.11787797  0.23474928  1
  Te  Te172  1  0.92555359  0.05686271  0.60087403  1
  Te  Te173  1  0.93541385  0.07397418  0.93001787  1
  Te  Te174  1  0.90159136  0.38749441  0.22675633  1
  Te  Te175  1  0.92137918  0.43165239  0.58941248  1
  Te  Te176  1  0.93612538  0.39013518  0.93203187  1
  Te  Te177  1  0.93202576  0.77133098  0.23982469  1
  Te  Te178  1  0.91966238  0.74848840  0.58067527  1
  Te  Te179  1  0.92634379  0.76809666  0.90439334  1
