# generated using pymatgen
data_In2Te3
_symmetry_space_group_name_H-M   'P 1'
_cell_length_a   18.99432923
_cell_length_b   18.99204030
_cell_length_c   18.99099632
_cell_angle_alpha   90.13607188
_cell_angle_beta   90.01187499
_cell_angle_gamma   89.83351148
_symmetry_Int_Tables_number   1
_chemical_formula_structural   In2Te3
_chemical_formula_sum   'In72 Te108'
_cell_volume   6850.78388438
_cell_formula_units_Z   36
loop_
 _symmetry_equiv_pos_site_id
 _symmetry_equiv_pos_as_xyz
  1  'x, y, z'
loop_
 _atom_site_type_symbol
 _atom_site_label
 _atom_site_symmetry_multiplicity
 _atom_site_fract_x
 _atom_site_fract_y
 _atom_site_fract_z
 _atom_site_occupancy
  In  In0  1  0.20712198  0.17786707  0.34379272  1
  In  In1  1  0.63126818  -0.02252792  0.04256990  1
  In  In2  1  -0.01009613  0.34299524  0.32567242  1
  In  In3  1  -0.00348795  0.17769777  0.15168908  1
  In  In4  1  0.83875380  0.82938364  0.66676509  1
  In  In5  1  0.00424778  0.81507924  0.84553806  1
  In  In6  1  0.53380229  0.17268379  0.01278174  1
  In  In7  1  0.02516029  0.15623270  0.83152697  1
  In  In8  1  0.49989465  0.00679190  0.50496174  1
  In  In9  1  0.85055957  0.24685560  0.63334694  1
  In  In10  1  0.49694061  0.14979268  0.33413574  1
  In  In11  1  0.32398700  -0.00717654  0.68237214  1
  In  In12  1  0.84327274  0.66085914  0.88224568  1
  In  In13  1  0.67766197  0.17742319  0.82493626  1
  In  In14  1  0.67342549  0.64702791  0.66526043  1
  In  In15  1  0.00251439  0.22256322  0.49260721  1
  In  In16  1  0.66033113  0.35915885  0.01919589  1
  In  In17  1  0.48714574  0.66369463  0.17163036  1
  In  In18  1  0.12441049  0.35364934  0.85962790  1
  In  In19  1  0.62739771  -0.04419876  0.29036302  1
  In  In20  1  0.03246216  0.00989124  0.33211296  1
  In  In21  1  0.14547097  0.17294576  0.64952514  1
  In  In22  1  0.17205012  0.17150125  -0.00557722  1
  In  In23  1  0.33345067  0.65734762  0.02582911  1
  In  In24  1  0.32952244  0.15530030  0.82222467  1
  In  In25  1  0.49365568  0.52480167  0.33685738  1
  In  In26  1  0.65968276  0.81546728  0.86258019  1
  In  In27  1  0.85581746  0.35993833  0.84398173  1
  In  In28  1  0.68347969  0.36207241  0.64579462  1
  In  In29  1  0.00492693  0.67209173  0.67080719  1
  In  In30  1  0.30799791  0.33449695  0.65837876  1
  In  In31  1  0.83652240  0.83471908  0.32482853  1
  In  In32  1  0.34696008  0.48487832  0.16352103  1
  In  In33  1  0.19317270  -0.00321484  0.49656015  1
  In  In34  1  0.00526622  0.00946909  -0.00802554  1
  In  In35  1  0.85248337  0.66060956  0.46134894  1
  In  In36  1  0.67239160  0.55228222  0.16447614  1
  In  In37  1  0.66274373  0.85000427  0.53431736  1
  In  In38  1  0.46239569  0.53692714  0.68071389  1
  In  In39  1  0.86410544  0.47967813  0.66017106  1
  In  In40  1  0.15317972  0.82830289  0.67133240  1
  In  In41  1  0.50298034  0.33294139  0.18197650  1
  In  In42  1  0.16967925  0.82229903  0.03462027  1
  In  In43  1  0.00975016  0.53252194  0.87243986  1
  In  In44  1  0.13553692  0.64562753  0.49757301  1
  In  In45  1  0.13473764  0.35473888  0.16290369  1
  In  In46  1  0.84805407  0.49943641  0.30448818  1
  In  In47  1  0.67139488  0.01520382  0.68735924  1
  In  In48  1  0.50211086  0.50329739  0.01210603  1
  In  In49  1  0.32792339  0.50274919  0.50497464  1
  In  In50  1  0.46346337  0.67401075  0.83973432  1
  In  In51  1  0.51665478  0.37044799  0.48836682  1
  In  In52  1  0.33238997  -0.02401080  0.00821348  1
  In  In53  1  0.18224805  0.78470207  0.29964186  1
  In  In54  1  0.45977205  0.81470680  0.31651869  1
  In  In55  1  0.83047781  0.17043704  0.01957267  1
  In  In56  1  0.14584034  0.51871903  0.29734296  1
  In  In57  1  0.32271065  0.16096774  0.15880578  1
  In  In58  1  -0.00723036  0.80588787  0.16610706  1
  In  In59  1  0.84629468  0.05638544  0.47384974  1
  In  In60  1  0.80933524  -0.03964126  0.85844646  1
  In  In61  1  0.68701311  0.50825113  0.46004023  1
  In  In62  1  0.50242657  -0.04111861  0.88647536  1
  In  In63  1  0.24231456  0.53085451  0.85489320  1
  In  In64  1  0.82654120  -0.02060744  0.17501255  1
  In  In65  1  0.50238391  0.33038999  0.84001119  1
  In  In66  1  0.69587933  0.17883700  0.41473432  1
  In  In67  1  0.32529414  0.83711638  0.50241543  1
  In  In68  1  0.48643245  0.80133037  0.70363063  1
  In  In69  1  0.47872308  0.16430579  0.67083460  1
  In  In70  1  0.03611935  0.83538979  0.47614648  1
  In  In71  1  0.34124939  0.18584456  0.47110534  1
  Te  Te72  1  0.09667976  0.08006714  0.08941547  1
  Te  Te73  1  0.09723223  0.09876265  0.43654049  1
  Te  Te74  1  0.10145355  0.06978391  0.74334969  1
  Te  Te75  1  0.09816489  0.45944639  0.06029893  1
  Te  Te76  1  0.06825881  0.44373007  0.40127289  1
  Te  Te77  1  0.05863103  0.44305762  0.76535039  1
  Te  Te78  1  0.09734918  0.71427795  0.11033826  1
  Te  Te79  1  0.07043756  0.72365871  0.38221096  1
  Te  Te80  1  0.10257275  0.72554538  0.77254613  1
  Te  Te81  1  0.42200906  0.08803676  0.06863921  1
  Te  Te82  1  0.39888801  0.05886285  0.40677194  1
  Te  Te83  1  0.44006275  0.05823062  0.77174335  1
  Te  Te84  1  0.42092124  0.38877976  0.06863371  1
  Te  Te85  1  0.40553655  0.41996503  0.40013317  1
  Te  Te86  1  0.41755459  0.40449908  0.73936402  1
  Te  Te87  1  0.39965361  0.77112013  0.10660308  1
  Te  Te88  1  0.40132015  0.73751783  0.42670369  1
  Te  Te89  1  0.36527827  0.72310294  0.73784360  1
  Te  Te90  1  0.74169057  0.07429863  0.09327903  1
  Te  Te91  1  0.72876521  0.03018780  0.38485319  1
  Te  Te92  1  0.77128773  0.11757480  0.72673225  1
  Te  Te93  1  0.75217406  0.45716889  0.08055891  1
  Te  Te94  1  0.75829865  0.41069239  0.38221214  1
  Te  Te95  1  0.75501398  0.43571720  0.75733664  1
  Te  Te96  1  0.79718340  0.68287999  0.02741146  1
  Te  Te97  1  0.75320957  0.77198589  0.43560411  1
  Te  Te98  1  0.74552445  0.74928754  0.75352755  1
  Te  Te99  1  0.08967776  0.23918195  0.25842390  1
  Te  Te100  1  0.09088649  0.29205525  0.58593347  1
  Te  Te101  1  0.05290607  0.25182333  0.94555097  1
  Te  Te102  1  0.05291201  0.58361621  0.19893716  1
  Te  Te103  1  0.05995311  0.56220211  0.59153366  1
  Te  Te104  1  0.13114546  0.58840541  0.93707576  1
  Te  Te105  1  0.08555435  0.89621421  0.24886853  1
  Te  Te106  1  0.08552315  0.93198670  0.58210462  1
  Te  Te107  1  0.09360925  0.90788006  0.92538865  1
  Te  Te108  1  0.40565422  0.24528614  0.25563941  1
  Te  Te109  1  0.42957524  0.27124936  0.57279776  1
  Te  Te110  1  0.42563986  0.22714925  0.91619852  1
  Te  Te111  1  0.37777192  0.60025684  0.25941976  1
  Te  Te112  1  0.42216123  0.60324377  0.55742020  1
  Te  Te113  1  0.39690380  0.56010057  0.91718039  1
  Te  Te114  1  0.48369969  0.93664678  0.22789903  1
  Te  Te115  1  0.42657668  0.91167543  0.60070789  1
  Te  Te116  1  0.38118866  0.87753741  0.90593260  1
  Te  Te117  1  0.78060082  0.18843369  0.29572893  1
  Te  Te118  1  0.72641048  0.25893763  0.54595543  1
  Te  Te119  1  0.74942687  0.26911227  0.92228658  1
  Te  Te120  1  0.76797671  0.61700083  0.25731057  1
  Te  Te121  1  0.78026386  0.58435505  0.57475380  1
  Te  Te122  1  0.75832812  0.56049070  0.95145195  1
  Te  Te123  1  0.73382095  0.86819809  0.21720709  1
  Te  Te124  1  0.77037752  0.94273345  0.59088566  1
  Te  Te125  1  0.73643556  0.88912474  0.96994419  1
  Te  Te126  1  0.24000955  0.26739571  0.08828006  1
  Te  Te127  1  0.23725867  0.28400566  0.44047079  1
  Te  Te128  1  0.23070945  0.25048414  0.75924204  1
  Te  Te129  1  0.24393260  0.54914120  0.07746169  1
  Te  Te130  1  0.23705609  0.57806520  0.40866086  1
  Te  Te131  1  0.28120256  0.57832858  0.72104763  1
  Te  Te132  1  0.25105403  0.91661290  0.11386410  1
  Te  Te133  1  0.23925615  0.89666765  0.39280954  1
  Te  Te134  1  0.24643416  0.89911038  0.76045744  1
  Te  Te135  1  0.61396366  0.25204709  0.11565810  1
  Te  Te136  1  0.57480433  0.26814444  0.39110305  1
  Te  Te137  1  0.59004552  0.26233301  0.73215477  1
  Te  Te138  1  0.58286666  0.62136814  0.05989049  1
  Te  Te139  1  0.59306103  0.60763837  0.40792686  1
  Te  Te140  1  0.57488518  0.59321065  0.76600927  1
  Te  Te141  1  0.52994548  0.88350224  0.09212996  1
  Te  Te142  1  0.56469216  0.89521923  0.42677091  1
  Te  Te143  1  0.59119578  0.90697657  0.75504045  1
  Te  Te144  1  0.88833861  0.27110265  0.11084236  1
  Te  Te145  1  0.90003467  0.23357078  0.38046900  1
  Te  Te146  1  0.93243987  0.25622946  0.76452412  1
  Te  Te147  1  0.97503129  0.54543611  0.07140126  1
  Te  Te148  1  0.93827216  0.55150424  0.41315620  1
  Te  Te149  1  0.90451053  0.59684136  0.75727943  1
  Te  Te150  1  0.92625533  0.91513113  0.08058284  1
  Te  Te151  1  0.92939881  0.92587871  0.41473892  1
  Te  Te152  1  0.91998909  0.91332956  0.76263736  1
  Te  Te153  1  0.25412172  0.07315166  0.25406301  1
  Te  Te154  1  0.27585853  0.09881761  0.58563894  1
  Te  Te155  1  0.24837348  0.06892857  0.91419708  1
  Te  Te156  1  0.24456746  0.41181515  0.25042128  1
  Te  Te157  1  0.24063909  0.46339443  0.62253087  1
  Te  Te158  1  0.26113643  0.39058314  0.89366289  1
  Te  Te159  1  0.29227628  0.73213219  0.21481470  1
  Te  Te160  1  0.22755682  0.74375163  0.57099922  1
  Te  Te161  1  0.26688793  0.75825760  0.93976633  1
  Te  Te162  1  0.58207290  0.08512412  0.23306127  1
  Te  Te163  1  0.58787769  0.09669261  0.58620753  1
  Te  Te164  1  0.60989455  0.07559771  0.91449332  1
  Te  Te165  1  0.57933190  0.45161779  0.23566244  1
  Te  Te166  1  0.58845935  0.46192679  0.58422562  1
  Te  Te167  1  0.58918114  0.43240500  0.90733860  1
  Te  Te168  1  0.57171004  0.72720794  0.27471938  1
  Te  Te169  1  0.57723112  0.74111891  0.59588345  1
  Te  Te170  1  0.55400031  0.74477956  0.93427777  1
  Te  Te171  1  0.93056174  0.07117689  0.23839178  1
  Te  Te172  1  0.92815074  0.12187180  0.57965657  1
  Te  Te173  1  0.89210949  0.08033200  0.91299412  1
  Te  Te174  1  0.91920023  0.40549516  0.21179260  1
  Te  Te175  1  0.90100908  0.37189244  0.56920095  1
  Te  Te176  1  0.92424813  0.43729114  0.95032340  1
  Te  Te177  1  0.89750239  0.72432233  0.24572826  1
  Te  Te178  1  0.93127064  0.76039508  0.56801606  1
  Te  Te179  1  0.93744536  0.74679234  0.95906066  1
