# generated using pymatgen
data_In2Te3
_symmetry_space_group_name_H-M   'P 1'
_cell_length_a   18.77192971
_cell_length_b   18.77485771
_cell_length_c   18.77629011
_cell_angle_alpha   90.00818271
_cell_angle_beta   89.97186199
_cell_angle_gamma   89.97104979
_symmetry_Int_Tables_number   1
_chemical_formula_structural   In2Te3
_chemical_formula_sum   'In72 Te108'
_cell_volume   6617.51978409
_cell_formula_units_Z   36
loop_
 _symmetry_equiv_pos_site_id
 _symmetry_equiv_pos_as_xyz
  1  'x, y, z'
loop_
 _atom_site_type_symbol
 _atom_site_label
 _atom_site_symmetry_multiplicity
 _atom_site_fract_x
 _atom_site_fract_y
 _atom_site_fract_z
 _atom_site_occupancy
  In  In0  1  0.15106330  0.16880305  0.66593753  1
  In  In1  1  0.34720681  0.14067233  0.48203785  1
  In  In2  1  0.17932801  0.83130399  -0.00197519  1
  In  In3  1  0.82983315  0.17665908  0.34774593  1
  In  In4  1  0.00497088  0.16659175  0.14994328  1
  In  In5  1  0.33523743  0.50841492  0.15707706  1
  In  In6  1  0.33225600  0.65126506  -0.02439450  1
  In  In7  1  0.35540443  -0.02034157  0.33259181  1
  In  In8  1  0.50471719  -0.02330735  0.83099998  1
  In  In9  1  0.34328758  0.67520517  0.67321585  1
  In  In10  1  0.83137241  0.33845279  0.19175515  1
  In  In11  1  0.17511628  0.50151237  0.00517262  1
  In  In12  1  0.16706615  0.33833783  0.52244859  1
  In  In13  1  0.16350885  0.15772372  0.32963445  1
  In  In14  1  0.52416160  0.15901706  0.63715934  1
  In  In15  1  0.63539708  -0.00328387  0.32149609  1
  In  In16  1  0.17296290  0.68252679  0.49134169  1
  In  In17  1  -0.01078521  0.67727960  -0.01493755  1
  In  In18  1  0.17564674  0.53205129  0.32941645  1
  In  In19  1  0.51968369  0.67592207  0.16930378  1
  In  In20  1  0.66000161  0.32933287  0.33388262  1
  In  In21  1  0.35190958  0.35787168  0.68189084  1
  In  In22  1  -0.00240466  0.84513747  0.17812084  1
  In  In23  1  0.48837710  0.15385020  -0.00517355  1
  In  In24  1  -0.00206037  0.31298626  0.32890434  1
  In  In25  1  0.32696009  0.16297182  0.83695361  1
  In  In26  1  0.66135694  0.34748317  0.66887408  1
  In  In27  1  0.81752401  0.52071041  -0.00736902  1
  In  In28  1  0.83508213  0.67416297  0.14695268  1
  In  In29  1  0.81895976  0.14643863  0.00167532  1
  In  In30  1  0.17058571  -0.01509079  0.83482059  1
  In  In31  1  0.33375447  0.15633099  0.14163972  1
  In  In32  1  -0.00868603  -0.02430346  0.34584664  1
  In  In33  1  0.49988936  0.34519864  0.83156801  1
  In  In34  1  0.32553617  0.83290851  0.17799344  1
  In  In35  1  -0.01116824  0.67874535  0.66955939  1
  In  In36  1  0.51544921  0.83002703  0.66618294  1
  In  In37  1  -0.02268172  0.33870395  0.65977902  1
  In  In38  1  0.82256991  -0.01033734  0.81164289  1
  In  In39  1  0.02759027  0.33509960  -0.00396246  1
  In  In40  1  0.66002807  0.33139519  -0.00219446  1
  In  In41  1  0.01802136  0.00045920  -0.00997094  1
  In  In42  1  -0.01877032  -0.01947375  0.67028781  1
  In  In43  1  0.35229127  0.32540111  0.31703405  1
  In  In44  1  -0.00477532  0.51117627  0.82825018  1
  In  In45  1  0.67442031  0.50602123  0.52282289  1
  In  In46  1  0.82987947  0.81088126  -0.01091100  1
  In  In47  1  0.81606212  -0.01282285  0.18288300  1
  In  In48  1  0.49397504  0.51264571  -0.00897650  1
  In  In49  1  0.50634875  0.68397623  0.52059964  1
  In  In50  1  0.49069489  0.32243525  0.18480661  1
  In  In51  1  0.50804453  0.83567592  -0.00697044  1
  In  In52  1  0.16814030  0.82766148  0.66891060  1
  In  In53  1  0.35527010  -0.02309578  0.65822416  1
  In  In54  1  0.17228381  0.16650262  0.01174196  1
  In  In55  1  0.66963290  0.15123926  0.50625249  1
  In  In56  1  0.82167616  0.33592577  0.81569306  1
  In  In57  1  0.67206215  0.68875890  0.32802932  1
  In  In58  1  0.65502927  0.67692405  -0.02534404  1
  In  In59  1  0.16958481  0.34366464  0.87158616  1
  In  In60  1  0.01364254  0.68067798  0.33222235  1
  In  In61  1  0.81309103  -0.03739811  0.53109415  1
  In  In62  1  0.81217975  0.68948969  0.51320227  1
  In  In63  1  0.33415696  0.69775836  0.34202469  1
  In  In64  1  0.82716070  0.50638811  0.33426408  1
  In  In65  1  0.65896872  -0.01384223  -0.00537559  1
  In  In66  1  0.16901117  -0.00358749  0.47463502  1
  In  In67  1  0.52459625  0.33508103  0.50394847  1
  In  In68  1  0.82543024  0.15873998  0.66792389  1
  In  In69  1  0.17527432  0.51787634  0.68311984  1
  In  In70  1  -0.01358806  0.48347747  0.50617954  1
  In  In71  1  0.50720931  0.48347548  0.33930431  1
  Te  Te72  1  0.10260828  0.06043909  0.10077417  1
  Te  Te73  1  0.06142174  0.09205035  0.42081253  1
  Te  Te74  1  0.07383020  0.07156198  0.75391649  1
  Te  Te75  1  0.09190864  0.41905797  0.09647339  1
  Te  Te76  1  0.09295418  0.41928920  0.41307710  1
  Te  Te77  1  0.08698192  0.40577251  0.74748124  1
  Te  Te78  1  0.07607943  0.75421324  0.08406252  1
  Te  Te79  1  0.08476211  0.77617896  0.41881016  1
  Te  Te80  1  0.09125371  0.73790472  0.75734210  1
  Te  Te81  1  0.42409338  0.05467764  0.08324723  1
  Te  Te82  1  0.45336314  0.05133389  0.42652282  1
  Te  Te83  1  0.42220684  0.09011718  0.74134271  1
  Te  Te84  1  0.42086309  0.41019432  0.07828659  1
  Te  Te85  1  0.41089890  0.40985781  0.43071814  1
  Te  Te86  1  0.42261418  0.45538546  0.76708669  1
  Te  Te87  1  0.41518237  0.73765498  0.07679276  1
  Te  Te88  1  0.45073881  0.76454603  0.40584218  1
  Te  Te89  1  0.44003935  0.74654055  0.76522976  1
  Te  Te90  1  0.72534826  0.07861298  0.10006448  1
  Te  Te91  1  0.75808937  0.06114048  0.41582022  1
  Te  Te92  1  0.72690343  0.08346039  0.74702193  1
  Te  Te93  1  0.75252310  0.41738594  0.08512045  1
  Te  Te94  1  0.74992879  0.41132291  0.42564116  1
  Te  Te95  1  0.73074305  0.44154464  0.76239996  1
  Te  Te96  1  0.72458800  0.76076672  0.08743468  1
  Te  Te97  1  0.74232919  0.78318422  0.41944994  1
  Te  Te98  1  0.68339473  0.72362415  0.76876407  1
  Te  Te99  1  0.10015238  0.25548226  0.23037425  1
  Te  Te100  1  0.05819018  0.24246518  0.56997599  1
  Te  Te101  1  0.07882931  0.22339057  0.90569713  1
  Te  Te102  1  0.07798739  0.58956346  0.23627572  1
  Te  Te103  1  0.08482255  0.58256167  0.57417060  1
  Te  Te104  1  0.09241805  0.59175228  0.91078603  1
  Te  Te105  1  0.09570932  0.92209950  0.25667642  1
  Te  Te106  1  0.08449618  0.91654613  0.57712360  1
  Te  Te107  1  0.06862877  0.89128935  0.89937658  1
  Te  Te108  1  0.42988068  0.20332966  0.26439042  1
  Te  Te109  1  0.41077234  0.24973936  0.58167120  1
  Te  Te110  1  0.40683550  0.26155841  0.92136460  1
  Te  Te111  1  0.42391390  0.58424780  0.25683629  1
  Te  Te112  1  0.42734218  0.58203204  0.59189948  1
  Te  Te113  1  0.44227520  0.60354215  0.88526375  1
  Te  Te114  1  0.44377093  0.90490066  0.23691254  1
  Te  Te115  1  0.43578129  0.90264844  0.55946353  1
  Te  Te116  1  0.40635126  0.91920696  0.92360569  1
  Te  Te117  1  0.73513078  0.23161793  0.24152448  1
  Te  Te118  1  0.74975487  0.25909541  0.57984362  1
  Te  Te119  1  0.74246914  0.24002152  0.90715568  1
  Te  Te120  1  0.74328483  0.58823383  0.23736863  1
  Te  Te121  1  0.73653456  0.60728302  0.61684201  1
  Te  Te122  1  0.76194418  0.61226365  0.88919580  1
  Te  Te123  1  0.73574886  0.89872805  0.26859213  1
  Te  Te124  1  0.71808141  0.88638044  0.61858043  1
  Te  Te125  1  0.73836506  0.89654206  0.90175596  1
  Te  Te126  1  0.25512648  0.26579213  0.08205805  1
  Te  Te127  1  0.24778067  0.25023894  0.42301921  1
  Te  Te128  1  0.24625418  0.25878047  0.74637541  1
  Te  Te129  1  0.24185822  0.60861839  0.09335752  1
  Te  Te130  1  0.27611141  0.58634874  0.42999080  1
  Te  Te131  1  0.24816717  0.61076693  0.77088426  1
  Te  Te132  1  0.25731923  0.92356427  0.08217951  1
  Te  Te133  1  0.26394825  0.89984382  0.41805679  1
  Te  Te134  1  0.27217568  0.89892051  0.75921417  1
  Te  Te135  1  0.57710045  0.24031704  0.08629507  1
  Te  Te136  1  0.57423677  0.22602129  0.40916590  1
  Te  Te137  1  0.58286933  0.24472879  0.75030673  1
  Te  Te138  1  0.59809419  0.57985781  0.08024903  1
  Te  Te139  1  0.59296966  0.58418329  0.41680343  1
  Te  Te140  1  0.63155962  0.59100001  0.73641887  1
  Te  Te141  1  0.57509961  0.91856445  0.09679997  1
  Te  Te142  1  0.56902115  0.94440640  0.44686070  1
  Te  Te143  1  0.61065202  0.92987955  0.73362125  1
  Te  Te144  1  0.90368460  0.25459151  0.07615118  1
  Te  Te145  1  0.90476968  0.26958181  0.43396233  1
  Te  Te146  1  0.92269814  0.23583213  0.75851171  1
  Te  Te147  1  0.92955060  0.57345386  0.08138719  1
  Te  Te148  1  0.91119657  0.59531509  0.42814379  1
  Te  Te149  1  0.90379899  0.57194367  0.72977429  1
  Te  Te150  1  0.90502408  0.92452653  0.07231324  1
  Te  Te151  1  0.90147007  0.89442638  0.43030954  1
  Te  Te152  1  0.89659803  0.88062634  0.74062903  1
  Te  Te153  1  0.26111599  0.07388862  0.25230782  1
  Te  Te154  1  0.24906220  0.07719488  0.59064487  1
  Te  Te155  1  0.25767469  0.06627411  0.93068539  1
  Te  Te156  1  0.25317787  0.41968516  0.25133898  1
  Te  Te157  1  0.26323121  0.43829093  0.58523769  1
  Te  Te158  1  0.27332523  0.43765622  0.91377133  1
  Te  Te159  1  0.22954140  0.74658447  0.25151332  1
  Te  Te160  1  0.27070601  0.76653259  0.57287636  1
  Te  Te161  1  0.24898259  0.74613526  0.89724399  1
  Te  Te162  1  0.56681758  0.11507947  0.26797792  1
  Te  Te163  1  0.59375789  0.03987598  0.57647630  1
  Te  Te164  1  0.58777948  0.08528217  0.90223089  1
  Te  Te165  1  0.59728429  0.42394123  0.23198789  1
  Te  Te166  1  0.55902337  0.44345548  0.60424930  1
  Te  Te167  1  0.59879403  0.43647886  0.90667983  1
  Te  Te168  1  0.56044150  0.77599044  0.27363364  1
  Te  Te169  1  0.62204959  0.76898167  0.57267007  1
  Te  Te170  1  0.57562857  0.76342768  0.87619960  1
  Te  Te171  1  0.91716211  0.08845286  0.24755741  1
  Te  Te172  1  0.91035006  0.07504502  0.57334606  1
  Te  Te173  1  0.91291406  0.07371121  0.90676213  1
  Te  Te174  1  0.93420847  0.43206832  0.25356427  1
  Te  Te175  1  0.88406487  0.43908847  0.60394948  1
  Te  Te176  1  0.91565238  0.41279931  0.91953042  1
  Te  Te177  1  0.90152510  0.75665260  0.25670412  1
  Te  Te178  1  0.90827755  0.77533575  0.58968336  1
  Te  Te179  1  0.90018463  0.73576532  0.88169753  1
