# generated using pymatgen
data_In2Te3
_symmetry_space_group_name_H-M   'P 1'
_cell_length_a   18.77802231
_cell_length_b   18.77311338
_cell_length_c   18.77057977
_cell_angle_alpha   89.93999387
_cell_angle_beta   90.08563328
_cell_angle_gamma   90.06012371
_symmetry_Int_Tables_number   1
_chemical_formula_structural   In2Te3
_chemical_formula_sum   'In72 Te108'
_cell_volume   6617.02657960
_cell_formula_units_Z   36
loop_
 _symmetry_equiv_pos_site_id
 _symmetry_equiv_pos_as_xyz
  1  'x, y, z'
loop_
 _atom_site_type_symbol
 _atom_site_label
 _atom_site_symmetry_multiplicity
 _atom_site_fract_x
 _atom_site_fract_y
 _atom_site_fract_z
 _atom_site_occupancy
  In  In0  1  0.70125728  0.00016600  0.00934611  1
  In  In1  1  0.35761823  0.01326250  0.34441435  1
  In  In2  1  0.31064943  0.66265031  0.68585814  1
  In  In3  1  0.66643896  0.35175875  0.01346711  1
  In  In4  1  0.49991190  0.02270910  0.16952783  1
  In  In5  1  0.31114644  0.47389822  0.51312057  1
  In  In6  1  0.83216430  -0.00232953  0.16675032  1
  In  In7  1  0.52554088  0.84719033  0.33146373  1
  In  In8  1  0.00066310  -0.01126743  0.34318138  1
  In  In9  1  0.84386089  0.49335275  0.00064387  1
  In  In10  1  0.32386266  -0.00928268  0.67262943  1
  In  In11  1  0.51457833  0.66271755  0.50588171  1
  In  In12  1  0.52929822  0.51203328  0.00801317  1
  In  In13  1  0.66652647  -0.03543418  0.66357811  1
  In  In14  1  0.15596201  0.81062646  0.33723987  1
  In  In15  1  0.49861157  0.67527690  0.83665100  1
  In  In16  1  0.85188797  0.32607389  0.85026412  1
  In  In17  1  0.00291012  -0.01185764  -0.00332010  1
  In  In18  1  0.17136500  0.18100905  0.65631621  1
  In  In19  1  0.16158923  0.82780239  0.00481587  1
  In  In20  1  -0.02961447  0.65223099  0.34576342  1
  In  In21  1  0.84406827  0.50610122  0.65425094  1
  In  In22  1  0.83351289  0.34914090  0.45664562  1
  In  In23  1  0.84022790  0.65157119  0.17353089  1
  In  In24  1  0.52220163  0.66701109  0.14502619  1
  In  In25  1  0.33353291  0.84661595  0.50444640  1
  In  In26  1  0.48730473  0.17723772  0.01442494  1
  In  In27  1  0.32306064  0.32090270  -0.01563204  1
  In  In28  1  0.54047344  0.49969344  0.34148588  1
  In  In29  1  0.32200039  0.50022329  0.80049558  1
  In  In30  1  -0.00024235  0.19539970  0.18284609  1
  In  In31  1  0.84504900  0.65532028  0.82186868  1
  In  In32  1  0.83276986  0.80328193  0.36111827  1
  In  In33  1  0.01946033  0.17504736  0.81639017  1
  In  In34  1  0.12446252  0.52463389  -0.01933233  1
  In  In35  1  0.50494988  0.34050248  0.18753419  1
  In  In36  1  0.15047665  0.50200979  0.35752400  1
  In  In37  1  0.32737437  0.84134627  0.82257978  1
  In  In38  1  0.82720762  0.83649161  -0.01212649  1
  In  In39  1  0.84757436  0.17023602  0.68320847  1
  In  In40  1  0.66550812  0.16852089  0.48325192  1
  In  In41  1  0.14868780  0.64179567  0.54725921  1
  In  In42  1  0.33780916  0.67737546  -0.00029511  1
  In  In43  1  0.33908528  0.32566730  0.33235516  1
  In  In44  1  0.14027626  0.67180726  0.18626742  1
  In  In45  1  0.16309828  0.17326312  0.32974037  1
  In  In46  1  0.50132463  -0.00054997  0.81370519  1
  In  In47  1  0.14419485  -0.01481993  0.51992831  1
  In  In48  1  0.01114980  0.82151933  0.81522271  1
  In  In49  1  0.85587761  -0.02925213  0.84581653  1
  In  In50  1  0.14578723  0.31975823  0.14410267  1
  In  In51  1  0.32873051  0.50135550  0.16465403  1
  In  In52  1  0.52048843  0.32525265  0.51297037  1
  In  In53  1  -0.01612918  0.34588560  -0.01104364  1
  In  In54  1  0.65799889  0.15993769  0.82592833  1
  In  In55  1  0.68216640  0.83868424  0.17244835  1
  In  In56  1  0.47573761  0.16309169  0.65791592  1
  In  In57  1  0.81568952  0.00541468  0.51124356  1
  In  In58  1  0.65599809  0.33886635  0.64808465  1
  In  In59  1  0.19603835  0.14030556  -0.02294291  1
  In  In60  1  0.67437669  0.67199030  0.65215176  1
  In  In61  1  0.66458009  0.49170514  0.84523658  1
  In  In62  1  0.49471349  0.47961069  0.65532146  1
  In  In63  1  0.32565345  0.67562456  0.31519463  1
  In  In64  1  0.50654856  -0.00473593  0.48125022  1
  In  In65  1  0.14688555  0.35400955  0.80830831  1
  In  In66  1  0.50197733  0.83273162  -0.02542990  1
  In  In67  1  0.84122992  0.15664084  0.03368654  1
  In  In68  1  0.16630208  -0.00397266  0.16347304  1
  In  In69  1  -0.01141303  -0.00604229  0.66972977  1
  In  In70  1  0.51167453  0.17594266  0.33853039  1
  In  In71  1  0.14528165  0.34405421  0.50889180  1
  Te  Te72  1  0.07131979  0.09457855  0.08259462  1
  Te  Te73  1  0.07859993  0.09045343  0.42641308  1
  Te  Te74  1  0.09813517  0.06949839  0.74526083  1
  Te  Te75  1  0.06238965  0.43398670  0.08966261  1
  Te  Te76  1  0.04650587  0.43865153  0.44441400  1
  Te  Te77  1  0.08811807  0.44205253  0.70241231  1
  Te  Te78  1  0.06632657  0.74060453  0.07820438  1
  Te  Te79  1  0.07001514  0.72949946  0.43746689  1
  Te  Te80  1  0.08083000  0.70932973  0.74566558  1
  Te  Te81  1  0.39820452  0.07813443  0.07897582  1
  Te  Te82  1  0.41791212  0.11320714  0.44231001  1
  Te  Te83  1  0.38861290  0.09537941  0.76665411  1
  Te  Te84  1  0.41936821  0.41336990  0.07954327  1
  Te  Te85  1  0.42436282  0.42481407  0.41301410  1
  Te  Te86  1  0.40602963  0.39603864  0.73831685  1
  Te  Te87  1  0.42074780  0.76670475  0.09010420  1
  Te  Te88  1  0.41696224  0.75645080  0.41090710  1
  Te  Te89  1  0.42132190  0.75671154  0.73470461  1
  Te  Te90  1  0.72919711  0.10215982  0.12166504  1
  Te  Te91  1  0.75555959  0.08550538  0.40119211  1
  Te  Te92  1  0.75680832  0.06844725  0.75290782  1
  Te  Te93  1  0.75683260  0.42765601  0.10327461  1
  Te  Te94  1  0.75333279  0.45849306  0.39194461  1
  Te  Te95  1  0.75419966  0.40827168  0.75272196  1
  Te  Te96  1  0.75409080  0.74041710  0.08215353  1
  Te  Te97  1  0.74264295  0.71725094  0.44191833  1
  Te  Te98  1  0.75469264  0.74889165  0.74993547  1
  Te  Te99  1  0.07679305  0.28854068  0.27710413  1
  Te  Te100  1  0.06345518  0.23781292  0.57285739  1
  Te  Te101  1  0.09067744  0.25264881  0.92925338  1
  Te  Te102  1  0.05638772  0.56240280  0.25359440  1
  Te  Te103  1  0.04180577  0.54498976  0.58411717  1
  Te  Te104  1  0.07878400  0.61830626  0.87569164  1
  Te  Te105  1  0.07491365  0.90179493  0.24197678  1
  Te  Te106  1  0.06260229  0.88178847  0.59432008  1
  Te  Te107  1  0.09275432  0.92256896  0.89735784  1
  Te  Te108  1  0.41007392  0.23138082  0.23723896  1
  Te  Te109  1  0.40376249  0.27094812  0.58467382  1
  Te  Te110  1  0.42126134  0.24865521  0.90306759  1
  Te  Te111  1  0.42902495  0.58148427  0.24918211  1
  Te  Te112  1  0.40316968  0.58754291  0.58336366  1
  Te  Te113  1  0.40943955  0.56889513  0.91694231  1
  Te  Te114  1  0.41823329  0.91418159  0.24664447  1
  Te  Te115  1  0.43465619  0.91877661  0.59240159  1
  Te  Te116  1  0.40026988  0.93445337  0.92030913  1
  Te  Te117  1  0.81069563  0.26880187  0.26956685  1
  Te  Te118  1  0.75955761  0.24739706  0.58270754  1
  Te  Te119  1  0.74450073  0.24309329  0.92427373  1
  Te  Te120  1  0.78206324  0.58226907  0.29416652  1
  Te  Te121  1  0.78845910  0.61951208  0.56387672  1
  Te  Te122  1  0.74916056  0.58743389  0.92423643  1
  Te  Te123  1  0.76232661  0.91584448  0.27460701  1
  Te  Te124  1  0.75805930  0.88623280  0.57831761  1
  Te  Te125  1  0.72697787  0.90270411  0.89438094  1
  Te  Te126  1  0.25509427  0.23202499  0.08893112  1
  Te  Te127  1  0.24681854  0.25527840  0.42919729  1
  Te  Te128  1  0.24210444  0.25117420  0.76561232  1
  Te  Te129  1  0.23745094  0.59109731  0.08211130  1
  Te  Te130  1  0.24911758  0.59937052  0.42390740  1
  Te  Te131  1  0.20316391  0.58439229  0.75884465  1
  Te  Te132  1  0.25441379  0.92326906  0.07090100  1
  Te  Te133  1  0.23870492  0.92435710  0.40475969  1
  Te  Te134  1  0.22436511  0.90042044  0.73386959  1
  Te  Te135  1  0.59247282  0.24847759  0.10034398  1
  Te  Te136  1  0.60815456  0.28059819  0.39566234  1
  Te  Te137  1  0.57146516  0.25305431  0.74254059  1
  Te  Te138  1  0.62472854  0.56568902  0.10801728  1
  Te  Te139  1  0.61697732  0.61130592  0.40891154  1
  Te  Te140  1  0.57858417  0.57356096  0.74621819  1
  Te  Te141  1  0.58638578  0.91580580  0.08125407  1
  Te  Te142  1  0.61528140  0.91194686  0.42867915  1
  Te  Te143  1  0.58324826  0.88932171  0.76072769  1
  Te  Te144  1  0.89936042  0.27951717  0.10132897  1
  Te  Te145  1  0.90117455  0.23379429  0.38716743  1
  Te  Te146  1  0.94279456  0.27821667  0.73540480  1
  Te  Te147  1  0.93233199  0.58677712  0.07595622  1
  Te  Te148  1  0.87224865  0.56872184  0.42400924  1
  Te  Te149  1  0.93661098  0.61593806  0.70775774  1
  Te  Te150  1  0.92200739  0.90161268  0.09023523  1
  Te  Te151  1  0.92355917  0.90268483  0.44288078  1
  Te  Te152  1  0.89859464  0.88324818  0.72946272  1
  Te  Te153  1  0.25720217  0.08424355  0.25042050  1
  Te  Te154  1  0.25353295  0.07998384  0.57102414  1
  Te  Te155  1  0.27909976  0.05512620  0.89480138  1
  Te  Te156  1  0.24055352  0.41645921  0.25499716  1
  Te  Te157  1  0.22158634  0.41853458  0.61922091  1
  Te  Te158  1  0.23223239  0.42940492  0.92240643  1
  Te  Te159  1  0.25308993  0.77124837  0.22390412  1
  Te  Te160  1  0.23970473  0.76127129  0.58944776  1
  Te  Te161  1  0.24230822  0.74222225  0.90288442  1
  Te  Te162  1  0.59223487  0.06999590  0.27443293  1
  Te  Te163  1  0.59325590  0.08728464  0.59432136  1
  Te  Te164  1  0.58407420  0.07329751  0.92855883  1
  Te  Te165  1  0.61604301  0.42751205  0.23582979  1
  Te  Te166  1  0.60709578  0.45041829  0.55682661  1
  Te  Te167  1  0.56264458  0.39896418  0.90959714  1
  Te  Te168  1  0.60194291  0.73865542  0.25569698  1
  Te  Te169  1  0.58269592  0.76744722  0.58360593  1
  Te  Te170  1  0.59468544  0.72410342  0.93702868  1
  Te  Te171  1  0.91908454  0.08604345  0.25687981  1
  Te  Te172  1  0.92479276  0.09483735  0.57460293  1
  Te  Te173  1  0.91514942  0.09955934  0.91080806  1
  Te  Te174  1  0.88647318  0.38970993  0.30871058  1
  Te  Te175  1  0.91748421  0.40534530  0.57036653  1
  Te  Te176  1  0.93761096  0.44733030  0.88419492  1
  Te  Te177  1  0.92366916  0.75939222  0.24644452  1
  Te  Te178  1  0.96245013  0.77381094  0.54044910  1
  Te  Te179  1  0.92675017  0.74566577  0.91909603  1
