# generated using pymatgen
data_In2Te3
_symmetry_space_group_name_H-M   'P 1'
_cell_length_a   18.77283493
_cell_length_b   18.76637226
_cell_length_c   18.76895140
_cell_angle_alpha   89.95206804
_cell_angle_beta   90.07776983
_cell_angle_gamma   90.04530498
_symmetry_Int_Tables_number   1
_chemical_formula_structural   In2Te3
_chemical_formula_sum   'In72 Te108'
_cell_volume   6612.25373794
_cell_formula_units_Z   36
loop_
 _symmetry_equiv_pos_site_id
 _symmetry_equiv_pos_as_xyz
  1  'x, y, z'
loop_
 _atom_site_type_symbol
 _atom_site_label
 _atom_site_symmetry_multiplicity
 _atom_site_fract_x
 _atom_site_fract_y
 _atom_site_fract_z
 _atom_site_occupancy
  In  In0  1  0.18511816  -0.00914089  0.84157430  1
  In  In1  1  0.16664600  0.16039835  -0.01254862  1
  In  In2  1  0.19708304  -0.02274551  0.15898091  1
  In  In3  1  0.49601600  0.84853233  0.64862630  1
  In  In4  1  0.34079232  0.85072219  0.84768465  1
  In  In5  1  0.48790771  0.31843012  0.82429858  1
  In  In6  1  -0.00017195  0.31429848  0.67024438  1
  In  In7  1  0.03385081  0.81043388  0.13755236  1
  In  In8  1  0.15505592  0.31174842  0.82202743  1
  In  In9  1  0.00187585  -0.00501166  -0.02229201  1
  In  In10  1  0.50553648  0.66594250  0.85472506  1
  In  In11  1  0.51445658  0.49309775  0.02742100  1
  In  In12  1  0.66557472  0.15645428  0.19068541  1
  In  In13  1  0.79836347  0.50585274  0.64952187  1
  In  In14  1  0.00419939  0.50415327  0.86369110  1
  In  In15  1  0.18396111  0.14665405  0.65208091  1
  In  In16  1  0.35477943  0.81637459  0.21534974  1
  In  In17  1  0.01386674  -0.00363969  0.33998765  1
  In  In18  1  0.16826513  0.35819291  0.17777037  1
  In  In19  1  0.35409670  0.14166496  0.16935007  1
  In  In20  1  0.18280180  -0.00302849  0.48572870  1
  In  In21  1  0.18849767  0.50334939  0.65565532  1
  In  In22  1  0.67934495  0.49105177  0.81180785  1
  In  In23  1  0.83933548  0.85620500  0.33156198  1
  In  In24  1  0.82530583  0.83006500  0.01093617  1
  In  In25  1  0.33509797  0.65691694  0.65964663  1
  In  In26  1  -0.01565255  0.02734309  0.63407256  1
  In  In27  1  0.18245882  0.67031669  0.50099361  1
  In  In28  1  0.51691858  0.29771586  0.48352305  1
  In  In29  1  -0.00535859  0.49504690  0.49993908  1
  In  In30  1  0.16525818  0.51710710  0.01475671  1
  In  In31  1  0.82681233  0.01765809  0.81959236  1
  In  In32  1  0.34074779  0.50534478  0.81071722  1
  In  In33  1  0.00764203  0.66549730  0.33447850  1
  In  In34  1  0.66254573  0.67839458  -0.00513974  1
  In  In35  1  0.63524368  0.00000277  0.34478789  1
  In  In36  1  0.80720040  0.30696389  0.17235425  1
  In  In37  1  0.66411073  0.16893128  0.82384930  1
  In  In38  1  0.34414191  0.70357258  0.02319589  1
  In  In39  1  0.32417783  0.31721465  -0.01708508  1
  In  In40  1  0.82102138  0.65564372  0.16398398  1
  In  In41  1  -0.01309572  0.16768807  0.83013086  1
  In  In42  1  0.50682893  0.48567112  0.64304141  1
  In  In43  1  0.63739138  -0.01951385  0.03590596  1
  In  In44  1  0.50721639  0.32530999  0.19421375  1
  In  In45  1  0.80051704  0.31338740  0.48805597  1
  In  In46  1  0.84536608  0.48107818  0.00730148  1
  In  In47  1  0.02654147  0.84495927  0.84073376  1
  In  In48  1  0.80814196  0.66786610  0.51430795  1
  In  In49  1  -0.00093110  0.68739480  0.70036599  1
  In  In50  1  0.49935929  -0.00794089  0.83852092  1
  In  In51  1  0.35646398  0.83106718  0.48358236  1
  In  In52  1  0.80421330  0.47055766  0.34186631  1
  In  In53  1  0.02260960  0.51861279  0.17678093  1
  In  In54  1  0.80845411  -0.00332188  0.17740685  1
  In  In55  1  0.80984277  0.16186262  0.33631968  1
  In  In56  1  0.63214361  0.51482947  0.19975039  1
  In  In57  1  -0.00123958  0.86190935  0.49252231  1
  In  In58  1  0.34853176  0.51282302  0.47492717  1
  In  In59  1  0.36274884  0.50965726  0.20219272  1
  In  In60  1  0.35758634  0.01176491  0.34760407  1
  In  In61  1  0.18017780  0.51697368  0.33015689  1
  In  In62  1  0.19815802  0.30203078  0.47527497  1
  In  In63  1  0.64099489  0.83519656  0.48799503  1
  In  In64  1  0.83534783  0.68920272  0.82495371  1
  In  In65  1  0.31871940  0.15353203  0.83207019  1
  In  In66  1  0.00316986  0.19077970  0.16410376  1
  In  In67  1  0.66931478  0.82608133  0.81299917  1
  In  In68  1  -0.01409985  0.33121658  0.32753919  1
  In  In69  1  0.66560593  0.32123548  0.01065674  1
  In  In70  1  0.81594571  0.85140154  0.65611541  1
  In  In71  1  0.51970119  0.14666069  0.63739826  1
  Te  Te72  1  0.08336357  0.07769393  0.08913634  1
  Te  Te73  1  0.08514688  0.09168796  0.42645826  1
  Te  Te74  1  0.08687449  0.07931105  0.75773052  1
  Te  Te75  1  0.06980734  0.41280260  0.07486460  1
  Te  Te76  1  0.09191917  0.41597581  0.41357913  1
  Te  Te77  1  0.08317881  0.42868685  0.74182984  1
  Te  Te78  1  0.09477886  0.70647411  0.05599236  1
  Te  Te79  1  0.08981356  0.76330105  0.41865188  1
  Te  Te80  1  0.11029773  0.77324796  0.74259723  1
  Te  Te81  1  0.39752752  0.05255498  0.05929609  1
  Te  Te82  1  0.41714165  0.11913729  0.43661433  1
  Te  Te83  1  0.42275872  0.08475760  0.74459269  1
  Te  Te84  1  0.40923839  0.39876255  0.08730381  1
  Te  Te85  1  0.43816955  0.41162492  0.41196947  1
  Te  Te86  1  0.40611689  0.40066135  0.72315000  1
  Te  Te87  1  0.45098231  0.76738939  0.10530696  1
  Te  Te88  1  0.45373266  0.75498640  0.39598170  1
  Te  Te89  1  0.42430322  0.74762426  0.75224749  1
  Te  Te90  1  0.74195461  0.08848856  0.07710514  1
  Te  Te91  1  0.71177049  0.09822643  0.43506950  1
  Te  Te92  1  0.73844330  0.08580082  0.72280176  1
  Te  Te93  1  0.72896908  0.43635454  0.09927956  1
  Te  Te94  1  0.71052449  0.42894389  0.45040542  1
  Te  Te95  1  0.75340465  0.39220431  0.73313729  1
  Te  Te96  1  0.72706671  0.76317382  0.10680705  1
  Te  Te97  1  0.74882308  0.75750161  0.40666998  1
  Te  Te98  1  0.73855158  0.73082890  0.71515274  1
  Te  Te99  1  0.10082821  0.25042571  0.26619503  1
  Te  Te100  1  0.09318729  0.24273452  0.57144339  1
  Te  Te101  1  0.06404630  0.25779737  0.93052664  1
  Te  Te102  1  0.12251549  0.62602621  0.23195297  1
  Te  Te103  1  0.07609095  0.59275817  0.58389845  1
  Te  Te104  1  0.08707601  0.61251153  0.92654555  1
  Te  Te105  1  0.09089383  0.90274912  0.24574884  1
  Te  Te106  1  0.09028624  0.92702045  0.59545801  1
  Te  Te107  1  0.11855323  0.90281936  0.94897936  1
  Te  Te108  1  0.41518235  0.23448274  0.27120581  1
  Te  Te109  1  0.41195687  0.22824932  0.56872665  1
  Te  Te110  1  0.42562158  0.22148996  0.92398773  1
  Te  Te111  1  0.44592441  0.61628692  0.26812364  1
  Te  Te112  1  0.43846731  0.59898831  0.56430607  1
  Te  Te113  1  0.41337747  0.56935587  0.92984447  1
  Te  Te114  1  0.44269834  0.94684913  0.23663717  1
  Te  Te115  1  0.42749833  0.94393945  0.55575587  1
  Te  Te116  1  0.42111950  0.92780663  0.95008678  1
  Te  Te117  1  0.70745143  0.27646454  0.28690571  1
  Te  Te118  1  0.75016263  0.20864582  0.58003244  1
  Te  Te119  1  0.74983213  0.25517287  0.91103060  1
  Te  Te120  1  0.73867393  0.59412037  0.27715618  1
  Te  Te121  1  0.70210559  0.57375702  0.55777022  1
  Te  Te122  1  0.75502144  0.58604488  0.91692194  1
  Te  Te123  1  0.71516220  0.90510010  0.25411894  1
  Te  Te124  1  0.72999999  0.93119735  0.56703896  1
  Te  Te125  1  0.74754609  0.91814005  0.91350782  1
  Te  Te126  1  0.24569623  0.24630463  0.09512869  1
  Te  Te127  1  0.30451656  0.22208016  0.40844613  1
  Te  Te128  1  0.26035768  0.25561348  0.73072987  1
  Te  Te129  1  0.27984617  0.58004471  0.09259230  1
  Te  Te130  1  0.27839158  0.62380685  0.39199201  1
  Te  Te131  1  0.23315140  0.60318605  0.76248064  1
  Te  Te132  1  0.26880633  0.86367667  0.09766048  1
  Te  Te133  1  0.25781322  0.90190232  0.39233365  1
  Te  Te134  1  0.27601698  0.93272080  0.74232929  1
  Te  Te135  1  0.57035536  0.23415364  0.08933360  1
  Te  Te136  1  0.59146472  0.22335941  0.37723433  1
  Te  Te137  1  0.58482296  0.25758516  0.72600886  1
  Te  Te138  1  0.56952114  0.61430849  0.09938843  1
  Te  Te139  1  0.55216228  0.61723414  0.38404596  1
  Te  Te140  1  0.57372924  0.58020569  0.74782728  1
  Te  Te141  1  0.54616883  0.90518368  0.12431578  1
  Te  Te142  1  0.53200759  0.92218022  0.42532289  1
  Te  Te143  1  0.59394430  0.93173363  0.73368465  1
  Te  Te144  1  0.90478814  0.25663173  0.07628783  1
  Te  Te145  1  0.91787547  0.23353293  0.41947942  1
  Te  Te146  1  0.89228195  0.24244559  0.74264355  1
  Te  Te147  1  0.92682456  0.59070146  0.07690343  1
  Te  Te148  1  0.90398752  0.58000591  0.41108008  1
  Te  Te149  1  0.90958298  0.57179329  0.74822807  1
  Te  Te150  1  0.91873227  0.92087636  0.09335981  1
  Te  Te151  1  0.89457423  0.95651451  0.43251274  1
  Te  Te152  1  0.92065450  0.91877586  0.74735154  1
  Te  Te153  1  0.24710165  0.07840051  0.26090848  1
  Te  Te154  1  0.28073417  0.07039264  0.57117042  1
  Te  Te155  1  0.27726328  0.05981097  0.95384869  1
  Te  Te156  1  0.27419662  0.40713542  0.27669153  1
  Te  Te157  1  0.26369354  0.41302978  0.56049604  1
  Te  Te158  1  0.23918584  0.41886995  0.90604025  1
  Te  Te159  1  0.24602884  0.72234644  0.25602437  1
  Te  Te160  1  0.26020559  0.76938873  0.58749006  1
  Te  Te161  1  0.25835944  0.74605831  0.91223892  1
  Te  Te162  1  0.55234107  0.07318868  0.24101210  1
  Te  Te163  1  0.60427630  0.06563946  0.54614647  1
  Te  Te164  1  0.59209023  0.07599828  0.92627561  1
  Te  Te165  1  0.55179308  0.42990685  0.29374977  1
  Te  Te166  1  0.59701122  0.38794517  0.57654930  1
  Te  Te167  1  0.57500841  0.41672114  0.90779876  1
  Te  Te168  1  0.56716180  0.73369039  0.29099885  1
  Te  Te169  1  0.58156571  0.74414044  0.58929120  1
  Te  Te170  1  0.57469001  0.78243241  0.92537522  1
  Te  Te171  1  0.91404569  0.08624305  0.24565435  1
  Te  Te172  1  0.88609737  0.13112848  0.60006885  1
  Te  Te173  1  0.89740909  0.09476660  0.93249916  1
  Te  Te174  1  0.90759070  0.42544812  0.23487818  1
  Te  Te175  1  0.90295944  0.40275088  0.57592011  1
  Te  Te176  1  0.90370085  0.40228099  0.89774623  1
  Te  Te177  1  0.91786567  0.75532193  0.24352512  1
  Te  Te178  1  0.92252223  0.75274948  0.57668377  1
  Te  Te179  1  0.92777126  0.75815457  0.92369864  1
