# generated using pymatgen
data_In2Te3
_symmetry_space_group_name_H-M   'P 1'
_cell_length_a   18.89517040
_cell_length_b   18.90250775
_cell_length_c   18.88993566
_cell_angle_alpha   90.07173085
_cell_angle_beta   89.97100301
_cell_angle_gamma   90.05659439
_symmetry_Int_Tables_number   1
_chemical_formula_structural   In2Te3
_chemical_formula_sum   'In72 Te108'
_cell_volume   6746.83530533
_cell_formula_units_Z   36
loop_
 _symmetry_equiv_pos_site_id
 _symmetry_equiv_pos_as_xyz
  1  'x, y, z'
loop_
 _atom_site_type_symbol
 _atom_site_label
 _atom_site_symmetry_multiplicity
 _atom_site_fract_x
 _atom_site_fract_y
 _atom_site_fract_z
 _atom_site_occupancy
  In  In0  1  0.47680458  0.81046891  0.02485244  1
  In  In1  1  0.15899574  0.83474227  0.66105761  1
  In  In2  1  0.18672048  0.34357563  0.17232467  1
  In  In3  1  0.52112276  0.15850691  0.68074198  1
  In  In4  1  0.16626210  0.66826354  0.49600134  1
  In  In5  1  0.49866374  0.20890624  0.29572663  1
  In  In6  1  0.17488681  0.18919602  0.01077157  1
  In  In7  1  0.84431605  -0.00664144  0.50612419  1
  In  In8  1  0.33830012  -0.00400210  0.64987654  1
  In  In9  1  0.84914853  0.16924009  0.31336716  1
  In  In10  1  0.15044979  0.68421492  0.85895909  1
  In  In11  1  -0.04532282  0.19616272  0.15116150  1
  In  In12  1  -0.04380879  0.67233849  0.63180456  1
  In  In13  1  -0.02336118  0.31487665  0.66018415  1
  In  In14  1  0.15794297  -0.00469149  0.15406802  1
  In  In15  1  0.32229798  0.83567264  0.83228537  1
  In  In16  1  0.15936412  0.80343366  0.01376076  1
  In  In17  1  0.53791479  0.00541592  0.84945725  1
  In  In18  1  0.71040985  0.16011334  0.82390176  1
  In  In19  1  0.67467020  0.67325115  0.33328045  1
  In  In20  1  0.15648054  0.15907933  0.67108365  1
  In  In21  1  0.84640091  0.51983992  0.34627100  1
  In  In22  1  0.49193004  0.46548587  0.28338722  1
  In  In23  1  0.49405529  0.01113950  0.50033671  1
  In  In24  1  0.70051092  0.00159907  0.33412111  1
  In  In25  1  0.66862201  0.82111547  0.48683962  1
  In  In26  1  0.34140511  0.17868791  0.85426845  1
  In  In27  1  0.82208518  0.33455109  0.49462323  1
  In  In28  1  0.32519216  0.53087301  0.46929214  1
  In  In29  1  -0.01582865  0.84762121  0.82330687  1
  In  In30  1  0.51693232  0.49709448  0.68998713  1
  In  In31  1  -0.01253059  0.33032123  0.01942310  1
  In  In32  1  0.01432916  0.64289778  0.02200021  1
  In  In33  1  0.49104939  0.65136978  0.85318154  1
  In  In34  1  0.34810086  -0.00581130  0.33751742  1
  In  In35  1  0.81767257  0.51608235  0.66202902  1
  In  In36  1  0.85281475  0.79992872  0.40178516  1
  In  In37  1  0.65304396  0.50950074  0.85091859  1
  In  In38  1  0.16191516  0.00544682  0.51765433  1
  In  In39  1  0.81883107  0.82604396  -0.00780279  1
  In  In40  1  0.81231130  0.32622908  0.13595781  1
  In  In41  1  0.33582595  0.65466294  0.67320457  1
  In  In42  1  0.32396266  0.52057333  0.88324384  1
  In  In43  1  0.00525120  -0.00809510  -0.01725070  1
  In  In44  1  0.01396332  0.16093709  0.49306681  1
  In  In45  1  0.66912378  0.34901324  0.67718110  1
  In  In46  1  0.63848105  0.18492718  0.49877693  1
  In  In47  1  0.17145204  0.35431565  0.85394513  1
  In  In48  1  0.16870995  0.82458992  0.35490359  1
  In  In49  1  0.85330789  0.49918578  0.00972807  1
  In  In50  1  0.52148672  0.65719578  0.47607523  1
  In  In51  1  0.16363482  0.48913246  0.66372127  1
  In  In52  1  0.65697701  0.82652593  0.16901246  1
  In  In53  1  0.34069731  0.02223062  0.00749137  1
  In  In54  1  0.49697843  0.81526520  0.32588049  1
  In  In55  1  -0.00538226  0.79937815  0.18735179  1
  In  In56  1  0.83152184  0.00602454  0.14646641  1
  In  In57  1  0.34979095  0.33780404  0.66074290  1
  In  In58  1  0.19290827  0.52729551  0.02245211  1
  In  In59  1  0.18725605  0.36680839  0.39533297  1
  In  In60  1  0.33175541  0.67648693  0.32093890  1
  In  In61  1  -0.03516605  0.15929475  0.82521294  1
  In  In62  1  -0.01089341  -0.01093234  0.66188064  1
  In  In63  1  0.83940939  0.68489384  0.81802274  1
  In  In64  1  0.50194027  0.35543446  0.51077629  1
  In  In65  1  0.68062267  0.18735783  0.15190648  1
  In  In66  1  0.49094174  0.35441684  0.87812511  1
  In  In67  1  0.50610150  0.00455618  0.17310739  1
  In  In68  1  0.65406099  0.65520397  0.02116981  1
  In  In69  1  0.67881755  0.83506877  0.81437539  1
  In  In70  1  0.18238229  0.17296107  0.31722486  1
  In  In71  1  0.02152810  0.38143574  0.31848738  1
  Te  Te72  1  0.06816485  0.09635755  0.07657170  1
  Te  Te73  1  0.09518133  0.07430717  0.39995754  1
  Te  Te74  1  0.07277612  0.07044356  0.75968793  1
  Te  Te75  1  0.08765587  0.42534501  0.08669505  1
  Te  Te76  1  0.07073794  0.44052281  0.44495336  1
  Te  Te77  1  0.07346835  0.40204644  0.74741765  1
  Te  Te78  1  0.10458039  0.71275693  0.12392948  1
  Te  Te79  1  0.06165968  0.73007371  0.40645665  1
  Te  Te80  1  0.06923232  0.74190080  0.74163380  1
  Te  Te81  1  0.43919386  0.09955938  0.08353308  1
  Te  Te82  1  0.43514203  0.10389448  0.39608542  1
  Te  Te83  1  0.41269014  0.08261748  0.75810907  1
  Te  Te84  1  0.44170222  0.38329337  0.15835825  1
  Te  Te85  1  0.41011487  0.42114784  0.40951698  1
  Te  Te86  1  0.39928007  0.43555229  0.76987072  1
  Te  Te87  1  0.37629851  0.71645873  0.07481655  1
  Te  Te88  1  0.40893210  0.75022183  0.42989773  1
  Te  Te89  1  0.42128077  0.74933689  0.75512673  1
  Te  Te90  1  0.72062521  0.06814593  0.07501875  1
  Te  Te91  1  0.75603754  0.11061721  0.42475598  1
  Te  Te92  1  0.79015945  0.04836537  0.77071718  1
  Te  Te93  1  0.73386628  0.43527906  0.07199920  1
  Te  Te94  1  0.74934385  0.42652272  0.40751036  1
  Te  Te95  1  0.75571918  0.42873708  0.77178286  1
  Te  Te96  1  0.75897888  0.73649923  0.09854633  1
  Te  Te97  1  0.75889774  0.68427761  0.46733738  1
  Te  Te98  1  0.76017855  0.75646390  0.71899996  1
  Te  Te99  1  0.07356691  0.24921902  0.23319176  1
  Te  Te100  1  0.09413539  0.25980588  0.57670245  1
  Te  Te101  1  0.07470791  0.24761854  0.90942833  1
  Te  Te102  1  0.03352830  0.50099155  0.22298433  1
  Te  Te103  1  0.07601851  0.58557114  0.58591258  1
  Te  Te104  1  0.08541439  0.56088691  0.91544408  1
  Te  Te105  1  0.08480925  0.90539993  0.25148881  1
  Te  Te106  1  0.06283463  0.89888101  0.56336463  1
  Te  Te107  1  0.10008486  0.89983879  0.90820241  1
  Te  Te108  1  0.37609146  0.27212952  0.24070346  1
  Te  Te109  1  0.43317663  0.23914576  0.58134262  1
  Te  Te110  1  0.41376052  0.25595446  0.95535670  1
  Te  Te111  1  0.40377450  0.58027961  0.23164381  1
  Te  Te112  1  0.42690952  0.57111510  0.58410575  1
  Te  Te113  1  0.44655087  0.55841652  0.96410636  1
  Te  Te114  1  0.41175417  0.90112572  0.23363981  1
  Te  Te115  1  0.42844625  0.90628223  0.57837479  1
  Te  Te116  1  0.41973805  0.91684013  0.91783423  1
  Te  Te117  1  0.74827627  0.26779741  0.26345480  1
  Te  Te118  1  0.74216488  0.24701794  0.59249933  1
  Te  Te119  1  0.74776950  0.25364006  0.92951930  1
  Te  Te120  1  0.74757111  0.57631342  0.25084084  1
  Te  Te121  1  0.72079988  0.57568287  0.56877226  1
  Te  Te122  1  0.76188362  0.60175696  0.91852141  1
  Te  Te123  1  0.76732949  0.90205052  0.24177823  1
  Te  Te124  1  0.73865242  0.91763408  0.57359227  1
  Te  Te125  1  0.73816564  0.92228401  0.91898281  1
  Te  Te126  1  0.27328489  0.23696530  0.11158786  1
  Te  Te127  1  0.26073617  0.24251738  0.41941956  1
  Te  Te128  1  0.25022761  0.26134557  0.75067502  1
  Te  Te129  1  0.29362350  0.58780262  0.11205174  1
  Te  Te130  1  0.21795969  0.58817054  0.37619820  1
  Te  Te131  1  0.23731948  0.58141650  0.76362845  1
  Te  Te132  1  0.25254031  0.91224669  0.07004930  1
  Te  Te133  1  0.25854562  0.91963390  0.43514057  1
  Te  Te134  1  0.23953835  0.93085404  0.74652259  1
  Te  Te135  1  0.56416718  0.27026470  0.11034287  1
  Te  Te136  1  0.58220994  0.28465075  0.40029091  1
  Te  Te137  1  0.56184179  0.28129713  0.76010738  1
  Te  Te138  1  0.55962865  0.55511248  0.07025690  1
  Te  Te139  1  0.57688493  0.56034509  0.37773642  1
  Te  Te140  1  0.59806614  0.60922460  0.74979793  1
  Te  Te141  1  0.57926119  0.91383283  0.07343319  1
  Te  Te142  1  0.58226417  0.92114730  0.39499552  1
  Te  Te143  1  0.57989643  0.91758054  0.74227084  1
  Te  Te144  1  0.86660922  0.22479367  0.02455556  1
  Te  Te145  1  0.93121084  0.25718597  0.40904058  1
  Te  Te146  1  0.88215152  0.26051661  0.75936770  1
  Te  Te147  1  0.91845589  0.58160064  0.11622636  1
  Te  Te148  1  0.95723260  0.61218834  0.38342434  1
  Te  Te149  1  0.92667184  0.58069323  0.75042928  1
  Te  Te150  1  0.93318382  0.89817508  0.08126659  1
  Te  Te151  1  0.91889720  0.93169243  0.39684254  1
  Te  Te152  1  0.88155919  0.92075127  0.74310553  1
  Te  Te153  1  0.26223197  0.07033676  0.23674487  1
  Te  Te154  1  0.26230959  0.10468989  0.57537141  1
  Te  Te155  1  0.23664780  0.08637911  0.91585920  1
  Te  Te156  1  0.24273990  0.43219999  0.27528463  1
  Te  Te157  1  0.26555968  0.42680550  0.57071293  1
  Te  Te158  1  0.26677479  0.40292241  0.96055683  1
  Te  Te159  1  0.25635355  0.77912581  0.24617614  1
  Te  Te160  1  0.25953254  0.75131190  0.58359283  1
  Te  Te161  1  0.27474454  0.73003062  0.93312172  1
  Te  Te162  1  0.60111729  0.09131635  0.26064302  1
  Te  Te163  1  0.60380108  0.06799584  0.59131720  1
  Te  Te164  1  0.59465691  0.12441269  0.91149960  1
  Te  Te165  1  0.59635068  0.38949011  0.19967279  1
  Te  Te166  1  0.60931858  0.44511912  0.57454997  1
  Te  Te167  1  0.60272827  0.41577980  0.95618038  1
  Te  Te168  1  0.56628235  0.72182845  0.22993961  1
  Te  Te169  1  0.57638022  0.74926581  0.57559014  1
  Te  Te170  1  0.58331657  0.75248516  0.92416120  1
  Te  Te171  1  0.93385917  0.06905258  0.24005045  1
  Te  Te172  1  0.91474735  0.10096081  0.59040460  1
  Te  Te173  1  0.89384255  0.05469298  0.90629949  1
  Te  Te174  1  0.90528544  0.41348920  0.22566527  1
  Te  Te175  1  0.91003038  0.42607609  0.57895039  1
  Te  Te176  1  0.92847119  0.41555276  0.91605088  1
  Te  Te177  1  0.90320634  0.72311125  0.27964476  1
  Te  Te178  1  0.89242200  0.77356321  0.54897404  1
  Te  Te179  1  0.93829278  0.74282169  0.93137184  1
