# generated using pymatgen
data_In2Te3
_symmetry_space_group_name_H-M   'P 1'
_cell_length_a   18.96178810
_cell_length_b   18.96759357
_cell_length_c   18.93875365
_cell_angle_alpha   89.99572170
_cell_angle_beta   90.15322903
_cell_angle_gamma   90.05308215
_symmetry_Int_Tables_number   1
_chemical_formula_structural   In2Te3
_chemical_formula_sum   'In72 Te108'
_cell_volume   6811.47517806
_cell_formula_units_Z   36
loop_
 _symmetry_equiv_pos_site_id
 _symmetry_equiv_pos_as_xyz
  1  'x, y, z'
loop_
 _atom_site_type_symbol
 _atom_site_label
 _atom_site_symmetry_multiplicity
 _atom_site_fract_x
 _atom_site_fract_y
 _atom_site_fract_z
 _atom_site_occupancy
  In  In0  1  0.52601048  0.83759959  0.32831604  1
  In  In1  1  0.49321127  0.17474262  -0.01620306  1
  In  In2  1  -0.00040969  0.85458719  0.14904424  1
  In  In3  1  0.67970652  0.32516809  -0.01595393  1
  In  In4  1  -0.00478478  0.16271572  0.83599087  1
  In  In5  1  0.15607133  0.15396980  -0.01212000  1
  In  In6  1  0.68080738  0.66458732  0.69244479  1
  In  In7  1  0.51182121  -0.00975740  0.13732599  1
  In  In8  1  0.35185411  0.51855530  0.51159741  1
  In  In9  1  0.73946860  0.01304013  0.58000025  1
  In  In10  1  0.32786082  0.85308531  0.16101157  1
  In  In11  1  -0.00091931  0.15965502  0.51609686  1
  In  In12  1  0.00461380  0.33668094  0.03864134  1
  In  In13  1  0.51245636  0.68740549  0.50522141  1
  In  In14  1  0.67124961  0.53887087  0.16715579  1
  In  In15  1  0.64855245  -0.01241315  -0.02614641  1
  In  In16  1  0.32329215  0.32323425  0.66333551  1
  In  In17  1  0.32992204  0.00637141  0.36454867  1
  In  In18  1  -0.03920209  -0.01918618  0.69843989  1
  In  In19  1  0.37167865  0.66732580  0.32773955  1
  In  In20  1  0.49157602  0.31873763  0.52160654  1
  In  In21  1  0.67558911  0.33316397  0.66152221  1
  In  In22  1  0.32333207  0.02480016  -0.02111452  1
  In  In23  1  0.48389223  0.17021323  0.35896598  1
  In  In24  1  0.48908681  0.50218812  -0.00713425  1
  In  In25  1  0.67148944  -0.00198922  0.33913227  1
  In  In26  1  0.32294930  0.48543660  0.18170955  1
  In  In27  1  0.16768183  0.17446868  0.33435013  1
  In  In28  1  -0.00161993  0.66821358  0.31383953  1
  In  In29  1  0.49905860  0.31643959  0.80222227  1
  In  In30  1  0.68411261  0.81250945  0.84578107  1
  In  In31  1  0.31318237  0.33361115  0.33700378  1
  In  In32  1  0.48773894  0.00688129  0.79159875  1
  In  In33  1  0.19854064  0.66091754  0.16321908  1
  In  In34  1  0.82886156  -0.00335752  0.14332975  1
  In  In35  1  0.82170670  0.17353217  0.67340628  1
  In  In36  1  0.84418871  0.32392552  0.84727415  1
  In  In37  1  0.15759094  0.01110528  0.16263977  1
  In  In38  1  -0.05678934  0.67174294  -0.02884985  1
  In  In39  1  0.69855097  0.54726140  0.86476344  1
  In  In40  1  0.00452391  0.33110308  0.29466805  1
  In  In41  1  -0.00469815  0.49965721  0.85287359  1
  In  In42  1  0.00452655  0.50643105  0.52097259  1
  In  In43  1  0.82443024  0.33566748  0.16169825  1
  In  In44  1  0.18564904  0.16160021  0.66438785  1
  In  In45  1  0.51861100  0.81844045  -0.01955524  1
  In  In46  1  0.30176406  0.32012288  -0.01773292  1
  In  In47  1  0.51963752  -0.01278544  0.56233481  1
  In  In48  1  0.17550749  0.00088561  0.52609229  1
  In  In49  1  0.37094491  0.74326497  0.63602351  1
  In  In50  1  0.83848591  0.15088034  0.35198796  1
  In  In51  1  0.83581211  0.81590199  0.32045682  1
  In  In52  1  0.84676512  0.47999608  0.67836748  1
  In  In53  1  0.09848994  0.82234562  -0.04333035  1
  In  In54  1  -0.02118642  -0.00993302  -0.04270505  1
  In  In55  1  0.15266332  0.65252131  0.84420789  1
  In  In56  1  0.51076820  0.51127305  0.32203993  1
  In  In57  1  -0.00694481  -0.00931000  0.31627375  1
  In  In58  1  -0.00209494  0.83177592  0.48220530  1
  In  In59  1  0.67987581  0.16526362  0.17589839  1
  In  In60  1  0.18366452  0.83580650  0.67212435  1
  In  In61  1  0.34615289  0.67005615  0.00149101  1
  In  In62  1  0.18812840  0.50658436  0.31276735  1
  In  In63  1  -0.01236376  0.67558201  0.65158318  1
  In  In64  1  0.82957383  0.48156811  0.34413184  1
  In  In65  1  0.50767157  0.34830843  0.18791666  1
  In  In66  1  0.34330837  0.82921664  0.82751944  1
  In  In67  1  0.16090074  0.50944956  0.68694870  1
  In  In68  1  0.67024160  0.48731643  0.49308165  1
  In  In69  1  0.81390273  0.68484016  0.49063497  1
  In  In70  1  0.16798775  0.33263144  0.47132539  1
  In  In71  1  0.33386128  0.49002619  0.84057393  1
  Te  Te72  1  0.05712198  0.06785349  0.06664669  1
  Te  Te73  1  0.07988160  0.07230287  0.41743364  1
  Te  Te74  1  0.06833662  0.08368044  0.72987302  1
  Te  Te75  1  0.09865642  0.40966868  0.12239169  1
  Te  Te76  1  0.07984658  0.43351829  0.39910000  1
  Te  Te77  1  0.06717546  0.42049959  0.75236650  1
  Te  Te78  1  0.09799092  0.75499456  0.09125702  1
  Te  Te79  1  0.08437449  0.74480586  0.40381274  1
  Te  Te80  1  0.08353492  0.74748512  0.74652665  1
  Te  Te81  1  0.41341009  0.09230551  0.08308203  1
  Te  Te82  1  0.43569352  0.06492567  0.45510390  1
  Te  Te83  1  0.40463876  0.09847778  0.71083101  1
  Te  Te84  1  0.41194743  0.40177091  0.08114289  1
  Te  Te85  1  0.41579730  0.42480554  0.40614315  1
  Te  Te86  1  0.41554581  0.42240713  0.73252052  1
  Te  Te87  1  0.42645604  0.76226102  0.09081215  1
  Te  Te88  1  0.42132124  0.77536032  0.42152055  1
  Te  Te89  1  0.46032846  0.77641311  0.75186307  1
  Te  Te90  1  0.73415224  0.08321826  0.06317691  1
  Te  Te91  1  0.73406542  0.08950668  0.44058184  1
  Te  Te92  1  0.73166961  0.06612115  0.72284674  1
  Te  Te93  1  0.73513825  0.42632340  0.07911626  1
  Te  Te94  1  0.77066258  0.39110633  0.44391668  1
  Te  Te95  1  0.74216028  0.42554689  0.77591069  1
  Te  Te96  1  0.70434866  0.68972058  0.16550886  1
  Te  Te97  1  0.72744959  0.77071059  0.40949774  1
  Te  Te98  1  0.78688738  0.74028608  0.76485171  1
  Te  Te99  1  0.07525329  0.22116573  0.23084006  1
  Te  Te100  1  0.09551440  0.25696985  0.58010554  1
  Te  Te101  1  0.07078023  0.26100516  0.92218971  1
  Te  Te102  1  0.08652225  0.57939267  0.22536415  1
  Te  Te103  1  0.10278233  0.60367634  0.58152281  1
  Te  Te104  1  0.07171207  0.58583903  0.95174928  1
  Te  Te105  1  0.09924582  0.90430816  0.25446048  1
  Te  Te106  1  0.06650448  0.91850249  0.59560525  1
  Te  Te107  1  0.09706690  0.94646643  0.87911105  1
  Te  Te108  1  0.41045445  0.25091932  0.25277558  1
  Te  Te109  1  0.41815835  0.22133192  0.60706551  1
  Te  Te110  1  0.39819896  0.24370624  0.88938748  1
  Te  Te111  1  0.43246091  0.58510731  0.21586993  1
  Te  Te112  1  0.43467237  0.60256498  0.60351905  1
  Te  Te113  1  0.42537837  0.60028658  0.89397055  1
  Te  Te114  1  0.42323589  0.93244291  0.25075491  1
  Te  Te115  1  0.43221377  0.88505043  0.62467469  1
  Te  Te116  1  0.42975069  0.92692318  0.92083193  1
  Te  Te117  1  0.75607415  0.25177798  0.27163701  1
  Te  Te118  1  0.76577203  0.26291480  0.56871868  1
  Te  Te119  1  0.74090461  0.23047644  0.89233716  1
  Te  Te120  1  0.75899149  0.59560241  0.27956888  1
  Te  Te121  1  0.76277374  0.57221127  0.58701544  1
  Te  Te122  1  0.80019061  0.61013181  0.95430616  1
  Te  Te123  1  0.74674754  0.91343875  0.23934994  1
  Te  Te124  1  0.69347210  0.88260556  0.63968385  1
  Te  Te125  1  0.76081320  0.92994736  0.89666210  1
  Te  Te126  1  0.24850165  0.22528294  0.07860374  1
  Te  Te127  1  0.27017755  0.22619994  0.43631000  1
  Te  Te128  1  0.23106675  0.26372203  0.75917473  1
  Te  Te129  1  0.25929917  0.56340737  0.06534161  1
  Te  Te130  1  0.26632334  0.59335772  0.41046511  1
  Te  Te131  1  0.26134172  0.59989440  0.75360342  1
  Te  Te132  1  0.23968944  0.92877204  0.06421987  1
  Te  Te133  1  0.24246025  0.91139664  0.43163520  1
  Te  Te134  1  0.24753660  0.92498875  0.77092610  1
  Te  Te135  1  0.58126763  0.24889051  0.09031548  1
  Te  Te136  1  0.57913298  0.26030534  0.42133684  1
  Te  Te137  1  0.58927019  0.22997647  0.72386739  1
  Te  Te138  1  0.58313770  0.59805631  0.05651836  1
  Te  Te139  1  0.59418273  0.59438727  0.41657154  1
  Te  Te140  1  0.59408972  0.57249721  0.76645961  1
  Te  Te141  1  0.60914748  0.88932180  0.08411006  1
  Te  Te142  1  0.58766740  0.92102208  0.43835981  1
  Te  Te143  1  0.59374586  0.90243124  0.75832531  1
  Te  Te144  1  0.89526051  0.24530790  0.07253750  1
  Te  Te145  1  0.93919483  0.24885274  0.40909163  1
  Te  Te146  1  0.92746479  0.25990502  0.73885608  1
  Te  Te147  1  0.88844252  0.59305078  0.07994753  1
  Te  Te148  1  0.91867934  0.59180092  0.42638485  1
  Te  Te149  1  0.91792796  0.58953190  0.75535307  1
  Te  Te150  1  0.89250803  0.89610173  0.05144676  1
  Te  Te151  1  0.89793488  0.92316197  0.41094750  1
  Te  Te152  1  0.88918866  0.87769267  0.77748519  1
  Te  Te153  1  0.25760854  0.08190060  0.25356377  1
  Te  Te154  1  0.28206628  0.05727198  0.61564046  1
  Te  Te155  1  0.24466854  0.10010782  0.88216106  1
  Te  Te156  1  0.21623289  0.37968374  0.22151466  1
  Te  Te157  1  0.24449304  0.42705333  0.56959508  1
  Te  Te158  1  0.22654721  0.42491466  0.91399554  1
  Te  Te159  1  0.26556445  0.75616046  0.25942652  1
  Te  Te160  1  0.24447035  0.75776953  0.56494113  1
  Te  Te161  1  0.24522690  0.75490998  0.92435363  1
  Te  Te162  1  0.57600559  0.08133596  0.25121172  1
  Te  Te163  1  0.61170349  0.09321926  0.61626042  1
  Te  Te164  1  0.57382333  0.08970533  0.88924107  1
  Te  Te165  1  0.61494293  0.42148963  0.26165250  1
  Te  Te166  1  0.57370060  0.42498825  0.59173171  1
  Te  Te167  1  0.56685297  0.39874612  0.91269212  1
  Te  Te168  1  0.58821927  0.72553215  0.26131854  1
  Te  Te169  1  0.61898525  0.75485999  0.58745172  1
  Te  Te170  1  0.61373388  0.71417987  0.93438767  1
  Te  Te171  1  0.91094864  0.08690086  0.23370987  1
  Te  Te172  1  0.90085428  0.06593821  0.58232369  1
  Te  Te173  1  0.88560821  0.07996763  0.88844897  1
  Te  Te174  1  0.91747461  0.43646437  0.23012276  1
  Te  Te175  1  0.93003370  0.40087272  0.58703281  1
  Te  Te176  1  0.90782688  0.41845514  0.94486607  1
  Te  Te177  1  0.91468315  0.74453793  0.21299359  1
  Te  Te178  1  0.89624205  0.77478736  0.58115736  1
  Te  Te179  1  0.96539873  0.79222900  0.88408332  1
