# generated using pymatgen
data_In2Te3
_symmetry_space_group_name_H-M   'P 1'
_cell_length_a   18.78189418
_cell_length_b   18.78394469
_cell_length_c   18.77678664
_cell_angle_alpha   90.08526577
_cell_angle_beta   90.01736794
_cell_angle_gamma   90.01385887
_symmetry_Int_Tables_number   1
_chemical_formula_structural   In2Te3
_chemical_formula_sum   'In72 Te108'
_cell_volume   6624.40609560
_cell_formula_units_Z   36
loop_
 _symmetry_equiv_pos_site_id
 _symmetry_equiv_pos_as_xyz
  1  'x, y, z'
loop_
 _atom_site_type_symbol
 _atom_site_label
 _atom_site_symmetry_multiplicity
 _atom_site_fract_x
 _atom_site_fract_y
 _atom_site_fract_z
 _atom_site_occupancy
  In  In0  1  0.31483586  0.65010749  -0.01280687  1
  In  In1  1  0.52763910  0.35236887  0.17765932  1
  In  In2  1  0.49181467  0.50042363  -0.01375552  1
  In  In3  1  0.34793591  0.33138343  0.66905941  1
  In  In4  1  0.18500796  0.67044739  0.52578706  1
  In  In5  1  0.17777461  0.33738979  0.15742730  1
  In  In6  1  0.51683108  0.65043927  0.16131816  1
  In  In7  1  0.00544066  0.80347320  0.16487626  1
  In  In8  1  0.35561521  0.15259226  0.15846903  1
  In  In9  1  0.50438790  0.01031490  0.84068582  1
  In  In10  1  0.79934081  0.15832751  0.69165732  1
  In  In11  1  0.00959361  0.67305096  0.00945985  1
  In  In12  1  0.67865894  0.65533437  0.35524331  1
  In  In13  1  0.54727764  -0.01461700  0.49880673  1
  In  In14  1  0.18086751  0.17842289  0.69594687  1
  In  In15  1  0.01378512  0.83372240  0.83216280  1
  In  In16  1  0.50584660  0.17611878  0.32653584  1
  In  In17  1  0.51179308  0.34925256  0.50480149  1
  In  In18  1  0.67877662  0.32573467  -0.00880480  1
  In  In19  1  0.51112277  0.31549154  0.82355538  1
  In  In20  1  0.18607205  0.33496905  0.81336744  1
  In  In21  1  0.64252354  0.66928049  -0.01340370  1
  In  In22  1  0.84999413  0.51237794  0.35582387  1
  In  In23  1  0.49860495  0.81792812  0.65767344  1
  In  In24  1  0.82928294  0.80612924  0.33567551  1
  In  In25  1  0.36162344  0.50550613  0.51981436  1
  In  In26  1  0.66321935  0.17684530  0.15998637  1
  In  In27  1  -0.04160574  0.00501735  0.30833482  1
  In  In28  1  0.01106385  0.35834987  0.31682640  1
  In  In29  1  0.14879891  0.50341199  0.65810983  1
  In  In30  1  -0.03237465  0.32264909  0.01677658  1
  In  In31  1  0.65844095  0.17629808  0.51399982  1
  In  In32  1  0.50037603  0.82857359  -0.00681240  1
  In  In33  1  0.67188548  0.83925134  0.84574884  1
  In  In34  1  0.80673638  0.18907578  0.31628281  1
  In  In35  1  0.00381409  0.81568698  0.51593291  1
  In  In36  1  0.00543593  0.17292959  0.50111505  1
  In  In37  1  0.80154556  0.00746893  0.17222136  1
  In  In38  1  0.82537787  0.65046432  0.18194160  1
  In  In39  1  0.00053212  -0.00821145  -0.02186953  1
  In  In40  1  0.34080916  0.18221423  0.52982381  1
  In  In41  1  0.15869957  0.67938365  0.83878605  1
  In  In42  1  0.68522692  0.82658789  0.18482400  1
  In  In43  1  0.67733163  0.52103684  0.51555237  1
  In  In44  1  0.82189640  0.49537375  0.00728510  1
  In  In45  1  0.17234775  0.15141500  -0.01648496  1
  In  In46  1  0.32129558  -0.03460721  0.69919895  1
  In  In47  1  0.13688123  0.53115264  0.31479643  1
  In  In48  1  0.81328612  -0.01445952  0.51261999  1
  In  In49  1  0.47916213  0.00450592  0.16833707  1
  In  In50  1  0.32854264  0.49768955  0.16134746  1
  In  In51  1  0.33311339  0.48109540  0.82288978  1
  In  In52  1  0.82759276  0.33272193  0.51645565  1
  In  In53  1  0.18442298  0.82060581  0.33434682  1
  In  In54  1  0.32945808  0.81485802  0.51463753  1
  In  In55  1  0.13422881  -0.01356490  0.51482546  1
  In  In56  1  0.81852467  0.86374120  -0.00673096  1
  In  In57  1  0.33551864  -0.01589680  -0.00234606  1
  In  In58  1  0.00786585  -0.01621460  0.64829347  1
  In  In59  1  0.33873759  0.66456880  0.33749430  1
  In  In60  1  0.15827543  -0.01194240  0.14491950  1
  In  In61  1  0.80588788  0.36770949  0.81304493  1
  In  In62  1  0.15097172  0.50315474  -0.01143699  1
  In  In63  1  0.83898364  0.82782401  0.66647139  1
  In  In64  1  0.84495973  0.65744140  0.81275668  1
  In  In65  1  0.00265059  0.16916089  0.82808636  1
  In  In66  1  -0.00780944  0.35615257  0.64683293  1
  In  In67  1  0.49818913  0.67294310  0.50868136  1
  In  In68  1  0.36133504  -0.00651969  0.32915192  1
  In  In69  1  0.17888629  0.18234475  0.33888611  1
  In  In70  1  0.15952796  0.35051597  0.46156614  1
  In  In71  1  0.64563987  0.02702720  -0.00783335  1
  Te  Te72  1  0.06803810  0.08986453  0.07726130  1
  Te  Te73  1  0.07688988  0.08188515  0.40034159  1
  Te  Te74  1  0.08913305  0.06979591  0.75081390  1
  Te  Te75  1  0.06964255  0.41707830  0.08612950  1
  Te  Te76  1  0.05292464  0.45585694  0.42982427  1
  Te  Te77  1  0.07127747  0.42104767  0.76174597  1
  Te  Te78  1  0.10709232  0.76955224  0.06423699  1
  Te  Te79  1  0.09215940  0.73598077  0.41975734  1
  Te  Te80  1  0.05247279  0.72272656  0.74336965  1
  Te  Te81  1  0.43940124  0.08783771  0.04800399  1
  Te  Te82  1  0.42537374  0.09402173  0.42795096  1
  Te  Te83  1  0.40919435  0.07408503  0.74515991  1
  Te  Te84  1  0.41638376  0.40607655  0.07820607  1
  Te  Te85  1  0.41782846  0.41928424  0.41478933  1
  Te  Te86  1  0.44467972  0.42904478  0.73358364  1
  Te  Te87  1  0.41860289  0.72873819  0.07490872  1
  Te  Te88  1  0.42766342  0.76677512  0.40905425  1
  Te  Te89  1  0.42958972  0.71023754  0.73018300  1
  Te  Te90  1  0.75887919  0.10457792  0.06171649  1
  Te  Te91  1  0.75159931  0.09569725  0.42251037  1
  Te  Te92  1  0.71678408  0.07181512  0.77658111  1
  Te  Te93  1  0.76440215  0.39057121  0.09621738  1
  Te  Te94  1  0.74618323  0.41960251  0.42166162  1
  Te  Te95  1  0.70813325  0.44410858  0.72464791  1
  Te  Te96  1  0.75630679  0.73994877  0.07341822  1
  Te  Te97  1  0.75820143  0.74041386  0.44875764  1
  Te  Te98  1  0.73708172  0.74255153  0.74653388  1
  Te  Te99  1  0.08371574  0.24735008  0.23912594  1
  Te  Te100  1  0.10200045  0.25795198  0.58598951  1
  Te  Te101  1  0.08635777  0.26396842  0.91725744  1
  Te  Te102  1  0.05327736  0.61262154  0.22760777  1
  Te  Te103  1  0.06506063  0.59904885  0.58150945  1
  Te  Te104  1  0.05580986  0.57906689  0.89853659  1
  Te  Te105  1  0.07670377  0.91332379  0.25986275  1
  Te  Te106  1  0.10841291  0.87229903  0.61225480  1
  Te  Te107  1  0.11260050  0.91268134  0.91537340  1
  Te  Te108  1  0.41322215  0.26454631  0.24507340  1
  Te  Te109  1  0.46112855  0.23729854  0.61071812  1
  Te  Te110  1  0.39555119  0.26939961  0.90159318  1
  Te  Te111  1  0.42641095  0.56898729  0.25420187  1
  Te  Te112  1  0.42476220  0.60126810  0.62143909  1
  Te  Te113  1  0.41881091  0.59172120  0.89107384  1
  Te  Te114  1  0.41702216  0.89122358  0.23853005  1
  Te  Te115  1  0.41481857  0.92843951  0.57466181  1
  Te  Te116  1  0.41085342  0.89806407  0.89311187  1
  Te  Te117  1  0.73344947  0.28771303  0.23310658  1
  Te  Te118  1  0.72856087  0.27098223  0.61455389  1
  Te  Te119  1  0.75612594  0.25114408  0.88860087  1
  Te  Te120  1  0.72188090  0.55702416  0.24407205  1
  Te  Te121  1  0.77320185  0.57059032  0.62194507  1
  Te  Te122  1  0.74396263  0.58207682  0.90563132  1
  Te  Te123  1  0.73854753  0.92752723  0.29301353  1
  Te  Te124  1  0.72885291  0.90702003  0.60258184  1
  Te  Te125  1  0.75619534  0.95960172  0.89460572  1
  Te  Te126  1  0.26026947  0.23932009  0.07458533  1
  Te  Te127  1  0.28014192  0.26560878  0.41546000  1
  Te  Te128  1  0.30190787  0.23263608  0.78525976  1
  Te  Te129  1  0.22501847  0.58677957  0.09349815  1
  Te  Te130  1  0.25284759  0.57178615  0.42733454  1
  Te  Te131  1  0.24172186  0.57958903  0.75145835  1
  Te  Te132  1  0.27196029  0.90371900  0.10495788  1
  Te  Te133  1  0.25170145  0.92662475  0.42380838  1
  Te  Te134  1  0.20915509  0.92507855  0.78502016  1
  Te  Te135  1  0.56729385  0.25235348  0.06786285  1
  Te  Te136  1  0.59775465  0.26763569  0.40645109  1
  Te  Te137  1  0.57457202  0.23298654  0.71835700  1
  Te  Te138  1  0.60219755  0.55424515  0.07867785  1
  Te  Te139  1  0.56721529  0.57159388  0.41852552  1
  Te  Te140  1  0.62671650  0.54662324  0.79968820  1
  Te  Te141  1  0.60271144  0.90632316  0.07896801  1
  Te  Te142  1  0.60850926  0.92159749  0.38495060  1
  Te  Te143  1  0.57881998  0.91292011  0.74869434  1
  Te  Te144  1  0.89446376  0.22824079  0.09979761  1
  Te  Te145  1  0.91984456  0.26066943  0.40981830  1
  Te  Te146  1  0.91475111  0.25808175  0.73596525  1
  Te  Te147  1  0.92375296  0.57518597  0.09103104  1
  Te  Te148  1  0.94000841  0.58139603  0.44869356  1
  Te  Te149  1  0.89059858  0.54814416  0.72351608  1
  Te  Te150  1  0.90893540  0.91633515  0.10481542  1
  Te  Te151  1  0.92196982  0.91496395  0.42858017  1
  Te  Te152  1  0.91669513  0.92492753  0.75659238  1
  Te  Te153  1  0.24955312  0.07952727  0.24749081  1
  Te  Te154  1  0.23617139  0.08405756  0.58302190  1
  Te  Te155  1  0.25494318  0.06273951  0.89873090  1
  Te  Te156  1  0.23882179  0.42712894  0.26492427  1
  Te  Te157  1  0.24987095  0.41187019  0.58294359  1
  Te  Te158  1  0.25552638  0.40843904  0.93241473  1
  Te  Te159  1  0.25375300  0.73353875  0.23856994  1
  Te  Te160  1  0.26418921  0.74635599  0.62783630  1
  Te  Te161  1  0.26413319  0.76124941  0.90381868  1
  Te  Te162  1  0.58846541  0.07499397  0.24760225  1
  Te  Te163  1  0.59489886  0.07671820  0.60412115  1
  Te  Te164  1  0.60468211  0.12013921  0.87967419  1
  Te  Te165  1  0.60315058  0.45284969  0.25287575  1
  Te  Te166  1  0.58070865  0.44119651  0.60014831  1
  Te  Te167  1  0.59781429  0.42583604  0.90295434  1
  Te  Te168  1  0.58792479  0.74151385  0.26237575  1
  Te  Te169  1  0.60477971  0.75233352  0.57551511  1
  Te  Te170  1  0.55979125  0.73937102  0.88123396  1
  Te  Te171  1  0.90736644  0.12185357  0.21969177  1
  Te  Te172  1  0.90817182  0.09321176  0.58903292  1
  Te  Te173  1  0.91227324  0.08927234  0.91270757  1
  Te  Te174  1  0.90388366  0.42866303  0.24578754  1
  Te  Te175  1  0.89623347  0.45232878  0.58166296  1
  Te  Te176  1  0.91317265  0.41895207  0.91023187  1
  Te  Te177  1  0.93896218  0.71374398  0.27384740  1
  Te  Te178  1  0.89109115  0.73072354  0.56398153  1
  Te  Te179  1  0.90345214  0.75877764  0.92166395  1
