# generated using pymatgen
data_In2Te3
_symmetry_space_group_name_H-M   'P 1'
_cell_length_a   18.76395863
_cell_length_b   18.77393808
_cell_length_c   18.78100647
_cell_angle_alpha   89.99317080
_cell_angle_beta   90.01232731
_cell_angle_gamma   90.02211421
_symmetry_Int_Tables_number   1
_chemical_formula_structural   In2Te3
_chemical_formula_sum   'In72 Te108'
_cell_volume   6616.04826234
_cell_formula_units_Z   36
loop_
 _symmetry_equiv_pos_site_id
 _symmetry_equiv_pos_as_xyz
  1  'x, y, z'
loop_
 _atom_site_type_symbol
 _atom_site_label
 _atom_site_symmetry_multiplicity
 _atom_site_fract_x
 _atom_site_fract_y
 _atom_site_fract_z
 _atom_site_occupancy
  In  In0  1  0.65484248  0.32276205  0.00237003  1
  In  In1  1  0.63352249  0.14906472  0.19072132  1
  In  In2  1  0.82319887  0.17023535  0.00157455  1
  In  In3  1  0.21294929  -0.02981009  0.19066648  1
  In  In4  1  0.15422928  0.32035532  0.48990512  1
  In  In5  1  0.01598073  0.17023823  0.81420484  1
  In  In6  1  0.64862959  0.01480490  0.33182430  1
  In  In7  1  0.66813686  0.32323053  0.66472963  1
  In  In8  1  0.29021882  0.82878173  0.85043981  1
  In  In9  1  0.33525595  0.14228552  0.83441505  1
  In  In10  1  0.18890152  0.14067289  0.33752301  1
  In  In11  1  0.16118439  0.51560924  0.68134516  1
  In  In12  1  0.50304681  0.32239609  0.84278206  1
  In  In13  1  0.85302010  0.64639634  0.17075595  1
  In  In14  1  0.02518297  0.67492941  0.68619677  1
  In  In15  1  0.49245355  0.31767771  0.16833582  1
  In  In16  1  0.63475306  0.83244981  0.16124719  1
  In  In17  1  0.32486684  0.32936578  0.00839630  1
  In  In18  1  0.85440087  0.45793559  0.64507427  1
  In  In19  1  0.65604574  0.85674194  0.82953276  1
  In  In20  1  0.01344612  0.84781999  0.48508521  1
  In  In21  1  0.32595391  0.49157433  0.17085543  1
  In  In22  1  0.67931270  0.65358381  0.00621039  1
  In  In23  1  0.48635928  0.15452414  0.65558527  1
  In  In24  1  0.84750336  0.83303122  0.34049153  1
  In  In25  1  0.83700051  0.86068287  0.65486783  1
  In  In26  1  0.46398386  0.68242713  0.46655761  1
  In  In27  1  0.19316961  0.67253676  0.50132907  1
  In  In28  1  0.17529274  0.69020627  0.18201460  1
  In  In29  1  0.81386804  0.13817385  0.67407746  1
  In  In30  1  0.46990961  0.70059465  0.16885460  1
  In  In31  1  0.48200800  0.82881649  -0.00245243  1
  In  In32  1  0.84244258  0.17446937  0.36247268  1
  In  In33  1  0.00906009  0.50940199  0.84385520  1
  In  In34  1  0.14623614  0.34263247  0.82368786  1
  In  In35  1  0.01917842  0.67869789  0.03694383  1
  In  In36  1  0.84230470  0.33579468  0.83668459  1
  In  In37  1  0.01108524  0.65263016  0.32770392  1
  In  In38  1  0.82462692  0.49507877  0.32575318  1
  In  In39  1  0.33543593  0.30959285  0.64814649  1
  In  In40  1  0.83331016  0.85091653  -0.00816171  1
  In  In41  1  0.16626722  0.14739863  0.64394128  1
  In  In42  1  0.32699415  0.49660614  0.47501612  1
  In  In43  1  0.66137836  0.86059851  0.49919861  1
  In  In44  1  0.52292389  0.50298815  0.67172583  1
  In  In45  1  0.02954087  -0.00786532  0.33747740  1
  In  In46  1  0.64598851  0.66838552  0.67407522  1
  In  In47  1  0.15316701  0.51627609  0.00683890  1
  In  In48  1  0.48203885  -0.00338972  0.49554973  1
  In  In49  1  0.68281810  0.51564924  0.15836800  1
  In  In50  1  0.49381131  0.49945716  0.33065531  1
  In  In51  1  0.03494201  0.83935465  0.83589967  1
  In  In52  1  0.82528497  0.65738591  0.84453647  1
  In  In53  1  -0.00005591  0.34485257  0.34257538  1
  In  In54  1  0.35877437  0.51587870  0.84490096  1
  In  In55  1  0.84459115  0.33822527  0.18927617  1
  In  In56  1  0.63541987  -0.02461263  -0.00754000  1
  In  In57  1  0.00843394  0.01276119  0.66670749  1
  In  In58  1  0.17358345  0.16913817  -0.00377821  1
  In  In59  1  0.01408905  0.00157225  -0.01163790  1
  In  In60  1  0.83788605  -0.01115971  0.14954178  1
  In  In61  1  0.50403227  0.86733422  0.65820873  1
  In  In62  1  0.47952479  0.65140898  0.82795592  1
  In  In63  1  0.65549844  0.32613153  0.35662124  1
  In  In64  1  0.83214617  0.66765669  0.49420363  1
  In  In65  1  0.18453687  -0.00124594  0.47777233  1
  In  In66  1  0.33683502  0.68469552  0.66289163  1
  In  In67  1  0.48311847  0.18047325  0.34480931  1
  In  In68  1  0.00052515  0.16269736  0.16634078  1
  In  In69  1  0.65825376  0.49038310  0.50576511  1
  In  In70  1  0.50676876  0.00420211  0.82335567  1
  In  In71  1  0.17833023  0.33547375  0.16038257  1
  Te  Te72  1  0.10076990  0.07061250  0.10045275  1
  Te  Te73  1  0.07463468  0.09810891  0.43480870  1
  Te  Te74  1  0.11613696  0.06649153  0.76493533  1
  Te  Te75  1  0.08151028  0.40673085  0.07457272  1
  Te  Te76  1  0.10031602  0.43166191  0.40864571  1
  Te  Te77  1  0.05429000  0.41724786  0.72871473  1
  Te  Te78  1  0.12089800  0.77957652  0.07391508  1
  Te  Te79  1  0.09809800  0.75220445  0.40527367  1
  Te  Te80  1  0.12553616  0.78117688  0.72692159  1
  Te  Te81  1  0.39330147  0.03362528  0.10015446  1
  Te  Te82  1  0.38990536  0.08519211  0.41708847  1
  Te  Te83  1  0.39591402  0.05310857  0.72765851  1
  Te  Te84  1  0.42585658  0.42111070  0.07710528  1
  Te  Te85  1  0.42686722  0.40308438  0.41977019  1
  Te  Te86  1  0.41401565  0.41176456  0.74342092  1
  Te  Te87  1  0.37077668  0.77418896  0.08253407  1
  Te  Te88  1  0.37068300  0.77691869  0.39916950  1
  Te  Te89  1  0.42633830  0.77441599  0.75712859  1
  Te  Te90  1  0.73153169  0.07752695  0.08560178  1
  Te  Te91  1  0.73677725  0.09040845  0.42473731  1
  Te  Te92  1  0.73569681  0.05411168  0.76698684  1
  Te  Te93  1  0.75744973  0.40652324  0.08281310  1
  Te  Te94  1  0.76187845  0.40489233  0.43226536  1
  Te  Te95  1  0.74907530  0.42334639  0.74849320  1
  Te  Te96  1  0.75684144  0.76051193  0.08901543  1
  Te  Te97  1  0.73765471  0.75582104  0.41425395  1
  Te  Te98  1  0.74989063  0.76004247  0.74277761  1
  Te  Te99  1  0.08868618  0.24201847  0.26227107  1
  Te  Te100  1  0.08012692  0.26008983  0.60380492  1
  Te  Te101  1  0.07116951  0.25941469  0.92710538  1
  Te  Te102  1  0.09344739  0.57657302  0.23187767  1
  Te  Te103  1  0.08275592  0.58954914  0.57300228  1
  Te  Te104  1  0.09239247  0.62421031  0.90265559  1
  Te  Te105  1  0.09171442  0.89961538  0.24258597  1
  Te  Te106  1  0.10122055  0.92140916  0.58346629  1
  Te  Te107  1  0.11791988  0.90495675  0.94107889  1
  Te  Te108  1  0.39302083  0.26940778  0.26461963  1
  Te  Te109  1  0.40965323  0.22971758  0.55043901  1
  Te  Te110  1  0.41399208  0.23273482  0.92912525  1
  Te  Te111  1  0.40037194  0.59398443  0.25833237  1
  Te  Te112  1  0.42210999  0.58229450  0.58524391  1
  Te  Te113  1  0.41439608  0.60230240  0.95068243  1
  Te  Te114  1  0.36408251  0.89575990  0.27385815  1
  Te  Te115  1  0.38895354  0.90305428  0.57034053  1
  Te  Te116  1  0.40695450  0.91946387  0.90030765  1
  Te  Te117  1  0.74719105  0.23761064  0.25111718  1
  Te  Te118  1  0.75376793  0.23868340  0.58103530  1
  Te  Te119  1  0.73663225  0.24279453  0.89911287  1
  Te  Te120  1  0.73994544  0.60860852  0.26560754  1
  Te  Te121  1  0.74746506  0.58284880  0.59231544  1
  Te  Te122  1  0.75884734  0.55636705  0.92858938  1
  Te  Te123  1  0.74383102  0.91628819  0.24864343  1
  Te  Te124  1  0.75810498  0.94904071  0.56741569  1
  Te  Te125  1  0.76244998  0.94904618  0.90020386  1
  Te  Te126  1  0.26828394  0.22439638  0.10281060  1
  Te  Te127  1  0.25897704  0.23810710  0.42593533  1
  Te  Te128  1  0.24728572  0.24703505  0.75864361  1
  Te  Te129  1  0.25527300  0.59542577  0.08436354  1
  Te  Te130  1  0.24677225  0.58742760  0.39205645  1
  Te  Te131  1  0.25580673  0.60191192  0.76503837  1
  Te  Te132  1  0.29748445  0.92725982  0.07239197  1
  Te  Te133  1  0.25153023  0.90263856  0.38197653  1
  Te  Te134  1  0.22397394  0.90173851  0.74172180  1
  Te  Te135  1  0.56331098  0.22057921  0.07519579  1
  Te  Te136  1  0.59714348  0.21652494  0.43655336  1
  Te  Te137  1  0.58143350  0.23002628  0.75093140  1
  Te  Te138  1  0.57074635  0.59859487  0.09787072  1
  Te  Te139  1  0.58037813  0.58900233  0.41978365  1
  Te  Te140  1  0.60230614  0.57111341  0.78343782  1
  Te  Te141  1  0.53336552  0.93514743  0.10312504  1
  Te  Te142  1  0.55908850  0.90622815  0.39622795  1
  Te  Te143  1  0.61847078  0.95661469  0.71646932  1
  Te  Te144  1  0.91991578  0.25876485  0.08070303  1
  Te  Te145  1  0.92307258  0.26777269  0.44922472  1
  Te  Te146  1  0.91340249  0.24822497  0.73566436  1
  Te  Te147  1  0.91751825  0.57418103  0.06054664  1
  Te  Te148  1  0.92103294  0.56990423  0.42137064  1
  Te  Te149  1  0.91131438  0.58459522  0.73793511  1
  Te  Te150  1  0.94337767  0.90247045  0.08532829  1
  Te  Te151  1  0.90945469  0.94181979  0.42577710  1
  Te  Te152  1  0.92810682  0.92142433  0.76117488  1
  Te  Te153  1  0.29671088  0.08015638  0.24992898  1
  Te  Te154  1  0.27299769  0.07831031  0.56905665  1
  Te  Te155  1  0.24510706  0.06390200  0.92184651  1
  Te  Te156  1  0.24907648  0.40957035  0.26666414  1
  Te  Te157  1  0.25096556  0.42737255  0.59376765  1
  Te  Te158  1  0.24622249  0.42170056  0.91134257  1
  Te  Te159  1  0.27820355  0.77172202  0.26807437  1
  Te  Te160  1  0.27362961  0.78206223  0.56765519  1
  Te  Te161  1  0.22963588  0.70595411  0.90341565  1
  Te  Te162  1  0.52611588  0.06348591  0.25248827  1
  Te  Te163  1  0.58190052  0.08253561  0.56639874  1
  Te  Te164  1  0.57047221  0.08953593  0.92523626  1
  Te  Te165  1  0.59901238  0.41186508  0.24227901  1
  Te  Te166  1  0.56296304  0.39285025  0.57448835  1
  Te  Te167  1  0.57116448  0.42049376  0.92881298  1
  Te  Te168  1  0.56371175  0.76025399  0.26778784  1
  Te  Te169  1  0.56827422  0.75028601  0.57174906  1
  Te  Te170  1  0.59323413  0.75152796  0.92052498  1
  Te  Te171  1  0.90901452  0.07574623  0.25406492  1
  Te  Te172  1  0.91888366  0.08960284  0.57928087  1
  Te  Te173  1  0.92113325  0.09413899  0.91063475  1
  Te  Te174  1  0.94073004  0.44401724  0.23928762  1
  Te  Te175  1  0.93991461  0.38904883  0.55027001  1
  Te  Te176  1  0.92554498  0.42007795  0.92618852  1
  Te  Te177  1  0.93345054  0.75523390  0.24197498  1
  Te  Te178  1  0.92685989  0.75333056  0.58194442  1
  Te  Te179  1  0.92264188  0.75335211  0.91428803  1
