# generated using pymatgen
data_In2Te3
_symmetry_space_group_name_H-M   'P 1'
_cell_length_a   18.97544263
_cell_length_b   18.97518765
_cell_length_c   18.96239034
_cell_angle_alpha   90.09484776
_cell_angle_beta   89.90670793
_cell_angle_gamma   89.92152788
_symmetry_Int_Tables_number   1
_chemical_formula_structural   In2Te3
_chemical_formula_sum   'In72 Te108'
_cell_volume   6827.62244152
_cell_formula_units_Z   36
loop_
 _symmetry_equiv_pos_site_id
 _symmetry_equiv_pos_as_xyz
  1  'x, y, z'
loop_
 _atom_site_type_symbol
 _atom_site_label
 _atom_site_symmetry_multiplicity
 _atom_site_fract_x
 _atom_site_fract_y
 _atom_site_fract_z
 _atom_site_occupancy
  In  In0  1  0.13844093  0.66783688  0.50962781  1
  In  In1  1  0.02411922  0.36411116  0.37347158  1
  In  In2  1  0.00160099  0.65459831  -0.00116558  1
  In  In3  1  0.01625001  0.51917059  0.20998262  1
  In  In4  1  0.15781276  0.80902120  0.00795152  1
  In  In5  1  0.64594533  0.01745037  0.63154326  1
  In  In6  1  0.49399527  0.83967716  0.32385140  1
  In  In7  1  0.66735900  0.34035822  0.29859673  1
  In  In8  1  0.33196449  0.67889300  0.33812834  1
  In  In9  1  0.01014257  0.81795792  0.52354852  1
  In  In10  1  0.50185417  0.16013562  0.31034662  1
  In  In11  1  0.66479209  0.83834401  0.85114259  1
  In  In12  1  0.17979847  0.83039006  0.34039473  1
  In  In13  1  0.83950041  0.51600541  0.36668242  1
  In  In14  1  0.48248990  0.32614579  0.50436936  1
  In  In15  1  0.47965404  -0.00919050  0.84265116  1
  In  In16  1  0.31112157  0.66090513  0.64196149  1
  In  In17  1  0.01563872  0.31900616  -0.00271756  1
  In  In18  1  -0.00328586  -0.02689292  0.33685158  1
  In  In19  1  0.18988639  0.01948846  0.21029908  1
  In  In20  1  0.16381957  0.18329863  0.66880192  1
  In  In21  1  0.51105364  0.67860540  0.81949001  1
  In  In22  1  0.82657287  0.01852547  0.85775327  1
  In  In23  1  0.00469061  0.02925546  0.68578916  1
  In  In24  1  0.66675548  0.81481119  0.48415125  1
  In  In25  1  0.70539462  0.48002164  0.81225824  1
  In  In26  1  0.31193387  0.33143802  0.35233474  1
  In  In27  1  0.67129872  0.50707711  0.48591584  1
  In  In28  1  0.50260439  0.50459701  0.33966388  1
  In  In29  1  0.82700358  0.81090331  0.32419092  1
  In  In30  1  0.65474435  0.32172037  0.00594159  1
  In  In31  1  0.14772762  0.34857131  0.83449011  1
  In  In32  1  0.34634649  0.15760132  0.83260233  1
  In  In33  1  0.47208425  0.52223907  0.64287412  1
  In  In34  1  0.31593294  0.65962955  0.00718501  1
  In  In35  1  0.15118346  0.49701383  0.01248775  1
  In  In36  1  0.82619369  0.18868240  0.34264560  1
  In  In37  1  0.17963215  0.31100564  0.18647459  1
  In  In38  1  0.85622437  0.31601672  0.83214929  1
  In  In39  1  0.49620162  0.34972944  0.80392448  1
  In  In40  1  0.67390114  0.66079063  0.65320593  1
  In  In41  1  0.50083195  0.66090832  0.17435091  1
  In  In42  1  0.29697014  0.33605446  0.62025815  1
  In  In43  1  0.30457970  0.53246283  0.81744404  1
  In  In44  1  0.82904450  -0.01802457  0.15578764  1
  In  In45  1  0.48493966  0.13295425  0.01408777  1
  In  In46  1  0.82198956  0.51089662  -0.01134431  1
  In  In47  1  0.48445380  0.02067007  0.48358858  1
  In  In48  1  0.79976445  0.00500685  0.47466940  1
  In  In49  1  0.01627256  0.17168287  0.51661795  1
  In  In50  1  0.49715187  0.50504159  0.01783215  1
  In  In51  1  0.66529780  0.18497166  0.82132043  1
  In  In52  1  0.66715175  -0.01179232  0.01402287  1
  In  In53  1  0.66781788  0.83290113  0.16201184  1
  In  In54  1  -0.02489448  0.65440366  0.66273421  1
  In  In55  1  0.33409391  0.31347595  0.00259789  1
  In  In56  1  0.84047506  0.18250678  0.65903250  1
  In  In57  1  0.00080487  0.16757215  0.18380999  1
  In  In58  1  0.35350201  -0.00788062  0.01436932  1
  In  In59  1  0.50230604  0.33229315  0.14752319  1
  In  In60  1  0.48568797  0.83591033  0.68064946  1
  In  In61  1  0.85108323  0.82232963  0.66502604  1
  In  In62  1  -0.00002998  0.81928257  0.84750472  1
  In  In63  1  -0.00461073  -0.00457819  0.01536051  1
  In  In64  1  0.18598664  -0.00267963  0.47853634  1
  In  In65  1  0.68778210  0.34219529  0.66233351  1
  In  In66  1  0.82220278  0.66693950  0.18130415  1
  In  In67  1  0.17615119  0.84387172  0.68150446  1
  In  In68  1  0.33942854  0.84107307  0.17563922  1
  In  In69  1  0.00680819  0.51676468  0.81615116  1
  In  In70  1  0.84890978  0.34327891  0.14553217  1
  In  In71  1  0.32719630  0.00408921  0.67423408  1
  Te  Te72  1  0.09360924  0.07821512  0.10714214  1
  Te  Te73  1  0.07603311  0.07728701  0.41220140  1
  Te  Te74  1  0.11853828  0.07877435  0.76106637  1
  Te  Te75  1  0.07416976  0.40609248  0.10912611  1
  Te  Te76  1  0.15628571  0.37687312  0.45277394  1
  Te  Te77  1  0.05898692  0.40684065  0.73426411  1
  Te  Te78  1  0.08610281  0.71954747  0.09938538  1
  Te  Te79  1  0.06503868  0.75120238  0.39983218  1
  Te  Te80  1  0.07427812  0.74744229  0.73659167  1
  Te  Te81  1  0.40847248  0.07506266  0.12581267  1
  Te  Te82  1  0.39321755  0.10061285  0.39598673  1
  Te  Te83  1  0.43925500  0.08853444  0.73485614  1
  Te  Te84  1  0.39408272  0.42356958  0.09052910  1
  Te  Te85  1  0.40402646  0.42923045  0.42736279  1
  Te  Te86  1  0.38972396  0.43000771  0.73248348  1
  Te  Te87  1  0.41446890  0.74676275  0.08375002  1
  Te  Te88  1  0.41408284  0.76532607  0.42290995  1
  Te  Te89  1  0.39215155  0.73988796  0.74878950  1
  Te  Te90  1  0.75979884  0.08210848  0.07584351  1
  Te  Te91  1  0.71376132  0.10068269  0.39580483  1
  Te  Te92  1  0.74836654  0.07986453  0.73917476  1
  Te  Te93  1  0.73757273  0.42364282  0.08129361  1
  Te  Te94  1  0.74588316  0.39711679  0.41371640  1
  Te  Te95  1  0.80891290  0.41058557  0.72386340  1
  Te  Te96  1  0.76517461  0.75784889  0.08159339  1
  Te  Te97  1  0.75843879  0.72111509  0.41925553  1
  Te  Te98  1  0.74448782  0.75468882  0.74933095  1
  Te  Te99  1  0.07751636  0.25145680  0.28202647  1
  Te  Te100  1  0.08632666  0.28097839  0.58757875  1
  Te  Te101  1  0.12096388  0.24268517  0.93169907  1
  Te  Te102  1  0.12400340  0.54100901  0.31198483  1
  Te  Te103  1  0.04890779  0.56245655  0.57020255  1
  Te  Te104  1  0.10389028  0.59122616  0.90353948  1
  Te  Te105  1  0.09034522  0.90740967  0.24126946  1
  Te  Te106  1  0.08369184  0.93444945  0.58673925  1
  Te  Te107  1  0.08756055  0.91462046  0.92221961  1
  Te  Te108  1  0.41353249  0.27130075  0.25047993  1
  Te  Te109  1  0.39630871  0.23755730  0.58196489  1
  Te  Te110  1  0.44728620  0.25462777  0.91580716  1
  Te  Te111  1  0.40208819  0.57600026  0.25013710  1
  Te  Te112  1  0.41648827  0.61715012  0.54734390  1
  Te  Te113  1  0.42459260  0.57644804  0.90540347  1
  Te  Te114  1  0.42880473  0.94179601  0.23732177  1
  Te  Te115  1  0.41382935  0.92184149  0.58061084  1
  Te  Te116  1  0.41624538  0.89129983  0.92616196  1
  Te  Te117  1  0.75721789  0.24656706  0.22057966  1
  Te  Te118  1  0.74539273  0.24530468  0.56867994  1
  Te  Te119  1  0.75847136  0.24494466  0.92407266  1
  Te  Te120  1  0.75040083  0.56897065  0.26189999  1
  Te  Te121  1  0.76576213  0.56696810  0.58475863  1
  Te  Te122  1  0.72799461  0.58818855  0.90813892  1
  Te  Te123  1  0.74399755  0.92095926  0.26494742  1
  Te  Te124  1  0.74596696  0.90773042  0.58934949  1
  Te  Te125  1  0.77160809  0.90306544  0.93584776  1
  Te  Te126  1  0.25807950  0.22771557  0.09310335  1
  Te  Te127  1  0.22734510  0.22519394  0.41032611  1
  Te  Te128  1  0.26322740  0.26414538  0.76030524  1
  Te  Te129  1  0.23896555  0.57535257  0.09854726  1
  Te  Te130  1  0.23288101  0.59486649  0.41755421  1
  Te  Te131  1  0.21558518  0.57058330  0.70878157  1
  Te  Te132  1  0.23659033  0.91964834  0.09437882  1
  Te  Te133  1  0.27857505  0.92631241  0.39019638  1
  Te  Te134  1  0.25390481  0.92584523  0.77315438  1
  Te  Te135  1  0.58547272  0.21798019  0.09177115  1
  Te  Te136  1  0.56984434  0.27109239  0.39226962  1
  Te  Te137  1  0.57616838  0.25207179  0.72020461  1
  Te  Te138  1  0.59109661  0.59891766  0.07491199  1
  Te  Te139  1  0.57952229  0.59938618  0.42015278  1
  Te  Te140  1  0.58651396  0.56638797  0.74197570  1
  Te  Te141  1  0.56913110  0.92142390  0.09779644  1
  Te  Te142  1  0.58338698  0.92073544  0.41872304  1
  Te  Te143  1  0.59216998  0.92485032  0.74629562  1
  Te  Te144  1  0.91914494  0.22972702  0.07260690  1
  Te  Te145  1  0.92417813  0.26146947  0.43289029  1
  Te  Te146  1  0.93734828  0.21296089  0.76471912  1
  Te  Te147  1  0.92324107  0.56086713  0.09320417  1
  Te  Te148  1  0.98287542  0.56926529  0.39171755  1
  Te  Te149  1  0.89474571  0.60543925  0.77746752  1
  Te  Te150  1  0.92234461  0.89254068  0.08854420  1
  Te  Te151  1  0.90721404  0.90255053  0.43677652  1
  Te  Te152  1  0.91821480  0.92397888  0.75833373  1
  Te  Te153  1  0.25748057  0.11727420  0.30455543  1
  Te  Te154  1  0.24857020  0.09135332  0.57913089  1
  Te  Te155  1  0.27251862  0.09071680  0.93868171  1
  Te  Te156  1  0.23606008  0.42509262  0.26279627  1
  Te  Te157  1  0.24258996  0.45233318  0.55152868  1
  Te  Te158  1  0.25855607  0.42365222  0.92148190  1
  Te  Te159  1  0.24122953  0.74131437  0.23376130  1
  Te  Te160  1  0.23772125  0.77080594  0.56486386  1
  Te  Te161  1  0.23584001  0.73231916  0.90866302  1
  Te  Te162  1  0.61605970  0.07442644  0.28086657  1
  Te  Te163  1  0.58180138  0.11377387  0.54462730  1
  Te  Te164  1  0.59165776  0.08144060  0.90479929  1
  Te  Te165  1  0.57929035  0.43788617  0.22496191  1
  Te  Te166  1  0.57770976  0.42275349  0.58392109  1
  Te  Te167  1  0.59390861  0.41424446  0.90119483  1
  Te  Te168  1  0.59338614  0.74380167  0.26044733  1
  Te  Te169  1  0.57295376  0.75215615  0.58744333  1
  Te  Te170  1  0.56835143  0.75926514  0.92673888  1
  Te  Te171  1  0.90880051  0.07786871  0.26768439  1
  Te  Te172  1  0.90764463  0.06829198  0.56835921  1
  Te  Te173  1  0.93883945  0.08965774  0.91640981  1
  Te  Te174  1  0.91891482  0.40836767  0.26270530  1
  Te  Te175  1  0.90910067  0.50060426  0.50224547  1
  Te  Te176  1  0.93176762  0.42216051  0.92174590  1
  Te  Te177  1  0.93037502  0.73614299  0.25268916  1
  Te  Te178  1  0.89355086  0.72598553  0.55522769  1
  Te  Te179  1  0.90724341  0.71953997  0.90391818  1
