# generated using pymatgen
data_In2Te3
_symmetry_space_group_name_H-M   'P 1'
_cell_length_a   19.00687170
_cell_length_b   18.99288600
_cell_length_c   19.00000899
_cell_angle_alpha   90.14116831
_cell_angle_beta   90.02829473
_cell_angle_gamma   89.97020474
_symmetry_Int_Tables_number   1
_chemical_formula_structural   In2Te3
_chemical_formula_sum   'In72 Te108'
_cell_volume   6858.89227019
_cell_formula_units_Z   36
loop_
 _symmetry_equiv_pos_site_id
 _symmetry_equiv_pos_as_xyz
  1  'x, y, z'
loop_
 _atom_site_type_symbol
 _atom_site_label
 _atom_site_symmetry_multiplicity
 _atom_site_fract_x
 _atom_site_fract_y
 _atom_site_fract_z
 _atom_site_occupancy
  In  In0  1  0.16988117  0.15886855  -0.00927460  1
  In  In1  1  0.66256369  0.16679817  0.83104594  1
  In  In2  1  0.67577423  0.16744890  0.17106931  1
  In  In3  1  0.51418767  -0.02332470  0.51208373  1
  In  In4  1  0.18653681  0.51113729  0.71418466  1
  In  In5  1  0.16431937  0.68153231  0.16206154  1
  In  In6  1  0.02284532  0.68022620  -0.01071408  1
  In  In7  1  0.67502783  0.83742987  0.18176463  1
  In  In8  1  0.15677909  -0.00122964  0.52429167  1
  In  In9  1  -0.01234373  0.16736635  0.86274927  1
  In  In10  1  0.49442437  -0.01024834  0.84654088  1
  In  In11  1  0.84508893  0.16721007  0.02362656  1
  In  In12  1  -0.01106373  0.33564746  0.30257014  1
  In  In13  1  0.66501931  0.67703857  0.64581363  1
  In  In14  1  0.16950726  0.18179794  0.68216038  1
  In  In15  1  0.49071759  0.82426666  0.69052321  1
  In  In16  1  0.84681294  0.32797404  0.84951675  1
  In  In17  1  0.67945808  0.35175338  0.66954018  1
  In  In18  1  0.17203265  -0.00472700  0.85619274  1
  In  In19  1  0.82584866  0.65500010  0.82319318  1
  In  In20  1  0.46947133  0.16536071  -0.01511640  1
  In  In21  1  0.30119800  0.67120175  -0.01571223  1
  In  In22  1  0.65526680  0.14895076  0.48448677  1
  In  In23  1  0.51001174  0.33311494  0.16123088  1
  In  In24  1  0.01802366  0.84646763  0.83310420  1
  In  In25  1  0.83029407  0.68299887  0.17107227  1
  In  In26  1  0.67061928  0.50181667  0.17104009  1
  In  In27  1  0.15490105  0.66573283  0.52073712  1
  In  In28  1  0.31932159  0.16604669  0.50548855  1
  In  In29  1  0.14667679  0.52688764  0.32528963  1
  In  In30  1  0.17538531  0.31976332  0.84452543  1
  In  In31  1  0.83930575  0.17218869  0.29731360  1
  In  In32  1  0.37175202  0.64126788  0.29381727  1
  In  In33  1  0.14657213  0.83983330  0.67556835  1
  In  In34  1  0.18864707  0.35375194  0.49173197  1
  In  In35  1  0.36449833  0.35334712  0.31896878  1
  In  In36  1  -0.01571372  0.51616762  0.84145711  1
  In  In37  1  0.00487916  0.49637181  0.16097450  1
  In  In38  1  0.50990832  0.64840210  0.50950578  1
  In  In39  1  0.81121146  0.50224931  0.01465093  1
  In  In40  1  0.83091888  0.65960423  0.48271491  1
  In  In41  1  -0.00128957  -0.00799259  0.67053857  1
  In  In42  1  0.33741131  0.01753655  0.33678058  1
  In  In43  1  0.31744391  0.83747150  0.16809911  1
  In  In44  1  -0.00408039  0.00053696  0.32771237  1
  In  In45  1  0.52475211  0.81186738  0.32833962  1
  In  In46  1  0.35086848  0.83477793  0.51311891  1
  In  In47  1  0.65163721  0.48711889  0.83954370  1
  In  In48  1  0.33714369  0.50611189  0.51723236  1
  In  In49  1  0.01698090  0.32955381  0.64189765  1
  In  In50  1  0.85293424  -0.00406158  0.48043413  1
  In  In51  1  0.49117475  0.82745496  0.01595174  1
  In  In52  1  -0.00938222  0.82346455  0.16680762  1
  In  In53  1  0.32605542  0.32886442  -0.00306393  1
  In  In54  1  0.51287934  0.49566719  0.02118709  1
  In  In55  1  0.47922975  0.66873452  0.84063615  1
  In  In56  1  0.52433199  0.31853294  0.50445900  1
  In  In57  1  0.68115925  0.82533251  0.84089677  1
  In  In58  1  -0.01559621  0.51891693  0.49680693  1
  In  In59  1  0.48649026  0.15769086  0.68334235  1
  In  In60  1  0.17575540  -0.00736825  0.13279440  1
  In  In61  1  0.67482798  0.49372157  0.49307788  1
  In  In62  1  0.14852468  0.17976755  0.30651032  1
  In  In63  1  0.50585145  0.19278880  0.33287027  1
  In  In64  1  0.70944601  0.83725170  0.48056226  1
  In  In65  1  0.82958579  0.15020693  0.66172513  1
  In  In66  1  0.15931457  0.34103127  0.17547892  1
  In  In67  1  0.46456103  0.49177358  0.70891914  1
  In  In68  1  0.49241102  0.01053607  0.15381524  1
  In  In69  1  0.84076124  0.32621020  0.47567150  1
  In  In70  1  0.14192276  0.82332423  0.36067120  1
  In  In71  1  0.84055409  0.85123884  0.00668669  1
  Te  Te72  1  0.07410490  0.06351460  0.05297881  1
  Te  Te73  1  0.09724425  0.08025019  0.40867575  1
  Te  Te74  1  0.07618944  0.09136237  0.76205444  1
  Te  Te75  1  0.11379494  0.44154952  0.08014166  1
  Te  Te76  1  0.07703572  0.41565003  0.40733133  1
  Te  Te77  1  0.07327627  0.40680978  0.75925382  1
  Te  Te78  1  0.10108944  0.78192388  0.06877083  1
  Te  Te79  1  0.05089011  0.72135253  0.42663528  1
  Te  Te80  1  0.07764848  0.73555849  0.75459394  1
  Te  Te81  1  0.39240358  0.07130559  0.06703509  1
  Te  Te82  1  0.43562489  0.09069819  0.43207448  1
  Te  Te83  1  0.40457788  0.09576476  0.78871315  1
  Te  Te84  1  0.40415866  0.41707745  0.09555000  1
  Te  Te85  1  0.43267283  0.42086882  0.43527987  1
  Te  Te86  1  0.39938166  0.38507042  0.78342526  1
  Te  Te87  1  0.39689878  0.73530943  0.09122973  1
  Te  Te88  1  0.41711507  0.73762376  0.41670467  1
  Te  Te89  1  0.38532493  0.75362528  0.76510188  1
  Te  Te90  1  0.75976123  0.07255876  0.09735347  1
  Te  Te91  1  0.76026270  0.08677115  0.39915663  1
  Te  Te92  1  0.75289929  0.07504018  0.75905967  1
  Te  Te93  1  0.72347798  0.40227611  0.07489865  1
  Te  Te94  1  0.76723417  0.42638172  0.39898259  1
  Te  Te95  1  0.76963334  0.42756136  0.76346921  1
  Te  Te96  1  0.74434073  0.75403156  0.07172508  1
  Te  Te97  1  0.71702516  0.71390237  0.40307527  1
  Te  Te98  1  0.76077172  0.75652654  0.72888561  1
  Te  Te99  1  0.04866648  0.22839865  0.20061908  1
  Te  Te100  1  0.10602123  0.24245105  0.55695196  1
  Te  Te101  1  0.06451805  0.26678778  0.94708325  1
  Te  Te102  1  0.05538375  0.61440194  0.24394249  1
  Te  Te103  1  0.09319981  0.55281399  0.59777751  1
  Te  Te104  1  0.09975957  0.57839299  0.91340412  1
  Te  Te105  1  0.10150172  0.91318807  0.24543756  1
  Te  Te106  1  0.05633796  0.89649859  0.56546939  1
  Te  Te107  1  0.06068771  0.94306294  0.93825602  1
  Te  Te108  1  0.40660798  0.23850659  0.23117133  1
  Te  Te109  1  0.41551288  0.25280592  0.58549570  1
  Te  Te110  1  0.43332297  0.28560079  0.89997557  1
  Te  Te111  1  0.46174339  0.53925597  0.24692448  1
  Te  Te112  1  0.41094340  0.59850057  0.61176628  1
  Te  Te113  1  0.41236228  0.57352736  0.93268998  1
  Te  Te114  1  0.41946254  0.91193904  0.26207661  1
  Te  Te115  1  0.41124339  0.93265623  0.61096885  1
  Te  Te116  1  0.40436232  0.90129375  0.92315829  1
  Te  Te117  1  0.76768780  0.27351951  0.21841927  1
  Te  Te118  1  0.74293430  0.24907930  0.57580230  1
  Te  Te119  1  0.74905413  0.24788056  0.92617325  1
  Te  Te120  1  0.77918374  0.56905037  0.24819490  1
  Te  Te121  1  0.75785205  0.57323089  0.59145824  1
  Te  Te122  1  0.73084197  0.58897718  0.92045165  1
  Te  Te123  1  0.72021371  0.91197644  0.29909576  1
  Te  Te124  1  0.76126176  0.93241073  0.57597987  1
  Te  Te125  1  0.75308556  0.92720585  0.91683585  1
  Te  Te126  1  0.24268323  0.24514480  0.09219609  1
  Te  Te127  1  0.26043034  0.25418386  0.39530212  1
  Te  Te128  1  0.27122832  0.27127672  0.74264837  1
  Te  Te129  1  0.25516445  0.58843051  0.09668225  1
  Te  Te130  1  0.24611771  0.58514815  0.42631095  1
  Te  Te131  1  0.27198305  0.61588061  0.77153065  1
  Te  Te132  1  0.27676379  0.92081427  0.05234778  1
  Te  Te133  1  0.25671732  0.92366873  0.42698129  1
  Te  Te134  1  0.24147759  0.91595123  0.75618577  1
  Te  Te135  1  0.57528993  0.22952349  0.07490940  1
  Te  Te136  1  0.61888636  0.26881200  0.39667727  1
  Te  Te137  1  0.58369182  0.26231022  0.74233494  1
  Te  Te138  1  0.57918544  0.59924894  0.10496260  1
  Te  Te139  1  0.60127652  0.59165350  0.40860770  1
  Te  Te140  1  0.58345903  0.59387440  0.74659071  1
  Te  Te141  1  0.58966247  0.92111306  0.08332293  1
  Te  Te142  1  0.60136803  0.92790868  0.39465335  1
  Te  Te143  1  0.59061991  0.91578253  0.75468663  1
  Te  Te144  1  0.96110922  0.24527163  0.06986777  1
  Te  Te145  1  0.93439156  0.23519182  0.40206150  1
  Te  Te146  1  0.92227546  0.25033471  0.73900310  1
  Te  Te147  1  0.92215679  0.60023047  0.06948517  1
  Te  Te148  1  0.88858330  0.55597760  0.39043906  1
  Te  Te149  1  0.92681611  0.59701555  0.73462752  1
  Te  Te150  1  0.90335071  0.93098816  0.11525099  1
  Te  Te151  1  0.91319543  0.89459315  0.38900169  1
  Te  Te152  1  0.91411777  0.90139971  0.74558938  1
  Te  Te153  1  0.24490607  0.08331851  0.23791320  1
  Te  Te154  1  0.25477149  0.07732116  0.60833995  1
  Te  Te155  1  0.26489656  0.10608126  0.89043503  1
  Te  Te156  1  0.24920908  0.43152685  0.26102785  1
  Te  Te157  1  0.25658798  0.41862432  0.60935828  1
  Te  Te158  1  0.23944992  0.42361445  0.92519811  1
  Te  Te159  1  0.24803397  0.74904648  0.27818461  1
  Te  Te160  1  0.25104094  0.75588055  0.59296052  1
  Te  Te161  1  0.20354370  0.70482906  0.87616521  1
  Te  Te162  1  0.57767782  0.08544709  0.25478682  1
  Te  Te163  1  0.58812929  0.07766344  0.59850186  1
  Te  Te164  1  0.58345943  0.08091866  0.92848622  1
  Te  Te165  1  0.57052279  0.42770724  0.26005110  1
  Te  Te166  1  0.56957630  0.43272275  0.60096178  1
  Te  Te167  1  0.58562014  0.39955354  0.93461150  1
  Te  Te168  1  0.57888215  0.72979921  0.21961206  1
  Te  Te169  1  0.57715802  0.77441892  0.56986921  1
  Te  Te170  1  0.57962950  0.74631770  0.92181802  1
  Te  Te171  1  0.91203849  0.06472802  0.22411077  1
  Te  Te172  1  0.93457194  0.08923597  0.57286366  1
  Te  Te173  1  0.88042702  0.08017904  0.90792831  1
  Te  Te174  1  0.90231633  0.40031273  0.20458488  1
  Te  Te175  1  0.90889845  0.41424458  0.57913841  1
  Te  Te176  1  0.91895543  0.42299478  0.94264182  1
  Te  Te177  1  0.89959939  0.76997394  0.27004133  1
  Te  Te178  1  0.94723096  0.72715264  0.53900094  1
  Te  Te179  1  0.91204781  0.74932675  0.91012294  1
