# generated using pymatgen
data_In2Te3
_symmetry_space_group_name_H-M   'P 1'
_cell_length_a   18.82473595
_cell_length_b   18.81106208
_cell_length_c   18.80635046
_cell_angle_alpha   89.96324507
_cell_angle_beta   89.95677482
_cell_angle_gamma   90.06527714
_symmetry_Int_Tables_number   1
_chemical_formula_structural   In2Te3
_chemical_formula_sum   'In72 Te108'
_cell_volume   6659.57078945
_cell_formula_units_Z   36
loop_
 _symmetry_equiv_pos_site_id
 _symmetry_equiv_pos_as_xyz
  1  'x, y, z'
loop_
 _atom_site_type_symbol
 _atom_site_label
 _atom_site_symmetry_multiplicity
 _atom_site_fract_x
 _atom_site_fract_y
 _atom_site_fract_z
 _atom_site_occupancy
  In  In0  1  0.17377503  -0.00622752  0.52036765  1
  In  In1  1  0.49941033  0.34597831  0.20796142  1
  In  In2  1  0.50447356  0.49347180  0.63789953  1
  In  In3  1  0.69087295  0.30753474  0.62042848  1
  In  In4  1  0.01310343  0.83142462  0.48135432  1
  In  In5  1  0.31369474  0.48629099  0.16626919  1
  In  In6  1  0.18827290  0.16367144  0.66531097  1
  In  In7  1  0.68134612  0.83174272  0.18994920  1
  In  In8  1  0.01519115  0.17169813  0.19243076  1
  In  In9  1  0.34367798  0.19053293  0.17670553  1
  In  In10  1  0.82026034  0.33184232  0.81290104  1
  In  In11  1  0.51345932  0.83805160  0.35122893  1
  In  In12  1  0.65537125  0.66027891  0.65712742  1
  In  In13  1  -0.00974167  0.01933681  0.30862172  1
  In  In14  1  -0.00511136  0.66384592  0.64454193  1
  In  In15  1  0.84051790  0.15287959  0.02166262  1
  In  In16  1  -0.00252751  0.36686270  0.64084422  1
  In  In17  1  0.82325846  0.48510691  -0.00734683  1
  In  In18  1  -0.00564147  0.68802477  0.00759626  1
  In  In19  1  0.01945296  0.51223081  0.80206900  1
  In  In20  1  0.01118013  0.50819817  0.16975255  1
  In  In21  1  0.00166158  0.18966700  0.82694247  1
  In  In22  1  0.52254007  -0.00307906  0.18798987  1
  In  In23  1  0.49091887  0.19967450  0.55598547  1
  In  In24  1  0.18166024  0.67972570  0.82742110  1
  In  In25  1  0.30982541  0.32984729  0.00441763  1
  In  In26  1  0.81489360  -0.01301655  0.80450985  1
  In  In27  1  0.35189543  -0.01845153  -0.01413183  1
  In  In28  1  0.19079736  -0.02150094  0.82370616  1
  In  In29  1  0.49224231  0.34952678  0.81467726  1
  In  In30  1  0.49403981  0.51956341  0.00059167  1
  In  In31  1  0.84221094  0.34234132  0.19697939  1
  In  In32  1  0.84892881  0.64744510  0.84119543  1
  In  In33  1  0.67169583  0.15377968  0.20205542  1
  In  In34  1  0.63969767  0.15837059  0.82321626  1
  In  In35  1  0.02851918  0.33883031  -0.01325595  1
  In  In36  1  0.50535683  0.50443793  0.36937271  1
  In  In37  1  0.80284718  0.79828535  0.35577383  1
  In  In38  1  0.34573543  0.83465503  0.16377780  1
  In  In39  1  0.84624964  0.84231158  0.66267107  1
  In  In40  1  0.17498857  0.50429582  0.32960920  1
  In  In41  1  0.82872272  0.20454010  0.37085533  1
  In  In42  1  0.33587261  0.66430742  0.32918133  1
  In  In43  1  0.32619443  0.14809590  0.81538245  1
  In  In44  1  0.68882971  0.32497531  0.02682898  1
  In  In45  1  0.50537473  0.16474985  -0.00143732  1
  In  In46  1  0.67361697  0.48566315  0.83500188  1
  In  In47  1  0.66459706  0.82393690  0.84659689  1
  In  In48  1  0.01439862  -0.00320521  0.63435507  1
  In  In49  1  0.17277433  0.49450195  0.00499230  1
  In  In50  1  0.16920132  0.02077770  0.16429271  1
  In  In51  1  0.16683934  0.34788439  0.48549824  1
  In  In52  1  0.18188629  0.19603701  0.32679973  1
  In  In53  1  0.82582610  -0.00133047  0.49895717  1
  In  In54  1  0.69141497  0.50337418  0.50217686  1
  In  In55  1  0.50083897  0.82524049  0.65672578  1
  In  In56  1  0.15254148  0.51669276  0.67037179  1
  In  In57  1  -0.00527863  0.17066279  0.48126595  1
  In  In58  1  -0.01423364  0.80284902  0.17848325  1
  In  In59  1  0.81186429  -0.02687705  0.18245402  1
  In  In60  1  0.32671193  0.82473447  0.51506892  1
  In  In61  1  0.01712053  -0.01287553  -0.02976708  1
  In  In62  1  0.16517590  0.82669574  0.35535918  1
  In  In63  1  0.35289116  -0.00982149  0.66871826  1
  In  In64  1  0.46374986  -0.00385999  0.84901809  1
  In  In65  1  0.81702281  0.63746176  0.21103223  1
  In  In66  1  0.47016921  0.67341469  0.83641388  1
  In  In67  1  0.65903539  0.00847774  0.66437576  1
  In  In68  1  0.33921718  0.50923785  0.50956151  1
  In  In69  1  0.49804507  0.68019660  0.15769281  1
  In  In70  1  0.83689385  0.82095527  0.01053951  1
  In  In71  1  0.47617641  0.83995805  0.00489957  1
  Te  Te72  1  0.06847158  0.09292286  0.07435473  1
  Te  Te73  1  0.09072742  0.07206765  0.41217278  1
  Te  Te74  1  0.08911148  0.07691981  0.74873418  1
  Te  Te75  1  0.10055054  0.40267449  0.10437411  1
  Te  Te76  1  0.07692719  0.45552953  0.43426594  1
  Te  Te77  1  0.09589500  0.39267747  0.75380360  1
  Te  Te78  1  0.09369026  0.75677409  0.09078280  1
  Te  Te79  1  0.08455822  0.71906276  0.41633244  1
  Te  Te80  1  0.06584330  0.73448026  0.75275739  1
  Te  Te81  1  0.42015571  0.07704992  0.09257414  1
  Te  Te82  1  0.45440565  0.11536423  0.43331821  1
  Te  Te83  1  0.44436845  0.09530347  0.73469946  1
  Te  Te84  1  0.42573084  0.40141607  0.08449548  1
  Te  Te85  1  0.40627347  0.40386015  0.42392408  1
  Te  Te86  1  0.40656035  0.43495808  0.73273654  1
  Te  Te87  1  0.38824450  0.72735609  0.06372409  1
  Te  Te88  1  0.42166827  0.74216228  0.42761739  1
  Te  Te89  1  0.40758903  0.71921822  0.70741457  1
  Te  Te90  1  0.73237946  0.06946367  0.08927965  1
  Te  Te91  1  0.73778505  0.09631299  0.42698206  1
  Te  Te92  1  0.75356504  0.10731584  0.73295849  1
  Te  Te93  1  0.74477737  0.43514107  0.11284460  1
  Te  Te94  1  0.77267888  0.44592203  0.38694016  1
  Te  Te95  1  0.74249154  0.42013050  0.71703212  1
  Te  Te96  1  0.75529537  0.73199912  0.10091386  1
  Te  Te97  1  0.70433264  0.71520262  0.42694460  1
  Te  Te98  1  0.75695134  0.74750287  0.75204154  1
  Te  Te99  1  0.06880337  0.27679274  0.27891213  1
  Te  Te100  1  0.08672140  0.24474419  0.58300758  1
  Te  Te101  1  0.10994678  0.24375357  0.90968716  1
  Te  Te102  1  0.09673482  0.59993421  0.24674182  1
  Te  Te103  1  0.06815568  0.56670587  0.55701812  1
  Te  Te104  1  0.07367130  0.58347949  0.92417212  1
  Te  Te105  1  0.08374064  0.91522593  0.24607239  1
  Te  Te106  1  0.10409080  0.87415163  0.59825812  1
  Te  Te107  1  0.11385557  0.88925901  0.91680410  1
  Te  Te108  1  0.42424547  0.24606184  0.29007402  1
  Te  Te109  1  0.38307881  0.30260212  0.54201863  1
  Te  Te110  1  0.41569124  0.24508277  0.90773462  1
  Te  Te111  1  0.42466259  0.57149635  0.24681441  1
  Te  Te112  1  0.42451888  0.60841721  0.58353203  1
  Te  Te113  1  0.39305932  0.56682428  0.90581782  1
  Te  Te114  1  0.41516877  0.92197839  0.26675250  1
  Te  Te115  1  0.43645336  0.92421173  0.56011020  1
  Te  Te116  1  0.38048360  0.86614021  0.87948789  1
  Te  Te117  1  0.72809605  0.27397337  0.27415342  1
  Te  Te118  1  0.75439977  0.24140559  0.50465187  1
  Te  Te119  1  0.74621680  0.23669552  0.91417599  1
  Te  Te120  1  0.72184787  0.55851739  0.29130116  1
  Te  Te121  1  0.77418891  0.59980785  0.58672897  1
  Te  Te122  1  0.73538201  0.59196918  0.92660219  1
  Te  Te123  1  0.71969573  0.93196057  0.30273245  1
  Te  Te124  1  0.73554623  0.90524932  0.57910668  1
  Te  Te125  1  0.75253899  0.91898242  0.92773161  1
  Te  Te126  1  0.23344959  0.24116101  0.09382436  1
  Te  Te127  1  0.26290406  0.23872312  0.44480383  1
  Te  Te128  1  0.27605913  0.25963437  0.73429003  1
  Te  Te129  1  0.24657174  0.59115340  0.08935215  1
  Te  Te130  1  0.24616766  0.60131485  0.43368209  1
  Te  Te131  1  0.25965728  0.58777599  0.74222571  1
  Te  Te132  1  0.24814973  0.91959197  0.08195167  1
  Te  Te133  1  0.26340689  0.92531960  0.41619489  1
  Te  Te134  1  0.25374337  0.88939599  0.71925606  1
  Te  Te135  1  0.58069198  0.24624389  0.10381790  1
  Te  Te136  1  0.54424680  0.23465456  0.41605908  1
  Te  Te137  1  0.58581078  0.26449105  0.72877241  1
  Te  Te138  1  0.58911325  0.58562139  0.08960700  1
  Te  Te139  1  0.59199741  0.60477136  0.44185002  1
  Te  Te140  1  0.57723982  0.57920744  0.76188433  1
  Te  Te141  1  0.58876232  0.90290324  0.08887715  1
  Te  Te142  1  0.61059441  0.93062813  0.41031009  1
  Te  Te143  1  0.57729726  0.91592821  0.76120215  1
  Te  Te144  1  0.91437529  0.27425941  0.07399609  1
  Te  Te145  1  0.93219883  0.29757319  0.43108221  1
  Te  Te146  1  0.91560676  0.25757729  0.72128040  1
  Te  Te147  1  0.90619937  0.58459672  0.07962156  1
  Te  Te148  1  0.86447943  0.54571029  0.46545046  1
  Te  Te149  1  0.90026638  0.56383769  0.72598405  1
  Te  Te150  1  0.92567168  0.92559148  0.08794930  1
  Te  Te151  1  0.91508744  0.91997063  0.39975401  1
  Te  Te152  1  0.94121853  0.92170708  0.75074050  1
  Te  Te153  1  0.26389272  0.08461127  0.26379151  1
  Te  Te154  1  0.28211679  0.08723345  0.57272327  1
  Te  Te155  1  0.24878195  0.07873164  0.92561159  1
  Te  Te156  1  0.26224765  0.39919706  0.27263737  1
  Te  Te157  1  0.24629566  0.42090903  0.59370196  1
  Te  Te158  1  0.25856293  0.42539124  0.90593460  1
  Te  Te159  1  0.24562116  0.75333564  0.24608369  1
  Te  Te160  1  0.22351261  0.76928937  0.60389161  1
  Te  Te161  1  0.25711623  0.77354672  0.91202709  1
  Te  Te162  1  0.56636890  0.09572717  0.29106897  1
  Te  Te163  1  0.58670487  0.07859471  0.55650768  1
  Te  Te164  1  0.58464283  0.05827685  0.92459565  1
  Te  Te165  1  0.59835893  0.43716164  0.27211043  1
  Te  Te166  1  0.58819527  0.40045115  0.55224977  1
  Te  Te167  1  0.59167177  0.39690457  0.92945894  1
  Te  Te168  1  0.58958543  0.73612021  0.26543486  1
  Te  Te169  1  0.59955342  0.76169989  0.56261751  1
  Te  Te170  1  0.57142285  0.74109353  0.93168205  1
  Te  Te171  1  0.88547774  0.10577378  0.23986967  1
  Te  Te172  1  0.90918294  0.09418319  0.58438809  1
  Te  Te173  1  0.91002809  0.08359635  0.90326389  1
  Te  Te174  1  0.92109237  0.44339849  0.26981607  1
  Te  Te175  1  0.89365133  0.41174147  0.54478268  1
  Te  Te176  1  0.91880836  0.41502453  0.89637011  1
  Te  Te177  1  0.91792530  0.72092178  0.28857711  1
  Te  Te178  1  0.90414705  0.75192433  0.55574601  1
  Te  Te179  1  0.92421937  0.76800269  0.89747695  1
