# generated using pymatgen
data_In2Te3
_symmetry_space_group_name_H-M   'P 1'
_cell_length_a   18.80742486
_cell_length_b   18.81753679
_cell_length_c   18.81506692
_cell_angle_alpha   90.05876498
_cell_angle_beta   90.05483322
_cell_angle_gamma   90.01955652
_symmetry_Int_Tables_number   1
_chemical_formula_structural   In2Te3
_chemical_formula_sum   'In72 Te108'
_cell_volume   6658.82227565
_cell_formula_units_Z   36
loop_
 _symmetry_equiv_pos_site_id
 _symmetry_equiv_pos_as_xyz
  1  'x, y, z'
loop_
 _atom_site_type_symbol
 _atom_site_label
 _atom_site_symmetry_multiplicity
 _atom_site_fract_x
 _atom_site_fract_y
 _atom_site_fract_z
 _atom_site_occupancy
  In  In0  1  0.01618309  0.17976500  0.49134613  1
  In  In1  1  0.37440107  0.36799388  0.33577435  1
  In  In2  1  0.33294610  0.17646233  0.16288554  1
  In  In3  1  0.82055779  0.34524020  0.15368518  1
  In  In4  1  0.82257752  0.17611126  0.30684511  1
  In  In5  1  0.82223097  0.65399585  0.83335446  1
  In  In6  1  -0.00240545  0.64688489  0.68145543  1
  In  In7  1  0.33869029  0.83491473  0.16221424  1
  In  In8  1  0.84694049  0.18351568  -0.01338543  1
  In  In9  1  0.84359649  0.66150146  0.50247151  1
  In  In10  1  0.01961754  0.00736072  -0.00208052  1
  In  In11  1  0.84994099  -0.00676551  0.49079945  1
  In  In12  1  0.66723117  0.65862193  0.65954616  1
  In  In13  1  0.34715976  0.68240478  0.01564415  1
  In  In14  1  0.67453597  0.80816876  0.51532027  1
  In  In15  1  0.82286386  0.80797609  0.33493426  1
  In  In16  1  0.14351226  0.67170413  0.85634530  1
  In  In17  1  0.49723018  -0.00326413  0.49443980  1
  In  In18  1  0.64746758  0.50933700  0.48787838  1
  In  In19  1  0.81906422  0.35170557  0.82012538  1
  In  In20  1  0.50282435  0.16937713  0.00954699  1
  In  In21  1  0.83953394  0.81343695  0.68254433  1
  In  In22  1  0.51766741  0.67198455  0.84065911  1
  In  In23  1  0.31803929  -0.03206797  0.36781310  1
  In  In24  1  0.16911660  0.66617080  0.18367357  1
  In  In25  1  0.35651096  0.16710314  0.51181393  1
  In  In26  1  0.35714966  0.66420615  0.34401574  1
  In  In27  1  0.65217041  0.18350336  0.17530065  1
  In  In28  1  -0.01639221  0.17303795  0.84673108  1
  In  In29  1  0.17078100  0.00760794  0.85574576  1
  In  In30  1  0.00646156  -0.02832353  0.67040441  1
  In  In31  1  0.84114797  0.02093708  0.17206576  1
  In  In32  1  0.65165886  0.00117575  0.68328012  1
  In  In33  1  0.17316449  0.16172421  0.64823653  1
  In  In34  1  -0.00278658  0.32678992  0.33192175  1
  In  In35  1  0.84753139  0.37672359  0.52483340  1
  In  In36  1  -0.01091459  0.66314680  0.01772505  1
  In  In37  1  0.35246712  0.50026455  0.20422634  1
  In  In38  1  0.17262080  0.67200961  0.47386657  1
  In  In39  1  0.15617595  0.49355097  0.32285557  1
  In  In40  1  0.34518401  -0.01281321  0.65258000  1
  In  In41  1  0.15680311  0.47817888  0.66212533  1
  In  In42  1  0.64379116  0.83071384  0.15098749  1
  In  In43  1  0.65085442  0.02175567  0.31771263  1
  In  In44  1  0.81999517  0.84295736  -0.02240554  1
  In  In45  1  0.16675451  0.81187484  0.65791765  1
  In  In46  1  0.83121007  0.51438843  0.34519086  1
  In  In47  1  0.68062252  0.34647147  -0.01026798  1
  In  In48  1  0.51681102  0.50638920  0.65906294  1
  In  In49  1  0.49458877  -0.00887019  0.83085158  1
  In  In50  1  0.34578425  0.32833967  0.65876937  1
  In  In51  1  0.65109683  0.20483482  0.47263576  1
  In  In52  1  0.16960337  0.33656246  0.49709225  1
  In  In53  1  0.51335174  0.50191086  -0.00260398  1
  In  In54  1  0.15978766  0.16964343  0.32979291  1
  In  In55  1  0.66595606  0.66101272  -0.00757271  1
  In  In56  1  0.34002958  0.32372406  0.00266944  1
  In  In57  1  0.34704883  0.64151978  0.65561727  1
  In  In58  1  -0.00479386  0.81691235  0.17338744  1
  In  In59  1  0.66122655  -0.00597539  -0.00773400  1
  In  In60  1  0.33180819  0.49649801  0.80117089  1
  In  In61  1  0.53273275  0.19348736  0.68385835  1
  In  In62  1  0.82396900  0.63612116  0.17430250  1
  In  In63  1  0.34887142  0.83279525  0.83874299  1
  In  In64  1  -0.01378941  -0.01868893  0.33063139  1
  In  In65  1  -0.00009174  0.34388395  -0.01367731  1
  In  In66  1  0.80976783  0.16643512  0.66565258  1
  In  In67  1  0.14249819  0.34111228  0.82996030  1
  In  In68  1  0.33344827  0.15381239  0.85253927  1
  In  In69  1  0.15084032  0.51408562  0.00362235  1
  In  In70  1  0.17165450  0.00010661  0.14846516  1
  In  In71  1  0.50241745  0.82453513  0.32514958  1
  Te  Te72  1  0.07614534  0.10015984  0.09582311  1
  Te  Te73  1  0.08463740  0.06834460  0.41656531  1
  Te  Te74  1  0.08365198  0.09231889  0.75109958  1
  Te  Te75  1  0.07946976  0.41825180  0.08758589  1
  Te  Te76  1  0.06723534  0.42367796  0.42835198  1
  Te  Te77  1  0.04878470  0.42647456  0.75154700  1
  Te  Te78  1  0.09693877  0.75219372  0.07925799  1
  Te  Te79  1  0.10845900  0.77574436  0.39173122  1
  Te  Te80  1  0.06582419  0.76066174  0.75977691  1
  Te  Te81  1  0.39786817  0.08153722  0.06676773  1
  Te  Te82  1  0.42051150  0.08612034  0.40081191  1
  Te  Te83  1  0.41423323  0.10076956  0.73000885  1
  Te  Te84  1  0.41931127  0.42121941  0.08887379  1
  Te  Te85  1  0.45432747  0.45695851  0.43402832  1
  Te  Te86  1  0.43959223  0.40472110  0.75150008  1
  Te  Te87  1  0.44418127  0.74721043  0.10412462  1
  Te  Te88  1  0.42179071  0.76512388  0.43371205  1
  Te  Te89  1  0.42410862  0.74211025  0.74181066  1
  Te  Te90  1  0.74772203  0.10090231  0.08247386  1
  Te  Te91  1  0.75277108  0.08954527  0.41942345  1
  Te  Te92  1  0.74905746  0.07609711  0.76418766  1
  Te  Te93  1  0.72942160  0.44415095  0.09207269  1
  Te  Te94  1  0.74342231  0.41210840  0.41754401  1
  Te  Te95  1  0.70967882  0.40607475  0.73518539  1
  Te  Te96  1  0.76594580  0.75810669  0.09246217  1
  Te  Te97  1  0.73132762  0.71238552  0.40987867  1
  Te  Te98  1  0.72719173  0.75229236  0.76438097  1
  Te  Te99  1  0.09436212  0.26524212  0.23961047  1
  Te  Te100  1  0.07649701  0.26971618  0.59895133  1
  Te  Te101  1  0.09623161  0.23493593  0.92789245  1
  Te  Te102  1  0.06672328  0.58080766  0.24469416  1
  Te  Te103  1  0.09351320  0.58814024  0.57819564  1
  Te  Te104  1  0.04755534  0.56675173  0.90497855  1
  Te  Te105  1  0.09105161  0.91027537  0.24659214  1
  Te  Te106  1  0.09952049  0.91394845  0.57181950  1
  Te  Te107  1  0.08129040  0.90589097  0.91211354  1
  Te  Te108  1  0.43232809  0.25466360  0.24492145  1
  Te  Te109  1  0.45451421  0.26731357  0.57119733  1
  Te  Te110  1  0.43309520  0.25739625  0.90193445  1
  Te  Te111  1  0.45650431  0.59584539  0.25400530  1
  Te  Te112  1  0.42484982  0.56518040  0.55424408  1
  Te  Te113  1  0.40191359  0.58466953  0.90520271  1
  Te  Te114  1  0.41551630  0.92870487  0.25682869  1
  Te  Te115  1  0.42368889  0.89327714  0.57031536  1
  Te  Te116  1  0.41608458  0.92171644  0.93427060  1
  Te  Te117  1  0.72742629  0.28427321  0.26162901  1
  Te  Te118  1  0.74481218  0.26884096  0.57441099  1
  Te  Te119  1  0.73856213  0.23718019  0.89705420  1
  Te  Te120  1  0.72482458  0.55466283  0.24865573  1
  Te  Te121  1  0.75764729  0.56551113  0.58257103  1
  Te  Te122  1  0.76118019  0.56314788  0.93290403  1
  Te  Te123  1  0.75800472  0.92475045  0.25578754  1
  Te  Te124  1  0.75879298  0.91754909  0.58790656  1
  Te  Te125  1  0.72854295  0.91484665  0.88755412  1
  Te  Te126  1  0.23772184  0.25713264  0.08308342  1
  Te  Te127  1  0.26307092  0.24833703  0.41794438  1
  Te  Te128  1  0.25017220  0.25202561  0.75195061  1
  Te  Te129  1  0.26461958  0.57499467  0.09132913  1
  Te  Te130  1  0.25944071  0.56493334  0.40980133  1
  Te  Te131  1  0.22633820  0.59806640  0.74840767  1
  Te  Te132  1  0.24933455  0.90504751  0.06715286  1
  Te  Te133  1  0.21231468  0.88159619  0.43037756  1
  Te  Te134  1  0.24725557  0.91851048  0.74925994  1
  Te  Te135  1  0.57723015  0.27904277  0.08465327  1
  Te  Te136  1  0.55395240  0.25489587  0.37277881  1
  Te  Te137  1  0.62937368  0.27614222  0.75924486  1
  Te  Te138  1  0.58439676  0.58854542  0.09321258  1
  Te  Te139  1  0.54886911  0.57218351  0.39382675  1
  Te  Te140  1  0.60393478  0.57041513  0.76859051  1
  Te  Te141  1  0.56981590  0.94513323  0.09736649  1
  Te  Te142  1  0.60798349  0.91529540  0.41988065  1
  Te  Te143  1  0.55792585  0.90034609  0.73281973  1
  Te  Te144  1  0.92540304  0.25299999  0.09324330  1
  Te  Te145  1  0.89847794  0.25186657  0.42602578  1
  Te  Te146  1  0.91047143  0.25473459  0.74239564  1
  Te  Te147  1  0.91157394  0.55772956  0.08383784  1
  Te  Te148  1  0.93843779  0.58133437  0.42305170  1
  Te  Te149  1  0.88330680  0.56088464  0.72905973  1
  Te  Te150  1  0.91316332  0.91625049  0.08774707  1
  Te  Te151  1  0.92572401  0.87812952  0.42581432  1
  Te  Te152  1  0.90652306  0.91831135  0.76240208  1
  Te  Te153  1  0.25719847  0.07190887  0.26251944  1
  Te  Te154  1  0.25089179  0.06589883  0.56035851  1
  Te  Te155  1  0.25896763  0.07717718  0.95451285  1
  Te  Te156  1  0.24832374  0.39795368  0.24873592  1
  Te  Te157  1  0.26866799  0.42635458  0.57149284  1
  Te  Te158  1  0.24792515  0.42459095  0.90747939  1
  Te  Te159  1  0.25980038  0.75483000  0.26600354  1
  Te  Te160  1  0.27029417  0.74283555  0.57100689  1
  Te  Te161  1  0.24714587  0.75797385  0.92675402  1
  Te  Te162  1  0.55440701  0.08435444  0.22649891  1
  Te  Te163  1  0.59061448  0.09486371  0.57141260  1
  Te  Te164  1  0.58271057  0.09205804  0.90374142  1
  Te  Te165  1  0.52389585  0.38905903  0.29793006  1
  Te  Te166  1  0.60179035  0.40647553  0.58746542  1
  Te  Te167  1  0.58544214  0.41798383  0.90003010  1
  Te  Te168  1  0.61042219  0.74410485  0.26456336  1
  Te  Te169  1  0.56797005  0.72434121  0.57229733  1
  Te  Te170  1  0.57834213  0.76551583  0.93611272  1
  Te  Te171  1  0.94371242  0.10393939  0.24786069  1
  Te  Te172  1  0.92617242  0.08794050  0.58377778  1
  Te  Te173  1  0.90309426  0.06277408  0.91320305  1
  Te  Te174  1  0.91194267  0.42153921  0.25048020  1
  Te  Te175  1  0.92862847  0.44536962  0.62742936  1
  Te  Te176  1  0.89042635  0.42645020  0.92751394  1
  Te  Te177  1  0.92281055  0.71828869  0.26298785  1
  Te  Te178  1  0.93702063  0.75043128  0.58480935  1
  Te  Te179  1  0.91680500  0.74656078  0.91078529  1
