# generated using pymatgen
data_In2Te3
_symmetry_space_group_name_H-M   'P 1'
_cell_length_a   18.77239850
_cell_length_b   18.77822337
_cell_length_c   18.77108341
_cell_angle_alpha   90.09817399
_cell_angle_beta   90.04810130
_cell_angle_gamma   90.09114119
_symmetry_Int_Tables_number   1
_chemical_formula_structural   In2Te3
_chemical_formula_sum   'In72 Te108'
_cell_volume   6617.01721135
_cell_formula_units_Z   36
loop_
 _symmetry_equiv_pos_site_id
 _symmetry_equiv_pos_as_xyz
  1  'x, y, z'
loop_
 _atom_site_type_symbol
 _atom_site_label
 _atom_site_symmetry_multiplicity
 _atom_site_fract_x
 _atom_site_fract_y
 _atom_site_fract_z
 _atom_site_occupancy
  In  In0  1  0.68477353  0.83928245  0.49250707  1
  In  In1  1  0.83731518  0.00719515  0.83347778  1
  In  In2  1  0.33748254  -0.03261198  0.33146460  1
  In  In3  1  0.02837856  0.62453887  0.00379908  1
  In  In4  1  -0.00385328  0.01945623  -0.02095186  1
  In  In5  1  0.14643219  0.17722959  0.32586427  1
  In  In6  1  0.38885531  0.79469065  0.15494160  1
  In  In7  1  -0.00116720  0.49069912  0.50961953  1
  In  In8  1  0.16822912  0.81158671  0.35261196  1
  In  In9  1  -0.00484351  0.17707787  0.84426477  1
  In  In10  1  -0.00264403  0.82419106  0.19126008  1
  In  In11  1  0.64474312  0.32729072  0.02801868  1
  In  In12  1  0.82051108  0.50739500  0.33718066  1
  In  In13  1  0.68365139  0.65174686  -0.02049044  1
  In  In14  1  -0.00097236  0.33438605  0.34368911  1
  In  In15  1  0.65540728  0.64199378  0.67781882  1
  In  In16  1  0.34074297  0.80075920  0.83987576  1
  In  In17  1  0.87553444  0.50021401  0.68315648  1
  In  In18  1  0.67114521  0.35047883  0.32532224  1
  In  In19  1  0.65294267  0.01094925  0.00605476  1
  In  In20  1  0.33197880  0.16494594  0.49209123  1
  In  In21  1  -0.00158517  0.00436964  0.66107080  1
  In  In22  1  0.84158714  0.82651008  0.00329596  1
  In  In23  1  0.16823628  0.81317812  0.66079084  1
  In  In24  1  -0.00469900  -0.00543169  0.36289470  1
  In  In25  1  0.83748302  0.19025225  0.34056271  1
  In  In26  1  0.68352997  0.33392552  0.68718264  1
  In  In27  1  0.32906686  0.35273118  -0.01364825  1
  In  In28  1  0.33667082  0.51243754  0.15487353  1
  In  In29  1  0.65396679  0.01025143  0.32678127  1
  In  In30  1  0.50585185  0.65971469  0.49829881  1
  In  In31  1  0.84328158  0.16217442  0.67217242  1
  In  In32  1  0.50422809  0.83113839  0.32830526  1
  In  In33  1  0.49526643  0.15958392  0.32108757  1
  In  In34  1  0.50762142  0.32757983  0.84319092  1
  In  In35  1  0.66992339  0.14605459  0.50852234  1
  In  In36  1  0.01406602  0.80324440  0.83940569  1
  In  In37  1  0.32616520  0.37175139  0.32978996  1
  In  In38  1  0.84058814  0.67515307  0.50498848  1
  In  In39  1  0.64594414  0.81094880  0.83699536  1
  In  In40  1  0.36926867  0.00575862  0.00391008  1
  In  In41  1  0.17457327  0.65415684  0.16365688  1
  In  In42  1  0.17972552  0.19059850  -0.01361170  1
  In  In43  1  0.47932199  0.33445568  0.48676528  1
  In  In44  1  0.65862733  0.17526451  0.85350601  1
  In  In45  1  0.30904355  0.32563523  0.66277004  1
  In  In46  1  0.32279231  0.51089268  0.83729603  1
  In  In47  1  0.16182674  0.48526367  0.68456814  1
  In  In48  1  0.17861644  0.01368221  0.15991808  1
  In  In49  1  0.20179598  0.81291209  -0.00028217  1
  In  In50  1  0.32998289  0.17948762  0.81506750  1
  In  In51  1  0.49643559  0.50247170  -0.00519949  1
  In  In52  1  0.16638010  0.66314325  0.50274269  1
  In  In53  1  0.16851500  0.00999351  0.50297011  1
  In  In54  1  0.49639909  0.51563774  0.66936700  1
  In  In55  1  0.34228211  0.17486380  0.15376383  1
  In  In56  1  -0.02177393  0.19539694  0.17473373  1
  In  In57  1  0.48109985  0.83177852  0.67650381  1
  In  In58  1  0.82704073  0.81971655  0.65495888  1
  In  In59  1  0.84947922  0.36833313  0.84701312  1
  In  In60  1  0.66765485  0.48941412  0.16804276  1
  In  In61  1  0.34704681  0.00008079  0.66520601  1
  In  In62  1  0.84598655  0.81002189  0.33349780  1
  In  In63  1  0.33331591  0.65533588  0.33141337  1
  In  In64  1  0.65915133  0.49773713  0.48675573  1
  In  In65  1  0.64530731  -0.01913643  0.65146421  1
  In  In66  1  0.64818614  0.81681788  0.15129863  1
  In  In67  1  0.02013714  0.49496001  0.13854703  1
  In  In68  1  0.81866533  0.34099141  0.15159481  1
  In  In69  1  0.14392482  0.33631726  0.52779748  1
  In  In70  1  0.15337480  0.01176929  0.81561751  1
  In  In71  1  0.80434272  0.01037660  0.16213925  1
  Te  Te72  1  0.08155479  0.10100977  0.08162426  1
  Te  Te73  1  0.06992400  0.10707244  0.43716070  1
  Te  Te74  1  0.08528712  0.11931586  0.72867583  1
  Te  Te75  1  0.07379454  0.40605616  0.03187647  1
  Te  Te76  1  0.09817568  0.42733567  0.41203728  1
  Te  Te77  1  0.04914746  0.43784814  0.77185776  1
  Te  Te78  1  0.07643266  0.76044214  0.07651827  1
  Te  Te79  1  0.06354173  0.74095356  0.42530242  1
  Te  Te80  1  0.10831230  0.71844122  0.76178648  1
  Te  Te81  1  0.45508448  0.10571310  0.08229115  1
  Te  Te82  1  0.42083956  0.06656461  0.41676866  1
  Te  Te83  1  0.42483345  0.08013367  0.76360219  1
  Te  Te84  1  0.43066467  0.40292849  0.08776538  1
  Te  Te85  1  0.42095531  0.44822136  0.41490535  1
  Te  Te86  1  0.41131929  0.40803241  0.75487692  1
  Te  Te87  1  0.41893363  0.72847049  0.02682188  1
  Te  Te88  1  0.41082917  0.75320451  0.42005193  1
  Te  Te89  1  0.43459508  0.71698580  0.75753512  1
  Te  Te90  1  0.74777042  0.10787984  0.06838852  1
  Te  Te91  1  0.76409125  0.07457723  0.41097190  1
  Te  Te92  1  0.73489233  0.07933435  0.74650482  1
  Te  Te93  1  0.75643146  0.43884903  0.05466445  1
  Te  Te94  1  0.76604215  0.40150172  0.43277592  1
  Te  Te95  1  0.74691055  0.44713949  0.76331173  1
  Te  Te96  1  0.76015807  0.73346350  0.09008560  1
  Te  Te97  1  0.73526672  0.72778830  0.40468499  1
  Te  Te98  1  0.75088961  0.73579865  0.75674781  1
  Te  Te99  1  0.09138301  0.28161042  0.23085612  1
  Te  Te100  1  0.09687948  0.23878326  0.62476039  1
  Te  Te101  1  0.06825274  0.27562155  0.93285080  1
  Te  Te102  1  0.08272201  0.57565446  0.24702780  1
  Te  Te103  1  0.07579050  0.58335152  0.60170284  1
  Te  Te104  1  0.07103774  0.55342219  0.87625807  1
  Te  Te105  1  0.09724856  0.93042227  0.25971116  1
  Te  Te106  1  0.08065978  0.90769122  0.57638969  1
  Te  Te107  1  0.09207012  0.91356658  0.92223218  1
  Te  Te108  1  0.41369127  0.26763918  0.25288162  1
  Te  Te109  1  0.41781103  0.24298487  0.59236292  1
  Te  Te110  1  0.41534422  0.24087425  0.92727655  1
  Te  Te111  1  0.42816242  0.60600145  0.22839195  1
  Te  Te112  1  0.40480036  0.58976289  0.58101338  1
  Te  Te113  1  0.40075233  0.60126364  0.93360307  1
  Te  Te114  1  0.43840537  0.92630218  0.22687421  1
  Te  Te115  1  0.42090759  0.91438785  0.57070949  1
  Te  Te116  1  0.42216510  0.89899251  0.91658464  1
  Te  Te117  1  0.73889084  0.24356068  0.23866600  1
  Te  Te118  1  0.75491223  0.25106307  0.58146471  1
  Te  Te119  1  0.74805581  0.27556613  0.92028411  1
  Te  Te120  1  0.73826443  0.59163443  0.25006280  1
  Te  Te121  1  0.75698942  0.57148193  0.58466164  1
  Te  Te122  1  0.78309855  0.58936125  0.88644217  1
  Te  Te123  1  0.74379399  0.90234633  0.25294923  1
  Te  Te124  1  0.77016851  0.93597579  0.57536327  1
  Te  Te125  1  0.74919717  0.91026236  0.91335168  1
  Te  Te126  1  0.24565391  0.27528381  0.09426846  1
  Te  Te127  1  0.24237111  0.26103142  0.41520987  1
  Te  Te128  1  0.22359979  0.27208652  0.77177399  1
  Te  Te129  1  0.24292601  0.57744646  0.05736243  1
  Te  Te130  1  0.23242000  0.57490784  0.40114521  1
  Te  Te131  1  0.25474749  0.59126355  0.73358629  1
  Te  Te132  1  0.27334031  0.91692725  0.09092021  1
  Te  Te133  1  0.25606874  0.90055742  0.44164754  1
  Te  Te134  1  0.25092824  0.91018164  0.75613955  1
  Te  Te135  1  0.57083309  0.21515428  0.08967634  1
  Te  Te136  1  0.58790938  0.24808534  0.41663666  1
  Te  Te137  1  0.57659918  0.23900853  0.73902165  1
  Te  Te138  1  0.58705188  0.58822267  0.08157271  1
  Te  Te139  1  0.57644297  0.57836817  0.39628508  1
  Te  Te140  1  0.56097066  0.59122230  0.78116631  1
  Te  Te141  1  0.56604104  0.91510367  0.07831233  1
  Te  Te142  1  0.57721997  0.92445513  0.42652590  1
  Te  Te143  1  0.56734386  0.92146164  0.76843464  1
  Te  Te144  1  0.91653225  0.27030360  0.06524010  1
  Te  Te145  1  0.92622200  0.25128864  0.44154464  1
  Te  Te146  1  0.91842308  0.27006810  0.74946453  1
  Te  Te147  1  0.91129105  0.57948920  0.08228221  1
  Te  Te148  1  0.92623424  0.58622215  0.41463707  1
  Te  Te149  1  0.90119460  0.60265405  0.78745313  1
  Te  Te150  1  0.92152937  0.92862459  0.08699501  1
  Te  Te151  1  0.92038296  0.88993483  0.43397654  1
  Te  Te152  1  0.92702300  0.90785768  0.76038426  1
  Te  Te153  1  0.26310541  0.09212382  0.26726644  1
  Te  Te154  1  0.24763824  0.09744793  0.60024199  1
  Te  Te155  1  0.24924268  0.06947655  0.92322315  1
  Te  Te156  1  0.23516488  0.43893465  0.23567830  1
  Te  Te157  1  0.25668342  0.43125821  0.56994266  1
  Te  Te158  1  0.22430564  0.44173888  0.92791462  1
  Te  Te159  1  0.25453989  0.76612781  0.23418765  1
  Te  Te160  1  0.26818635  0.73916092  0.58156074  1
  Te  Te161  1  0.22721667  0.71550451  0.89086658  1
  Te  Te162  1  0.59154438  0.09797448  0.22384956  1
  Te  Te163  1  0.56145887  0.08043404  0.58289255  1
  Te  Te164  1  0.56393495  0.07495672  0.90478822  1
  Te  Te165  1  0.56592376  0.41342224  0.24543497  1
  Te  Te166  1  0.58180207  0.40975638  0.58895605  1
  Te  Te167  1  0.59949271  0.42440705  0.91382330  1
  Te  Te168  1  0.56676792  0.72876877  0.24036591  1
  Te  Te169  1  0.59816451  0.75706007  0.58968158  1
  Te  Te170  1  0.57050209  0.74856363  0.94948815  1
  Te  Te171  1  0.91925351  0.07598904  0.25151095  1
  Te  Te172  1  0.91123716  0.08014271  0.56967056  1
  Te  Te173  1  0.88518675  0.11292772  0.93203532  1
  Te  Te174  1  0.91082460  0.41793224  0.24837142  1
  Te  Te175  1  0.91753426  0.39491621  0.58825374  1
  Te  Te176  1  0.96085725  0.44806995  0.91306220  1
  Te  Te177  1  0.91519948  0.71452042  0.24321589  1
  Te  Te178  1  0.93452378  0.73497852  0.60288385  1
  Te  Te179  1  0.91658105  0.72169208  0.92291506  1
