# generated using pymatgen
data_In2Te3
_symmetry_space_group_name_H-M   'P 1'
_cell_length_a   18.75744701
_cell_length_b   18.76053719
_cell_length_c   18.75587971
_cell_angle_alpha   89.97975555
_cell_angle_beta   89.96425732
_cell_angle_gamma   90.03967120
_symmetry_Int_Tables_number   1
_chemical_formula_structural   In2Te3
_chemical_formula_sum   'In72 Te108'
_cell_volume   6600.18670798
_cell_formula_units_Z   36
loop_
 _symmetry_equiv_pos_site_id
 _symmetry_equiv_pos_as_xyz
  1  'x, y, z'
loop_
 _atom_site_type_symbol
 _atom_site_label
 _atom_site_symmetry_multiplicity
 _atom_site_fract_x
 _atom_site_fract_y
 _atom_site_fract_z
 _atom_site_occupancy
  In  In0  1  0.52225635  0.82893887  0.00265730  1
  In  In1  1  0.33391507  0.67277132  0.33280117  1
  In  In2  1  0.16331626  0.33849312  0.83123070  1
  In  In3  1  0.49103430  0.18657230  0.32439440  1
  In  In4  1  0.32675288  0.01691561  0.01300131  1
  In  In5  1  0.68524575  0.00108992  0.64145817  1
  In  In6  1  0.01600688  -0.00471431  0.67839824  1
  In  In7  1  0.15218518  0.81191576  0.33509508  1
  In  In8  1  0.34256939  0.19520319  0.13369576  1
  In  In9  1  -0.01347879  0.51120112  0.49963376  1
  In  In10  1  0.68388509  0.81213908  0.17121451  1
  In  In11  1  0.51668331  0.00343568  0.50143453  1
  In  In12  1  0.17730035  0.83708891  0.65693946  1
  In  In13  1  0.84586065  0.02112196  0.82708834  1
  In  In14  1  0.49243236  0.49858146  0.66717479  1
  In  In15  1  0.17626259  0.00399246  0.16230009  1
  In  In16  1  -0.00150828  0.18001429  0.52170589  1
  In  In17  1  0.35134029  0.19093761  0.87106529  1
  In  In18  1  0.36531436  0.51527484  0.47893855  1
  In  In19  1  -0.00329599  0.16544245  0.84021328  1
  In  In20  1  0.15792632  0.64347329  0.82930770  1
  In  In21  1  0.84087542  -0.01844759  0.16400435  1
  In  In22  1  0.33742207  0.81554278  0.50024251  1
  In  In23  1  0.16230815  0.32521787  0.50877660  1
  In  In24  1  0.66517387  0.00895498  0.33618947  1
  In  In25  1  0.50050972  0.82218574  0.66201226  1
  In  In26  1  0.62528825  0.20929068  0.81663623  1
  In  In27  1  0.83272073  0.66364205  0.85024103  1
  In  In28  1  0.33689849  0.18122518  0.51604992  1
  In  In29  1  0.85129829  0.16449580  -0.00540277  1
  In  In30  1  -0.01382363  0.66723950  0.34204473  1
  In  In31  1  0.66296808  0.50503839  0.50073600  1
  In  In32  1  0.65637334  0.18389623  0.16503692  1
  In  In33  1  0.17620827  -0.01514223  0.51461568  1
  In  In34  1  0.81451902  0.34795578  0.17033564  1
  In  In35  1  0.66217389  0.82409910  0.83486305  1
  In  In36  1  0.32814925  0.85910686  0.17383799  1
  In  In37  1  0.82954067  0.35626389  0.83694991  1
  In  In38  1  0.52085784  0.49005822  0.33368653  1
  In  In39  1  0.15412225  0.49229993  0.67974259  1
  In  In40  1  0.31800145  0.47650035  0.83513301  1
  In  In41  1  0.66313118  0.66854349  -0.01009166  1
  In  In42  1  0.35525353  -0.01007134  0.30111294  1
  In  In43  1  0.01315141  0.77729478  0.15014286  1
  In  In44  1  0.51285456  0.49988874  -0.00399995  1
  In  In45  1  0.16240125  0.49492655  -0.00944738  1
  In  In46  1  0.82255283  -0.00980768  0.48446637  1
  In  In47  1  -0.00744821  0.32468416  0.32275334  1
  In  In48  1  -0.01885592  0.51826699  0.14669020  1
  In  In49  1  0.31801448  0.65409523  -0.00544424  1
  In  In50  1  0.83753853  0.84082687  0.64086501  1
  In  In51  1  -0.02017725  0.67636105  0.65861747  1
  In  In52  1  0.84611811  0.82048843  0.02428252  1
  In  In53  1  0.32517591  0.81309825  0.82374332  1
  In  In54  1  0.16517957  0.17781215  0.35332419  1
  In  In55  1  0.64482405  0.65446363  0.65549869  1
  In  In56  1  0.33055608  0.48459069  0.13811488  1
  In  In57  1  0.01267381  0.14329304  0.17485642  1
  In  In58  1  0.02724615  0.85170432  0.87317285  1
  In  In59  1  0.32260769  0.01598283  0.68969745  1
  In  In60  1  0.66837009  0.34831126  0.01563167  1
  In  In61  1  0.18291765  0.49950972  0.31341687  1
  In  In62  1  0.00092653  0.34551072  -0.00938681  1
  In  In63  1  0.64826959  0.33230012  0.32826311  1
  In  In64  1  -0.02246018  -0.01587975  0.33863743  1
  In  In65  1  0.50600063  0.67569507  0.17521902  1
  In  In66  1  0.48549048  0.01244169  0.83453396  1
  In  In67  1  0.65381559  0.00164402  -0.01750177  1
  In  In68  1  0.82289686  0.34661722  0.49921679  1
  In  In69  1  0.82398162  0.49000149  0.66153965  1
  In  In70  1  0.34643626  0.34339560  0.66827097  1
  In  In71  1  0.81677289  0.18205007  0.66370074  1
  Te  Te72  1  0.09820063  0.08859237  0.06760491  1
  Te  Te73  1  0.07571692  0.07606998  0.42560027  1
  Te  Te74  1  0.09444832  0.09063826  0.75721333  1
  Te  Te75  1  0.08428307  0.41489747  0.09796364  1
  Te  Te76  1  0.08113648  0.41606745  0.41183069  1
  Te  Te77  1  0.05980883  0.42608218  0.77233664  1
  Te  Te78  1  0.12226210  0.73392643  0.06437810  1
  Te  Te79  1  0.08281711  0.73207364  0.43639011  1
  Te  Te80  1  0.07749887  0.75555166  0.75098581  1
  Te  Te81  1  0.42455155  0.07399382  0.10649150  1
  Te  Te82  1  0.40324832  0.08038269  0.41897132  1
  Te  Te83  1  0.42096224  0.11677827  0.74644456  1
  Te  Te84  1  0.42603711  0.39381405  0.06183653  1
  Te  Te85  1  0.43545489  0.40244614  0.41728590  1
  Te  Te86  1  0.43534801  0.39265015  0.78364037  1
  Te  Te87  1  0.40992845  0.74859226  0.07710083  1
  Te  Te88  1  0.43271960  0.75535216  0.40541121  1
  Te  Te89  1  0.41827089  0.73062198  0.74480169  1
  Te  Te90  1  0.75073168  0.08223150  0.08125441  1
  Te  Te91  1  0.73930076  0.09752115  0.42901971  1
  Te  Te92  1  0.72751677  0.09427621  0.76669820  1
  Te  Te93  1  0.76116382  0.44828694  0.07686047  1
  Te  Te94  1  0.74725918  0.42941098  0.39654333  1
  Te  Te95  1  0.72988735  0.40793132  0.74097773  1
  Te  Te96  1  0.77508324  0.70375042  0.09674280  1
  Te  Te97  1  0.73102227  0.70477856  0.37221977  1
  Te  Te98  1  0.75528680  0.74882577  0.74110011  1
  Te  Te99  1  0.09867845  0.25432442  0.23844494  1
  Te  Te100  1  0.08745653  0.25241956  0.61306554  1
  Te  Te101  1  0.09538092  0.24150293  0.93151756  1
  Te  Te102  1  0.07720103  0.58679269  0.24710616  1
  Te  Te103  1  0.08509520  0.59058282  0.58443411  1
  Te  Te104  1  0.06082999  0.56321958  0.90708760  1
  Te  Te105  1  0.08039440  0.91604826  0.24798336  1
  Te  Te106  1  0.06465231  0.89773266  0.57053948  1
  Te  Te107  1  0.11260494  0.95536535  0.92920885  1
  Te  Te108  1  0.40812137  0.27712423  0.24066072  1
  Te  Te109  1  0.44189257  0.26292072  0.58382451  1
  Te  Te110  1  0.44026955  0.26578711  0.96531768  1
  Te  Te111  1  0.40971462  0.57326720  0.24074670  1
  Te  Te112  1  0.42982799  0.60061287  0.57981585  1
  Te  Te113  1  0.41191647  0.57630310  0.90649578  1
  Te  Te114  1  0.44910108  0.88413580  0.25691338  1
  Te  Te115  1  0.40222185  0.92816724  0.59332554  1
  Te  Te116  1  0.41603290  0.90556962  0.91878899  1
  Te  Te117  1  0.75618822  0.24154959  0.26254348  1
  Te  Te118  1  0.72875951  0.26153053  0.57708490  1
  Te  Te119  1  0.74650883  0.24249809  0.91770869  1
  Te  Te120  1  0.80336649  0.62574146  0.27429928  1
  Te  Te121  1  0.76191247  0.59798335  0.57402615  1
  Te  Te122  1  0.73289298  0.56863006  0.90471098  1
  Te  Te123  1  0.75922968  0.90579050  0.26698531  1
  Te  Te124  1  0.72336959  0.88685577  0.54925998  1
  Te  Te125  1  0.75932530  0.90398769  0.92541276  1
  Te  Te126  1  0.24402840  0.26166839  0.04728532  1
  Te  Te127  1  0.26906636  0.27252136  0.41275291  1
  Te  Te128  1  0.26038342  0.25146423  0.75455517  1
  Te  Te129  1  0.22344649  0.59011709  0.09648481  1
  Te  Te130  1  0.24200384  0.58880182  0.42196959  1
  Te  Te131  1  0.26430428  0.58270152  0.73875368  1
  Te  Te132  1  0.23286036  0.90336213  0.06016060  1
  Te  Te133  1  0.25266047  0.91638461  0.40181861  1
  Te  Te134  1  0.23236434  0.92315410  0.77060400  1
  Te  Te135  1  0.56206731  0.25551845  0.07351898  1
  Te  Te136  1  0.58395093  0.24048669  0.42553496  1
  Te  Te137  1  0.55415559  0.28953616  0.71422239  1
  Te  Te138  1  0.59589457  0.58034006  0.09857972  1
  Te  Te139  1  0.58954372  0.59952014  0.40974729  1
  Te  Te140  1  0.59058497  0.56469246  0.75874694  1
  Te  Te141  1  0.59519135  0.92009691  0.09861390  1
  Te  Te142  1  0.57740268  0.90965955  0.40602779  1
  Te  Te143  1  0.58550006  0.92735685  0.75166322  1
  Te  Te144  1  0.92017995  0.25375968  0.09696970  1
  Te  Te145  1  0.90671398  0.24244228  0.41848403  1
  Te  Te146  1  0.91460043  0.25941363  0.75213599  1
  Te  Te147  1  0.90368065  0.61605185  0.06795381  1
  Te  Te148  1  0.88487982  0.57603043  0.41115000  1
  Te  Te149  1  0.91410024  0.57610274  0.75236497  1
  Te  Te150  1  0.95066340  0.91020678  0.08840060  1
  Te  Te151  1  0.90912899  0.88511674  0.42406932  1
  Te  Te152  1  0.91578643  0.90097409  0.76188482  1
  Te  Te153  1  0.25428751  0.09935663  0.25410395  1
  Te  Te154  1  0.23332415  0.09977250  0.59579834  1
  Te  Te155  1  0.25206053  0.08439201  0.90498510  1
  Te  Te156  1  0.26589831  0.39951643  0.24292736  1
  Te  Te157  1  0.25491988  0.42913571  0.57845662  1
  Te  Te158  1  0.26295164  0.38393508  0.94936753  1
  Te  Te159  1  0.24322766  0.74536067  0.23316998  1
  Te  Te160  1  0.25430430  0.73205512  0.58849548  1
  Te  Te161  1  0.22076019  0.74955004  0.92328126  1
  Te  Te162  1  0.56973378  0.08387600  0.24123891  1
  Te  Te163  1  0.58524464  0.09657025  0.59228980  1
  Te  Te164  1  0.56459979  0.10779132  0.92397680  1
  Te  Te165  1  0.59093707  0.42024154  0.22390810  1
  Te  Te166  1  0.58776767  0.41030567  0.59032431  1
  Te  Te167  1  0.60262555  0.42329248  0.90473746  1
  Te  Te168  1  0.60548598  0.73272155  0.27446368  1
  Te  Te169  1  0.58377885  0.75251546  0.56243972  1
  Te  Te170  1  0.55898219  0.72862453  0.89323562  1
  Te  Te171  1  0.89824180  0.08809412  0.26010466  1
  Te  Te172  1  0.90583307  0.07160821  0.59829379  1
  Te  Te173  1  0.94241693  0.05602699  0.93897601  1
  Te  Te174  1  0.90984011  0.43239806  0.25548073  1
  Te  Te175  1  0.93156078  0.40349630  0.59152895  1
  Te  Te176  1  0.89881842  0.43899852  0.93855059  1
  Te  Te177  1  0.90584493  0.75864648  0.25210158  1
  Te  Te178  1  0.90238854  0.74267587  0.55019605  1
  Te  Te179  1  0.93965997  0.73888949  0.93272535  1
