# generated using pymatgen
data_In2Te3
_symmetry_space_group_name_H-M   'P 1'
_cell_length_a   18.93986594
_cell_length_b   18.93083550
_cell_length_c   18.93374115
_cell_angle_alpha   90.15579554
_cell_angle_beta   89.96701505
_cell_angle_gamma   89.95637297
_symmetry_Int_Tables_number   1
_chemical_formula_structural   In2Te3
_chemical_formula_sum   'In72 Te108'
_cell_volume   6788.61710009
_cell_formula_units_Z   36
loop_
 _symmetry_equiv_pos_site_id
 _symmetry_equiv_pos_as_xyz
  1  'x, y, z'
loop_
 _atom_site_type_symbol
 _atom_site_label
 _atom_site_symmetry_multiplicity
 _atom_site_fract_x
 _atom_site_fract_y
 _atom_site_fract_z
 _atom_site_occupancy
  In  In0  1  0.33329510  -0.01701198  0.63378946  1
  In  In1  1  0.31397801  0.49540076  0.20806390  1
  In  In2  1  0.32394308  -0.01459389  0.35911090  1
  In  In3  1  0.69175177  0.01677391  0.33608663  1
  In  In4  1  0.49849071  0.47456318  -0.01289293  1
  In  In5  1  0.14136343  0.33801667  0.49146636  1
  In  In6  1  0.85938664  0.49425282  0.66030342  1
  In  In7  1  0.14223613  0.01703970  0.81670231  1
  In  In8  1  0.69509841  0.85419180  0.49881122  1
  In  In9  1  0.33505593  0.83217606  0.81172125  1
  In  In10  1  0.83835528  0.83184051  0.00371774  1
  In  In11  1  0.84007209  0.69242596  0.79173812  1
  In  In12  1  0.13163225  0.64015791  0.15200898  1
  In  In13  1  0.51435981  0.64145061  0.16426996  1
  In  In14  1  0.32853960  0.16809977  0.50594980  1
  In  In15  1  0.16852118  0.19491969  -0.00130610  1
  In  In16  1  0.82817814  0.32381727  0.13666117  1
  In  In17  1  0.85389723  0.00126130  0.17792867  1
  In  In18  1  0.50108264  0.84354388  0.00336289  1
  In  In19  1  -0.01098198  0.16154088  0.16589937  1
  In  In20  1  0.85171266  0.51148763  0.34813516  1
  In  In21  1  0.15410283  0.16132533  0.33737521  1
  In  In22  1  0.82487925  0.34124427  0.88193268  1
  In  In23  1  0.31532581  0.32482827  0.68050364  1
  In  In24  1  0.00375060  0.64994758  -0.01133502  1
  In  In25  1  0.48466672  0.67653654  0.48663941  1
  In  In26  1  0.87779718  0.63729588  0.18190819  1
  In  In27  1  0.01155842  0.33744812  0.32910289  1
  In  In28  1  0.64843979  0.82493874  0.15478336  1
  In  In29  1  0.84796152  -0.01174760  0.80133931  1
  In  In30  1  0.33378324  0.17403148  0.83205584  1
  In  In31  1  0.50387793  0.13871033  0.65187541  1
  In  In32  1  0.49612981  0.49641230  0.33633522  1
  In  In33  1  -0.00701118  0.49556565  0.47622016  1
  In  In34  1  0.11972535  0.83661333  0.63071793  1
  In  In35  1  0.67119211  0.52219165  0.83005985  1
  In  In36  1  0.48880934  0.16592395  0.33814969  1
  In  In37  1  0.67573697  0.01539504  -0.00991825  1
  In  In38  1  0.49784585  0.50072391  0.65384016  1
  In  In39  1  0.33696369  0.33848887  0.01338386  1
  In  In40  1  0.16139292  0.85606802  -0.01818956  1
  In  In41  1  0.83991516  0.15331971  0.66427709  1
  In  In42  1  0.16810080  0.66059483  0.51212250  1
  In  In43  1  0.31977183  0.52503158  0.86123674  1
  In  In44  1  0.00240100  0.18222665  0.83859699  1
  In  In45  1  0.66488405  0.67115995  -0.01446335  1
  In  In46  1  0.48475046  0.25814955  0.14371066  1
  In  In47  1  0.15191489  0.47252762  0.01293489  1
  In  In48  1  0.67233507  0.13134533  0.51757487  1
  In  In49  1  0.18132688  0.00742911  0.19434793  1
  In  In50  1  0.33468654  0.50144179  0.48254203  1
  In  In51  1  0.47809300  0.69265670  0.81274986  1
  In  In52  1  0.65884128  0.31978754  0.66159356  1
  In  In53  1  0.65857830  0.31982939  0.32843639  1
  In  In54  1  0.32102313  0.69526599  0.01569746  1
  In  In55  1  0.67742427  0.49688056  0.51695983  1
  In  In56  1  0.00490416  0.16149943  0.49769878  1
  In  In57  1  0.49823963  0.84373598  0.33973073  1
  In  In58  1  -0.01387317  0.67928865  0.64292425  1
  In  In59  1  0.00265102  0.33927994  0.66928828  1
  In  In60  1  0.15539438  0.81650595  0.35610288  1
  In  In61  1  -0.00830611  0.02019413  -0.01730682  1
  In  In62  1  0.71703907  0.48272512  0.16952508  1
  In  In63  1  0.68837028  0.68648756  0.63994942  1
  In  In64  1  0.84293338  0.80994398  0.33737390  1
  In  In65  1  0.31836751  0.83195600  0.21386724  1
  In  In66  1  0.52421808  -0.01956322  0.82009042  1
  In  In67  1  0.67093221  0.17608204  0.15686207  1
  In  In68  1  0.00305762  -0.02457647  0.36454589  1
  In  In69  1  0.49166351  0.31210968  0.79768457  1
  In  In70  1  0.16993944  0.50113051  0.70133392  1
  In  In71  1  0.34743348  0.02713205  0.02389231  1
  Te  Te72  1  0.09394477  0.07289995  0.08694299  1
  Te  Te73  1  0.10546568  0.06047189  0.43789516  1
  Te  Te74  1  0.04429492  0.08788734  0.72979407  1
  Te  Te75  1  0.06755983  0.45079867  0.13263112  1
  Te  Te76  1  0.11812830  0.45385928  0.38837402  1
  Te  Te77  1  0.07599391  0.41394827  0.77161558  1
  Te  Te78  1  0.08332144  0.75692218  0.06667573  1
  Te  Te79  1  0.06244167  0.72675474  0.42938150  1
  Te  Te80  1  0.08441159  0.73848520  0.73299156  1
  Te  Te81  1  0.42408468  0.12678178  0.09516783  1
  Te  Te82  1  0.42289424  0.07074536  0.43714452  1
  Te  Te83  1  0.40827702  0.06826119  0.75381767  1
  Te  Te84  1  0.41586632  0.43117099  0.10571732  1
  Te  Te85  1  0.41105777  0.39949529  0.40748042  1
  Te  Te86  1  0.40721806  0.43517803  0.75851347  1
  Te  Te87  1  0.42521149  0.76123932  0.10717161  1
  Te  Te88  1  0.39594906  0.76530077  0.40964604  1
  Te  Te89  1  0.42503337  0.78224857  0.70072735  1
  Te  Te90  1  0.77207268  0.08716546  0.08429069  1
  Te  Te91  1  0.78401457  0.07013476  0.43870159  1
  Te  Te92  1  0.74267551  0.06859846  0.73585288  1
  Te  Te93  1  0.76066421  0.42116842  0.03874974  1
  Te  Te94  1  0.74710271  0.41516504  0.41033178  1
  Te  Te95  1  0.74245716  0.42826552  0.73191148  1
  Te  Te96  1  0.75610968  0.73606757  0.09020617  1
  Te  Te97  1  0.73649245  0.74328175  0.41164381  1
  Te  Te98  1  0.72628568  0.78272804  0.75021795  1
  Te  Te99  1  0.09148614  0.25130418  0.23228052  1
  Te  Te100  1  0.09284924  0.24098485  0.59597067  1
  Te  Te101  1  0.05633804  0.27310129  0.94462795  1
  Te  Te102  1  0.06515773  0.54936181  0.24631488  1
  Te  Te103  1  0.07560170  0.55653862  0.58903516  1
  Te  Te104  1  0.10499466  0.57201950  0.91655845  1
  Te  Te105  1  0.08498200  0.90885509  0.25409095  1
  Te  Te106  1  0.03409255  0.95744994  0.62511838  1
  Te  Te107  1  0.05553474  0.91623364  0.89067102  1
  Te  Te108  1  0.41893856  0.27948226  0.27253838  1
  Te  Te109  1  0.41840079  0.25390410  0.59517902  1
  Te  Te110  1  0.42698943  0.25220527  0.92063742  1
  Te  Te111  1  0.40910382  0.59980278  0.26535533  1
  Te  Te112  1  0.40190866  0.59408601  0.58571529  1
  Te  Te113  1  0.43326720  0.60939778  0.93611776  1
  Te  Te114  1  0.41952907  0.93710460  0.24675266  1
  Te  Te115  1  0.43109988  0.88712052  0.58928269  1
  Te  Te116  1  0.39883336  0.91897305  0.92133529  1
  Te  Te117  1  0.76556882  0.24079394  0.25445843  1
  Te  Te118  1  0.75679616  0.24692186  0.57462283  1
  Te  Te119  1  0.72471039  0.26467213  0.95381674  1
  Te  Te120  1  0.75386387  0.59724715  0.25953835  1
  Te  Te121  1  0.78417777  0.59141415  0.57017975  1
  Te  Te122  1  0.77275812  0.60473441  0.90347688  1
  Te  Te123  1  0.74849806  0.90827234  0.23784736  1
  Te  Te124  1  0.78638853  0.89308566  0.61161531  1
  Te  Te125  1  0.75823182  0.91715202  0.90945878  1
  Te  Te126  1  0.25158512  0.25729496  0.10064768  1
  Te  Te127  1  0.24419170  0.25636703  0.41459664  1
  Te  Te128  1  0.22639079  0.24987055  0.76887302  1
  Te  Te129  1  0.25937651  0.57518844  0.08215736  1
  Te  Te130  1  0.25351812  0.59821299  0.40896381  1
  Te  Te131  1  0.26830017  0.60048196  0.74727054  1
  Te  Te132  1  0.25496714  0.91145770  0.09140489  1
  Te  Te133  1  0.24110651  0.89844735  0.44639580  1
  Te  Te134  1  0.23179273  0.91906944  0.74192142  1
  Te  Te135  1  0.60754343  0.27416451  0.06230990  1
  Te  Te136  1  0.59074046  0.23030552  0.42991151  1
  Te  Te137  1  0.59692892  0.21473998  0.75066283  1
  Te  Te138  1  0.60475801  0.56035080  0.07054079  1
  Te  Te139  1  0.58638814  0.57901117  0.42627303  1
  Te  Te140  1  0.58402176  0.60274935  0.73157043  1
  Te  Te141  1  0.58020170  0.94134870  0.08702713  1
  Te  Te142  1  0.59188432  0.93530129  0.41591655  1
  Te  Te143  1  0.59881249  0.87464663  0.75466794  1
  Te  Te144  1  0.93080654  0.24728865  0.06049526  1
  Te  Te145  1  0.92740256  0.25712581  0.41752436  1
  Te  Te146  1  0.89424275  0.26921131  0.76088372  1
  Te  Te147  1  0.92165790  0.54850602  0.06823207  1
  Te  Te148  1  0.93223166  0.61736739  0.41624531  1
  Te  Te149  1  0.93648167  0.57975598  0.75598721  1
  Te  Te150  1  0.93624669  0.91779595  0.08208794  1
  Te  Te151  1  0.92135509  0.88066633  0.44335515  1
  Te  Te152  1  0.91964079  0.89025113  0.70875311  1
  Te  Te153  1  0.27520704  0.09856980  0.26691462  1
  Te  Te154  1  0.24498926  0.09301980  0.59950567  1
  Te  Te155  1  0.23777025  0.07514422  0.92232856  1
  Te  Te156  1  0.20597615  0.41709129  0.26621933  1
  Te  Te157  1  0.24259802  0.41566684  0.58302694  1
  Te  Te158  1  0.24818382  0.40290255  0.90972860  1
  Te  Te159  1  0.21935331  0.72688678  0.24817088  1
  Te  Te160  1  0.24132739  0.77595576  0.57134441  1
  Te  Te161  1  0.23992605  0.75168162  0.90172090  1
  Te  Te162  1  0.58999441  0.08932786  0.25140180  1
  Te  Te163  1  0.60051609  0.03794083  0.60593419  1
  Te  Te164  1  0.57012043  0.08250573  0.91380012  1
  Te  Te165  1  0.59610478  0.42643599  0.24018536  1
  Te  Te166  1  0.57000051  0.40026495  0.56726476  1
  Te  Te167  1  0.58147766  0.41054287  0.87854383  1
  Te  Te168  1  0.58122145  0.73962797  0.25953782  1
  Te  Te169  1  0.58468944  0.76360627  0.56218222  1
  Te  Te170  1  0.58414923  0.76712461  0.90193632  1
  Te  Te171  1  0.92903984  0.08197401  0.28072128  1
  Te  Te172  1  0.90213913  0.06846748  0.55667992  1
  Te  Te173  1  0.89221639  0.09797250  0.90162282  1
  Te  Te174  1  0.89699731  0.40131570  0.25360692  1
  Te  Te175  1  0.91378595  0.39503803  0.55884777  1
  Te  Te176  1  0.90625964  0.43906107  0.95441842  1
  Te  Te177  1  0.93790780  0.75707747  0.23787657  1
  Te  Te178  1  0.89635961  0.78649925  0.58626263  1
  Te  Te179  1  0.92274477  0.75253868  0.90582968  1
