# generated using pymatgen
data_In2Te3
_symmetry_space_group_name_H-M   'P 1'
_cell_length_a   18.99839346
_cell_length_b   18.98617070
_cell_length_c   19.02562901
_cell_angle_alpha   90.03564338
_cell_angle_beta   89.91982716
_cell_angle_gamma   89.98454625
_symmetry_Int_Tables_number   1
_chemical_formula_structural   In2Te3
_chemical_formula_sum   'In72 Te108'
_cell_volume   6862.66434362
_cell_formula_units_Z   36
loop_
 _symmetry_equiv_pos_site_id
 _symmetry_equiv_pos_as_xyz
  1  'x, y, z'
loop_
 _atom_site_type_symbol
 _atom_site_label
 _atom_site_symmetry_multiplicity
 _atom_site_fract_x
 _atom_site_fract_y
 _atom_site_fract_z
 _atom_site_occupancy
  In  In0  1  0.81104828  0.30116831  0.19492926  1
  In  In1  1  0.65676139  0.16132773  0.49679479  1
  In  In2  1  0.80608763  0.00877009  0.45861899  1
  In  In3  1  0.00646466  0.49807102  0.84172980  1
  In  In4  1  0.46324494  0.18499594  0.00172447  1
  In  In5  1  -0.00189412  0.51179821  0.49999085  1
  In  In6  1  0.00638392  0.17624851  0.83768543  1
  In  In7  1  0.00106830  0.65325157  -0.01759920  1
  In  In8  1  0.18860426  0.01516850  0.52268773  1
  In  In9  1  0.31375592  0.81365580  0.16382919  1
  In  In10  1  0.18698856  0.64038575  0.18253845  1
  In  In11  1  0.19411835  0.18997728  0.33865709  1
  In  In12  1  0.67769757  0.33273863  0.00374126  1
  In  In13  1  -0.00916028  0.00413947  0.33477445  1
  In  In14  1  0.32775760  0.17695502  0.13314531  1
  In  In15  1  0.38224451  0.46603299  0.49295595  1
  In  In16  1  0.52469335  -0.00669893  0.18583445  1
  In  In17  1  0.35328727  0.67700149  0.34027019  1
  In  In18  1  0.16329495  0.34553409  0.17577840  1
  In  In19  1  0.51098474  0.00615185  0.49154786  1
  In  In20  1  0.21258715  0.26409186  0.53055301  1
  In  In21  1  0.84790322  0.33335898  0.50155449  1
  In  In22  1  0.01515068  0.17837905  0.51111705  1
  In  In23  1  0.66353952  0.84664848  0.49271087  1
  In  In24  1  -0.00252338  0.00564734  0.67949548  1
  In  In25  1  0.52742940  0.33283268  0.17512462  1
  In  In26  1  0.00093430  0.34949046  0.00314677  1
  In  In27  1  0.00589260  -0.00796988  0.00477378  1
  In  In28  1  0.16239584  0.66422521  0.49124970  1
  In  In29  1  0.79881930  0.00770781  0.80955003  1
  In  In30  1  0.83813062  0.67196906  0.16435654  1
  In  In31  1  0.81153752  -0.01166691  0.21057786  1
  In  In32  1  0.61131297  0.45754028  0.46457250  1
  In  In33  1  0.66519757  0.01358084  -0.00106138  1
  In  In34  1  0.33622417  -0.02790593  0.31986058  1
  In  In35  1  0.82941478  0.67761471  0.85041282  1
  In  In36  1  0.68054875  0.67074982  0.34377564  1
  In  In37  1  0.15377325  0.48103382  0.66467817  1
  In  In38  1  0.83799734  0.15591066  0.67100939  1
  In  In39  1  0.14611372  0.01805532  0.15766941  1
  In  In40  1  0.65218999  0.46886731  0.81739480  1
  In  In41  1  0.50283323  0.50069372  0.64818290  1
  In  In42  1  0.34415558  0.83678779  0.50147901  1
  In  In43  1  0.61417529  0.20468060  0.81984418  1
  In  In44  1  0.66775739  0.67158005  0.02128181  1
  In  In45  1  0.47710038  0.02191496  0.80287683  1
  In  In46  1  0.16653025  0.85143739  0.69091898  1
  In  In47  1  0.50839597  0.15896994  0.33628557  1
  In  In48  1  0.47942274  0.49270209  0.00046506  1
  In  In49  1  0.83866071  0.65329273  0.52806065  1
  In  In50  1  0.50666284  0.83540964  0.64786182  1
  In  In51  1  0.51810493  0.66672040  0.18769295  1
  In  In52  1  0.81901766  0.49147855  0.01245894  1
  In  In53  1  0.35307723  0.66180431  0.66091739  1
  In  In54  1  0.34518574  0.32155456  0.68172426  1
  In  In55  1  0.30570388  0.46981428  0.84555043  1
  In  In56  1  0.81469651  0.49032934  0.33617279  1
  In  In57  1  0.83500254  0.16318458  -0.00501929  1
  In  In58  1  0.82591244  0.84785838  0.63731548  1
  In  In59  1  0.64790868  0.83452048  0.83392252  1
  In  In60  1  0.31096917  0.64506253  -0.00224987  1
  In  In61  1  0.01681630  0.68796340  0.31906010  1
  In  In62  1  0.33245783  0.02348162  -0.03461313  1
  In  In63  1  0.16170491  0.66958218  0.83408201  1
  In  In64  1  0.67955939  0.64035787  0.65636513  1
  In  In65  1  0.01892701  0.34499336  0.32906995  1
  In  In66  1  0.18142588  0.02035416  0.82452525  1
  In  In67  1  0.00545290  0.82922590  0.15584325  1
  In  In68  1  0.16354181  0.83823935  -0.00862219  1
  In  In69  1  0.17625717  0.49464297  0.33353466  1
  In  In70  1  0.49558103  0.84204073  -0.00191223  1
  In  In71  1  0.83224061  0.49938197  0.68499243  1
  Te  Te72  1  0.07795922  0.10624760  0.06228794  1
  Te  Te73  1  0.10042771  0.09129666  0.41625533  1
  Te  Te74  1  0.09477536  0.10584665  0.73369381  1
  Te  Te75  1  0.08369674  0.43374847  0.08946625  1
  Te  Te76  1  0.09627724  0.41578667  0.43710983  1
  Te  Te77  1  0.10303601  0.40267734  0.77941694  1
  Te  Te78  1  0.10456263  0.73206788  0.08332551  1
  Te  Te79  1  0.07325780  0.76152505  0.42993207  1
  Te  Te80  1  0.07619867  0.76229153  0.76268891  1
  Te  Te81  1  0.42581092  0.05665491  0.08716889  1
  Te  Te82  1  0.40325035  0.07402560  0.40815944  1
  Te  Te83  1  0.38186991  0.13588551  0.77430521  1
  Te  Te84  1  0.41931711  0.38597373  0.08473542  1
  Te  Te85  1  0.48017697  0.40681891  0.39240913  1
  Te  Te86  1  0.42122566  0.42831808  0.75665131  1
  Te  Te87  1  0.41322808  0.73878124  0.07546684  1
  Te  Te88  1  0.43832310  0.77247976  0.41078653  1
  Te  Te89  1  0.43316509  0.75152018  0.74211381  1
  Te  Te90  1  0.75727217  0.08230323  0.09509871  1
  Te  Te91  1  0.75835209  0.13101293  0.38784341  1
  Te  Te92  1  0.71107105  0.10881819  0.74375091  1
  Te  Te93  1  0.74003180  0.41271733  0.11452780  1
  Te  Te94  1  0.73785368  0.38539081  0.41008090  1
  Te  Te95  1  0.74812732  0.39317967  0.73904119  1
  Te  Te96  1  0.76834946  0.76223181  0.07250724  1
  Te  Te97  1  0.76796236  0.75263220  0.43606798  1
  Te  Te98  1  0.74100667  0.75304976  0.73914424  1
  Te  Te99  1  0.08391336  0.23527754  0.24664714  1
  Te  Te100  1  0.08402535  0.27059855  0.60020492  1
  Te  Te101  1  0.08702434  0.28365902  0.90144540  1
  Te  Te102  1  0.07202155  0.56699629  0.24903330  1
  Te  Te103  1  0.07839476  0.59403007  0.59842068  1
  Te  Te104  1  0.11199901  0.56378080  0.93051637  1
  Te  Te105  1  0.08841480  0.91451142  0.24868398  1
  Te  Te106  1  0.08428771  0.92453678  0.58562605  1
  Te  Te107  1  0.08281527  0.92129892  0.89659078  1
  Te  Te108  1  0.42276468  0.23532516  0.23399225  1
  Te  Te109  1  0.40888612  0.19578850  0.62622573  1
  Te  Te110  1  0.38253583  0.24711305  0.89087657  1
  Te  Te111  1  0.40314161  0.58644069  0.23448215  1
  Te  Te112  1  0.43590861  0.59628969  0.55240558  1
  Te  Te113  1  0.40356791  0.57660855  0.90014653  1
  Te  Te114  1  0.42755253  0.88583137  0.23711330  1
  Te  Te115  1  0.41262301  0.93944458  0.58830616  1
  Te  Te116  1  0.41276186  0.91562073  0.89528297  1
  Te  Te117  1  0.71089938  0.22484669  0.27087930  1
  Te  Te118  1  0.75440037  0.24554129  0.58139606  1
  Te  Te119  1  0.74173381  0.23920569  0.90445823  1
  Te  Te120  1  0.74340565  0.57979833  0.23777854  1
  Te  Te121  1  0.74288474  0.54091921  0.56181876  1
  Te  Te122  1  0.73675335  0.57303288  0.91190514  1
  Te  Te123  1  0.70800375  0.90954225  0.27887401  1
  Te  Te124  1  0.73245293  0.95115513  0.57846074  1
  Te  Te125  1  0.74598908  0.91425599  0.91679992  1
  Te  Te126  1  0.23626204  0.27115518  0.06649900  1
  Te  Te127  1  0.28936694  0.27777677  0.40614638  1
  Te  Te128  1  0.26703255  0.24702778  0.78392039  1
  Te  Te129  1  0.28123594  0.55438924  0.10959475  1
  Te  Te130  1  0.26635568  0.57498703  0.42633189  1
  Te  Te131  1  0.24873678  0.57783064  0.74157447  1
  Te  Te132  1  0.25051809  0.92521444  0.08019849  1
  Te  Te133  1  0.24087808  0.91307387  0.42076729  1
  Te  Te134  1  0.27051088  0.94078263  0.73965289  1
  Te  Te135  1  0.58868102  0.23431207  0.07528186  1
  Te  Te136  1  0.55444130  0.25360220  0.43982031  1
  Te  Te137  1  0.55581899  0.29362198  0.72024550  1
  Te  Te138  1  0.57908707  0.56876500  0.08792646  1
  Te  Te139  1  0.57258909  0.57589523  0.38341267  1
  Te  Te140  1  0.57831695  0.58350780  0.75213519  1
  Te  Te141  1  0.60016946  0.90690373  0.08518797  1
  Te  Te142  1  0.60393876  0.94027335  0.39104908  1
  Te  Te143  1  0.58311195  0.93187638  0.73915123  1
  Te  Te144  1  0.90808371  0.25802474  0.08553582  1
  Te  Te145  1  0.93044886  0.24908596  0.40682105  1
  Te  Te146  1  0.91409205  0.24949326  0.75185022  1
  Te  Te147  1  0.92255433  0.57399056  0.08461981  1
  Te  Te148  1  0.91233127  0.58904555  0.40185833  1
  Te  Te149  1  0.92082755  0.59482414  0.76159240  1
  Te  Te150  1  0.90845142  0.92894828  0.09911261  1
  Te  Te151  1  0.91132610  0.91650930  0.42049087  1
  Te  Te152  1  0.90235807  0.91250506  0.75160161  1
  Te  Te153  1  0.25835089  0.08091741  0.24206347  1
  Te  Te154  1  0.26367272  0.13026761  0.57769655  1
  Te  Te155  1  0.21176793  0.10234713  0.94421831  1
  Te  Te156  1  0.26594430  0.40018177  0.26718941  1
  Te  Te157  1  0.27041484  0.41828831  0.58528452  1
  Te  Te158  1  0.30804770  0.37492930  0.96062373  1
  Te  Te159  1  0.23498692  0.74910586  0.27527259  1
  Te  Te160  1  0.24954522  0.74990198  0.59115599  1
  Te  Te161  1  0.26084330  0.75788356  0.90792989  1
  Te  Te162  1  0.60985179  0.10187048  0.24226350  1
  Te  Te163  1  0.55038107  0.11023817  0.58987241  1
  Te  Te164  1  0.56299451  0.08663088  0.91375617  1
  Te  Te165  1  0.57101443  0.43577771  0.27238875  1
  Te  Te166  1  0.58022782  0.38466375  0.59623144  1
  Te  Te167  1  0.56875338  0.39697724  0.92049375  1
  Te  Te168  1  0.61750806  0.76117338  0.24392286  1
  Te  Te169  1  0.59622148  0.73687246  0.57279530  1
  Te  Te170  1  0.57319793  0.73617833  0.92067418  1
  Te  Te171  1  0.91324387  0.08772594  0.24510033  1
  Te  Te172  1  0.91742918  0.07305313  0.56633869  1
  Te  Te173  1  0.90817211  0.06756544  0.90111025  1
  Te  Te174  1  0.90849095  0.40943904  0.24858398  1
  Te  Te175  1  0.92894287  0.41886411  0.59732343  1
  Te  Te176  1  0.89804281  0.41513025  0.90985945  1
  Te  Te177  1  0.90734430  0.77064571  0.25643569  1
  Te  Te178  1  0.92397138  0.74722204  0.59784987  1
  Te  Te179  1  0.91746109  0.76110192  0.93188968  1
