# generated using pymatgen
data_In2Te3
_symmetry_space_group_name_H-M   'P 1'
_cell_length_a   18.93121019
_cell_length_b   18.95357469
_cell_length_c   18.93860614
_cell_angle_alpha   90.28098722
_cell_angle_beta   89.92103461
_cell_angle_gamma   90.21151250
_symmetry_Int_Tables_number   1
_chemical_formula_structural   In2Te3
_chemical_formula_sum   'In72 Te108'
_cell_volume   6795.30472892
_cell_formula_units_Z   36
loop_
 _symmetry_equiv_pos_site_id
 _symmetry_equiv_pos_as_xyz
  1  'x, y, z'
loop_
 _atom_site_type_symbol
 _atom_site_label
 _atom_site_symmetry_multiplicity
 _atom_site_fract_x
 _atom_site_fract_y
 _atom_site_fract_z
 _atom_site_occupancy
  In  In0  1  0.67710341  0.16437806  0.82416773  1
  In  In1  1  0.80001791  0.65394593  0.16647720  1
  In  In2  1  0.15796741  0.16532596  0.31344530  1
  In  In3  1  0.84967674  0.48456837  -0.00621034  1
  In  In4  1  0.66507455  0.83435899  0.50689303  1
  In  In5  1  0.02784215  0.49957308  0.51119836  1
  In  In6  1  0.67154319  0.17815938  0.49435677  1
  In  In7  1  0.31928351  0.01401577  -0.00578901  1
  In  In8  1  0.48454030  0.51976232  0.65628540  1
  In  In9  1  0.49394097  0.16009527  0.33242380  1
  In  In10  1  0.34449109  0.15122631  0.49087124  1
  In  In11  1  0.15413715  0.01745413  0.50034344  1
  In  In12  1  0.67876145  0.83973865  0.84778856  1
  In  In13  1  0.50776176  0.48170650  0.33417994  1
  In  In14  1  0.16079176  0.84433813  0.67136663  1
  In  In15  1  0.17367304  0.66914476  0.79645576  1
  In  In16  1  0.32829507  -0.01994370  0.65582926  1
  In  In17  1  0.06864646  0.14748699  0.70096378  1
  In  In18  1  0.32950350  0.81123271  0.17588165  1
  In  In19  1  0.86395169  0.29659582  0.50598372  1
  In  In20  1  0.83987555  0.51080733  0.67390440  1
  In  In21  1  -0.02507585  0.84991948  0.15335814  1
  In  In22  1  0.83130207  0.65716816  0.82731469  1
  In  In23  1  0.85211627  0.88440614  0.00067351  1
  In  In24  1  -0.00054692  0.85096248  0.48490244  1
  In  In25  1  0.14260137  0.88122609  -0.04001534  1
  In  In26  1  0.48681470  0.66739719  0.50250406  1
  In  In27  1  0.29608697  0.52815400  0.82121913  1
  In  In28  1  0.64622186  0.63608224  0.26921736  1
  In  In29  1  0.49422283  0.83688834  0.00864799  1
  In  In30  1  0.00772514  0.65933964  0.36707900  1
  In  In31  1  0.52258490  0.01374351  0.83412850  1
  In  In32  1  0.66940087  0.83669473  0.16013919  1
  In  In33  1  0.81922815  0.81682182  0.31928832  1
  In  In34  1  0.28974993  0.30102075  0.02585448  1
  In  In35  1  0.18095355  0.00833834  0.17711081  1
  In  In36  1  0.84895012  0.64343781  0.51433287  1
  In  In37  1  0.87219188  0.03935052  0.50916064  1
  In  In38  1  -0.02478678  0.68142076  -0.00828898  1
  In  In39  1  -0.02561962  0.02363826  0.28641360  1
  In  In40  1  0.49317153  0.82526906  0.69759626  1
  In  In41  1  0.19729907  0.83798099  0.32475697  1
  In  In42  1  0.48889454  0.33330123  0.18353280  1
  In  In43  1  0.03435143  0.33385935  -0.00386241  1
  In  In44  1  0.31413556  0.33659591  0.35278231  1
  In  In45  1  0.69834626  0.00927674  0.33085816  1
  In  In46  1  0.53157250  0.15501255  0.65190472  1
  In  In47  1  0.53506027  0.50786823  0.13074210  1
  In  In48  1  0.29878146  0.14721579  0.82158157  1
  In  In49  1  0.84124087  0.01851652  0.81184514  1
  In  In50  1  0.15889100  0.49761109  0.00241571  1
  In  In51  1  0.47881129  0.33509682  0.47844084  1
  In  In52  1  0.68291864  0.34823640  0.65311719  1
  In  In53  1  0.69390841  0.48234481  0.48169801  1
  In  In54  1  0.48813673  0.34874294  0.84320615  1
  In  In55  1  0.31044103  0.36015210  0.62952199  1
  In  In56  1  0.14516027  0.67394477  0.16704875  1
  In  In57  1  0.48603361  -0.01628152  0.16765772  1
  In  In58  1  0.82262555  0.83815147  0.66059712  1
  In  In59  1  0.83429694  0.15257343  -0.00654601  1
  In  In60  1  0.48846849  0.68471231  0.83370074  1
  In  In61  1  0.33103496  0.82931020  0.81052758  1
  In  In62  1  -0.02201874  0.47194243  0.20288743  1
  In  In63  1  0.34419073  0.67763286  0.00006720  1
  In  In64  1  0.68813819  0.30987106  0.02114565  1
  In  In65  1  0.33010516  0.47388914  0.18016686  1
  In  In66  1  0.66289231  0.49237641  0.84304095  1
  In  In67  1  0.02079414  0.50187745  0.80589056  1
  In  In68  1  0.14844259  0.32575197  0.81455248  1
  In  In69  1  0.48747376  0.18278607  0.00983978  1
  In  In70  1  0.84040234  0.31631800  0.18182382  1
  In  In71  1  0.33316237  0.82138179  0.50811635  1
  Te  Te72  1  0.08904639  0.10165233  0.10849399  1
  Te  Te73  1  0.05680651  0.08201029  0.40270526  1
  Te  Te74  1  0.10428626  0.03296033  0.78846079  1
  Te  Te75  1  0.09094087  0.41776393  0.10932364  1
  Te  Te76  1  0.10409866  0.41121602  0.41484102  1
  Te  Te77  1  0.09742604  0.41834626  0.71195394  1
  Te  Te78  1  0.07870185  0.76758536  0.06659316  1
  Te  Te79  1  0.10534963  0.76272983  0.42231783  1
  Te  Te80  1  0.07806749  0.77564026  0.77182190  1
  Te  Te81  1  0.40164262  0.09155931  0.09476969  1
  Te  Te82  1  0.44958666  0.06513740  0.43679879  1
  Te  Te83  1  0.42307812  0.08149046  0.74167549  1
  Te  Te84  1  0.40678912  0.40016922  0.07181307  1
  Te  Te85  1  0.39120155  0.44706107  0.42521114  1
  Te  Te86  1  0.39844679  0.42332191  0.74574582  1
  Te  Te87  1  0.44101782  0.73285549  0.10344618  1
  Te  Te88  1  0.41432896  0.75049903  0.40754963  1
  Te  Te89  1  0.38730948  0.71849648  0.72535349  1
  Te  Te90  1  0.76759638  0.10611427  0.11714870  1
  Te  Te91  1  0.78118447  0.11089453  0.41170084  1
  Te  Te92  1  0.73681807  0.07657010  0.72459764  1
  Te  Te93  1  0.76073237  0.41960811  0.09679740  1
  Te  Te94  1  0.76191100  0.36702064  0.42417337  1
  Te  Te95  1  0.76551587  0.41351091  0.76345921  1
  Te  Te96  1  0.77637735  0.76971916  0.07465087  1
  Te  Te97  1  0.76006585  0.73903606  0.43388675  1
  Te  Te98  1  0.73705177  0.74281617  0.74573641  1
  Te  Te99  1  0.07145124  0.22093895  0.20567561  1
  Te  Te100  1  0.05548223  0.23680093  0.57503898  1
  Te  Te101  1  0.09429891  0.22744030  0.91122774  1
  Te  Te102  1  0.07845298  0.57554565  0.25993622  1
  Te  Te103  1  0.09936094  0.61287796  0.58092550  1
  Te  Te104  1  0.08352360  0.59656021  0.91672858  1
  Te  Te105  1  0.08112405  0.90850884  0.25342241  1
  Te  Te106  1  0.06735590  0.93477486  0.59224311  1
  Te  Te107  1  0.03534707  0.97205558  0.91400351  1
  Te  Te108  1  0.39251200  0.24528109  0.25796835  1
  Te  Te109  1  0.42118034  0.25097825  0.59132170  1
  Te  Te110  1  0.39720140  0.24089951  0.90282956  1
  Te  Te111  1  0.43697709  0.56908931  0.23061811  1
  Te  Te112  1  0.38654961  0.57926856  0.56676701  1
  Te  Te113  1  0.41335398  0.57578257  0.91161666  1
  Te  Te114  1  0.40090184  0.90828259  0.25934032  1
  Te  Te115  1  0.43708301  0.90808454  0.58310405  1
  Te  Te116  1  0.41875784  0.92010852  0.90664062  1
  Te  Te117  1  0.74997600  0.20930729  0.23407715  1
  Te  Te118  1  0.76173796  0.23121363  0.60604781  1
  Te  Te119  1  0.76561545  0.25961035  0.90101181  1
  Te  Te120  1  0.77642220  0.56891956  0.28294480  1
  Te  Te121  1  0.73354456  0.57951368  0.59232500  1
  Te  Te122  1  0.75080551  0.58129067  0.93081490  1
  Te  Te123  1  0.77351042  0.92641302  0.22516602  1
  Te  Te124  1  0.76936661  0.93632936  0.55813914  1
  Te  Te125  1  0.74616987  0.95374899  0.92106658  1
  Te  Te126  1  0.20159836  0.22582486  0.11727616  1
  Te  Te127  1  0.23415405  0.23322825  0.42997284  1
  Te  Te128  1  0.25193070  0.25427161  0.72771246  1
  Te  Te129  1  0.25209441  0.58744175  0.08488113  1
  Te  Te130  1  0.17064156  0.54949814  0.46424210  1
  Te  Te131  1  0.21114706  0.55864608  0.70266840  1
  Te  Te132  1  0.25443689  0.90483611  0.07907685  1
  Te  Te133  1  0.25678188  0.93041867  0.43004334  1
  Te  Te134  1  0.23883903  0.94554436  0.77577290  1
  Te  Te135  1  0.58573011  0.24023480  0.10957395  1
  Te  Te136  1  0.58526107  0.26191749  0.40011109  1
  Te  Te137  1  0.58048608  0.26847253  0.75107079  1
  Te  Te138  1  0.64376218  0.60851324  0.12037088  1
  Te  Te139  1  0.59050958  0.57707574  0.41908687  1
  Te  Te140  1  0.57856574  0.58421499  0.75764630  1
  Te  Te141  1  0.59318380  0.93291637  0.07061967  1
  Te  Te142  1  0.60860482  0.90189036  0.38742629  1
  Te  Te143  1  0.60242278  0.92214165  0.74434253  1
  Te  Te144  1  0.91790231  0.26299525  0.06136774  1
  Te  Te145  1  0.98078886  0.23078715  0.44226152  1
  Te  Te146  1  0.96415152  0.25221836  0.70131329  1
  Te  Te147  1  0.92996715  0.57572053  0.09036369  1
  Te  Te148  1  0.91230167  0.55172646  0.41410009  1
  Te  Te149  1  0.94031915  0.60791685  0.73374279  1
  Te  Te150  1  0.95432582  0.97006824  0.06814529  1
  Te  Te151  1  0.90681438  0.92643290  0.39221263  1
  Te  Te152  1  0.91603333  0.90865495  0.74826959  1
  Te  Te153  1  0.26580447  0.07166112  0.27849575  1
  Te  Te154  1  0.24800058  0.09162770  0.59452564  1
  Te  Te155  1  0.21822773  0.10653981  0.93936170  1
  Te  Te156  1  0.22614054  0.41185008  0.26125207  1
  Te  Te157  1  0.20639058  0.39749030  0.53219684  1
  Te  Te158  1  0.24532055  0.41089287  0.91270789  1
  Te  Te159  1  0.25616383  0.71000310  0.26499400  1
  Te  Te160  1  0.23009236  0.74739907  0.58511694  1
  Te  Te161  1  0.24766420  0.75483778  0.91425823  1
  Te  Te162  1  0.58291206  0.07060729  0.24875120  1
  Te  Te163  1  0.58995298  0.06761731  0.55079409  1
  Te  Te164  1  0.59282527  0.10157367  0.93569600  1
  Te  Te165  1  0.60314353  0.41414554  0.23997953  1
  Te  Te166  1  0.57165824  0.41671285  0.57609858  1
  Te  Te167  1  0.59022551  0.40266095  0.94149867  1
  Te  Te168  1  0.59651224  0.77487988  0.27394029  1
  Te  Te169  1  0.57769168  0.74643941  0.59522588  1
  Te  Te170  1  0.58931566  0.74742551  0.93006503  1
  Te  Te171  1  0.88353333  0.12398574  0.22596821  1
  Te  Te172  1  0.93917657  0.10497849  0.62585599  1
  Te  Te173  1  0.92725675  0.11685872  0.88357211  1
  Te  Te174  1  0.93518305  0.36033737  0.28717546  1
  Te  Te175  1  0.91567786  0.41986884  0.58339864  1
  Te  Te176  1  0.94218141  0.41132172  0.89832223  1
  Te  Te177  1  0.93337272  0.74008017  0.25323074  1
  Te  Te178  1  0.92579902  0.75661009  0.57925589  1
  Te  Te179  1  0.89875240  0.77261119  0.90205238  1
