# generated using pymatgen
data_In2Te3
_symmetry_space_group_name_H-M   'P 1'
_cell_length_a   18.75585312
_cell_length_b   18.77137684
_cell_length_c   18.76409986
_cell_angle_alpha   90.00580570
_cell_angle_beta   90.02341280
_cell_angle_gamma   90.08584203
_symmetry_Int_Tables_number   1
_chemical_formula_structural   In2Te3
_chemical_formula_sum   'In72 Te108'
_cell_volume   6606.32843810
_cell_formula_units_Z   36
loop_
 _symmetry_equiv_pos_site_id
 _symmetry_equiv_pos_as_xyz
  1  'x, y, z'
loop_
 _atom_site_type_symbol
 _atom_site_label
 _atom_site_symmetry_multiplicity
 _atom_site_fract_x
 _atom_site_fract_y
 _atom_site_fract_z
 _atom_site_occupancy
  In  In0  1  0.30753465  0.14820266  0.52930424  1
  In  In1  1  0.00364600  0.84153735  0.17075256  1
  In  In2  1  0.48689511  0.84745443  0.30680900  1
  In  In3  1  0.16892442  0.48167378  -0.00349045  1
  In  In4  1  0.66979864  0.62503945  0.67007635  1
  In  In5  1  0.86660532  0.82520949  -0.00681275  1
  In  In6  1  0.84419761  0.50430070  0.34158925  1
  In  In7  1  0.17271379  0.33028564  0.14333016  1
  In  In8  1  0.82668056  0.65522470  0.51077759  1
  In  In9  1  0.34503216  0.32286111  0.33464777  1
  In  In10  1  0.18617714  0.13487218  0.32650708  1
  In  In11  1  0.48920142  0.66800036  0.16988402  1
  In  In12  1  0.84819154  0.67795618  0.16369484  1
  In  In13  1  0.33280212  0.65346584  0.65540663  1
  In  In14  1  0.18255243  0.66183251  0.81754400  1
  In  In15  1  -0.00944926  0.68805782  -0.00178459  1
  In  In16  1  0.17125840  0.17527568  -0.00493092  1
  In  In17  1  0.49286958  0.86607562  -0.02302121  1
  In  In18  1  0.51219216  0.66178562  0.81187864  1
  In  In19  1  0.48373391  0.18547187  0.67176547  1
  In  In20  1  -0.01016611  0.48805115  0.52885480  1
  In  In21  1  0.83646758  0.17376099  -0.02635586  1
  In  In22  1  0.50099586  0.46892714  -0.03018303  1
  In  In23  1  0.16689370  0.84645142  0.33914322  1
  In  In24  1  0.82840974  0.84952059  0.68141807  1
  In  In25  1  0.33154387  0.84780643  0.16062222  1
  In  In26  1  0.49184515  0.19450917  -0.02388119  1
  In  In27  1  0.51674741  0.32975931  0.50622605  1
  In  In28  1  0.00631498  0.02166065  0.66929010  1
  In  In29  1  0.49735149  0.31649681  0.16233006  1
  In  In30  1  0.48467446  0.64147616  0.49507495  1
  In  In31  1  0.85081859  -0.02283737  0.17124005  1
  In  In32  1  0.32981093  0.48742632  0.50540788  1
  In  In33  1  0.68496643  0.61749258  -0.01558578  1
  In  In34  1  0.17109217  0.83922958  0.67682282  1
  In  In35  1  0.30910112  0.85162509  0.51294333  1
  In  In36  1  0.68234138  0.82282897  0.18681510  1
  In  In37  1  0.84053213  0.49352224  -0.02797433  1
  In  In38  1  0.32306034  0.01469829  -0.01446393  1
  In  In39  1  0.14650305  0.52652090  0.31680692  1
  In  In40  1  0.34125616  0.50042293  0.15679938  1
  In  In41  1  0.02971891  0.16596784  0.51479878  1
  In  In42  1  -0.00062418  0.33444861  0.33178027  1
  In  In43  1  0.31494807  0.64533840  -0.00856073  1
  In  In44  1  0.00170289  0.48671119  0.83049236  1
  In  In45  1  0.65980269  0.82173825  0.83112724  1
  In  In46  1  0.67387008  0.84105794  0.50679466  1
  In  In47  1  -0.00191187  0.15491207  0.15499468  1
  In  In48  1  -0.00532121  0.19525671  0.80465148  1
  In  In49  1  0.68171327  0.19173774  0.50529207  1
  In  In50  1  0.82468215  0.15482114  0.32834955  1
  In  In51  1  0.16694416  0.33212308  0.53676979  1
  In  In52  1  0.14557752  0.85028391  -0.02215604  1
  In  In53  1  0.64889722  0.33000402  0.34264246  1
  In  In54  1  0.66206519  0.18502666  0.82735498  1
  In  In55  1  0.33096850  0.68195513  0.34220886  1
  In  In56  1  0.84679260  0.83430808  0.32841946  1
  In  In57  1  0.67376225  0.00241201  0.66985603  1
  In  In58  1  0.68086078  0.49527895  0.16928296  1
  In  In59  1  0.63668684  0.16096070  0.15845122  1
  In  In60  1  0.47951535  -0.00118020  0.49524253  1
  In  In61  1  0.01366742  0.65155396  0.67229280  1
  In  In62  1  0.48385177  0.82099926  0.65548035  1
  In  In63  1  0.68315601  0.00488062  0.02456129  1
  In  In64  1  0.17982158  0.33167176  0.82466248  1
  In  In65  1  0.00559895  0.83388644  0.48467008  1
  In  In66  1  0.65494499  0.50111039  0.51590816  1
  In  In67  1  0.47344295  0.03515722  0.82270303  1
  In  In68  1  0.48473775  0.00642755  0.18022893  1
  In  In69  1  0.84886916  0.01325123  0.83588193  1
  In  In70  1  0.84488131  0.33168589  0.53607213  1
  In  In71  1  0.83840707  0.34839169  0.15406393  1
  Te  Te72  1  0.10569508  0.07924523  0.09027688  1
  Te  Te73  1  0.10071947  0.06635764  0.42762871  1
  Te  Te74  1  0.10356123  0.10348023  0.75203019  1
  Te  Te75  1  0.06962949  0.41654928  0.08425660  1
  Te  Te76  1  0.08875686  0.41688677  0.42366846  1
  Te  Te77  1  0.09533197  0.41863967  0.73584103  1
  Te  Te78  1  0.09588821  0.75341626  0.08661685  1
  Te  Te79  1  0.09945350  0.74119414  0.41941676  1
  Te  Te80  1  0.07632228  0.75727006  0.76449364  1
  Te  Te81  1  0.42333441  0.09303674  0.07095028  1
  Te  Te82  1  0.39740264  0.09716628  0.42271926  1
  Te  Te83  1  0.37058046  0.11057055  0.74339489  1
  Te  Te84  1  0.40631863  0.39610086  0.06665348  1
  Te  Te85  1  0.43231865  0.42036902  0.41419034  1
  Te  Te86  1  0.37627150  0.37621987  0.78854343  1
  Te  Te87  1  0.40950212  0.75097644  0.06911504  1
  Te  Te88  1  0.42334356  0.77023351  0.43302618  1
  Te  Te89  1  0.39754151  0.74962006  0.75735092  1
  Te  Te90  1  0.77618798  0.10098759  0.10146719  1
  Te  Te91  1  0.74474706  0.08290507  0.42909414  1
  Te  Te92  1  0.76359416  0.10003441  0.74542179  1
  Te  Te93  1  0.73851181  0.41138910  0.05709721  1
  Te  Te94  1  0.75623258  0.40615125  0.42172490  1
  Te  Te95  1  0.73573018  0.41570349  0.80796905  1
  Te  Te96  1  0.74426108  0.74850340  0.06842650  1
  Te  Te97  1  0.75166671  0.74720855  0.41442329  1
  Te  Te98  1  0.75073818  0.73553125  0.74661773  1
  Te  Te99  1  0.09114613  0.24225867  0.25279225  1
  Te  Te100  1  0.09951327  0.23497522  0.62756159  1
  Te  Te101  1  0.07584689  0.26603737  0.91488052  1
  Te  Te102  1  0.04707507  0.60599955  0.24568888  1
  Te  Te103  1  0.09943305  0.57066160  0.58463978  1
  Te  Te104  1  0.08869538  0.59009141  0.91903150  1
  Te  Te105  1  0.08624910  0.93404633  0.24995457  1
  Te  Te106  1  0.08490861  0.92305028  0.58130887  1
  Te  Te107  1  0.04062477  0.92280630  0.90674669  1
  Te  Te108  1  0.41209458  0.22675672  0.24416744  1
  Te  Te109  1  0.39722743  0.26903409  0.57780422  1
  Te  Te110  1  0.39401226  0.25236904  0.87879871  1
  Te  Te111  1  0.41526494  0.57714540  0.26779032  1
  Te  Te112  1  0.43517423  0.55096832  0.60500762  1
  Te  Te113  1  0.41511248  0.57580162  0.90098034  1
  Te  Te114  1  0.36968896  0.94806244  0.27582299  1
  Te  Te115  1  0.39674152  0.93572328  0.60808169  1
  Te  Te116  1  0.38957494  0.91981583  0.88152209  1
  Te  Te117  1  0.74692258  0.26202156  0.24429736  1
  Te  Te118  1  0.73713131  0.27008418  0.61895107  1
  Te  Te119  1  0.77055661  0.27658844  0.88529900  1
  Te  Te120  1  0.75518234  0.59600834  0.25639864  1
  Te  Te121  1  0.77808969  0.54179942  0.60089724  1
  Te  Te122  1  0.75673133  0.56180339  0.86394115  1
  Te  Te123  1  0.74190748  0.93423328  0.26973855  1
  Te  Te124  1  0.77285798  0.93896544  0.57124814  1
  Te  Te125  1  0.74972924  0.91546297  0.91218531  1
  Te  Te126  1  0.27380879  0.25000383  0.07444177  1
  Te  Te127  1  0.23823533  0.25344255  0.42355295  1
  Te  Te128  1  0.28742424  0.25511803  0.74875096  1
  Te  Te129  1  0.22819513  0.58402232  0.10000056  1
  Te  Te130  1  0.24455794  0.58444832  0.42188628  1
  Te  Te131  1  0.25576923  0.55856232  0.74204738  1
  Te  Te132  1  0.23404347  0.93020261  0.07867761  1
  Te  Te133  1  0.23392391  0.94794240  0.42934730  1
  Te  Te134  1  0.24000776  0.95482317  0.73813141  1
  Te  Te135  1  0.60207898  0.26486669  0.05500063  1
  Te  Te136  1  0.56479587  0.22254226  0.40794144  1
  Te  Te137  1  0.56123339  0.27644224  0.76403251  1
  Te  Te138  1  0.56818935  0.56965585  0.08173081  1
  Te  Te139  1  0.59045169  0.58241183  0.41178656  1
  Te  Te140  1  0.57710461  0.54183228  0.75306245  1
  Te  Te141  1  0.58047551  0.90669503  0.09970118  1
  Te  Te142  1  0.57891654  0.91625088  0.41312524  1
  Te  Te143  1  0.57279025  0.91901041  0.75041843  1
  Te  Te144  1  0.92654367  0.25832911  0.06907039  1
  Te  Te145  1  0.91207679  0.24903849  0.42325578  1
  Te  Te146  1  0.89674584  0.26121853  0.71280031  1
  Te  Te147  1  0.91929827  0.57622797  0.07669335  1
  Te  Te148  1  0.93691378  0.59018633  0.42683368  1
  Te  Te149  1  0.91274969  0.57458856  0.74861956  1
  Te  Te150  1  0.94580562  0.93790900  0.05683930  1
  Te  Te151  1  0.91862058  0.93005983  0.41384588  1
  Te  Te152  1  0.93992374  0.91141780  0.76651379  1
  Te  Te153  1  0.28480734  0.07500791  0.23681227  1
  Te  Te154  1  0.23331486  0.05939461  0.62616626  1
  Te  Te155  1  0.22488864  0.07833996  0.89376822  1
  Te  Te156  1  0.24795214  0.41949397  0.25634159  1
  Te  Te157  1  0.24963412  0.42836596  0.61661737  1
  Te  Te158  1  0.27251239  0.42027359  0.90826656  1
  Te  Te159  1  0.24536562  0.74836010  0.23845550  1
  Te  Te160  1  0.23157628  0.73737642  0.57795251  1
  Te  Te161  1  0.25230159  0.76047518  0.91179029  1
  Te  Te162  1  0.58814008  0.07203795  0.26396994  1
  Te  Te163  1  0.57515861  0.08755477  0.58961426  1
  Te  Te164  1  0.58924230  0.07534282  0.91842546  1
  Te  Te165  1  0.57171736  0.42142076  0.24798855  1
  Te  Te166  1  0.59497511  0.40279174  0.60902923  1
  Te  Te167  1  0.59637048  0.39974980  0.87790901  1
  Te  Te168  1  0.58569768  0.73567046  0.26786100  1
  Te  Te169  1  0.59317461  0.73761015  0.58898124  1
  Te  Te170  1  0.57930148  0.73647813  0.92960448  1
  Te  Te171  1  0.93380869  0.06831417  0.26461868  1
  Te  Te172  1  0.91521030  0.09920156  0.58264392  1
  Te  Te173  1  0.95092421  0.09123099  0.91709239  1
  Te  Te174  1  0.93328285  0.43486456  0.23793648  1
  Te  Te175  1  0.94160089  0.39117706  0.63855311  1
  Te  Te176  1  0.91927936  0.38647125  0.90459695  1
  Te  Te177  1  0.94936894  0.72977608  0.26916338  1
  Te  Te178  1  0.91290376  0.75495098  0.59144708  1
  Te  Te179  1  0.89819521  0.72659260  0.88873928  1
