# generated using pymatgen
data_In2Te3
_symmetry_space_group_name_H-M   'P 1'
_cell_length_a   19.00113894
_cell_length_b   19.00354510
_cell_length_c   19.01072154
_cell_angle_alpha   89.80681219
_cell_angle_beta   89.76844041
_cell_angle_gamma   90.07706585
_symmetry_Int_Tables_number   1
_chemical_formula_structural   In2Te3
_chemical_formula_sum   'In72 Te108'
_cell_volume   6864.46102535
_cell_formula_units_Z   36
loop_
 _symmetry_equiv_pos_site_id
 _symmetry_equiv_pos_as_xyz
  1  'x, y, z'
loop_
 _atom_site_type_symbol
 _atom_site_label
 _atom_site_symmetry_multiplicity
 _atom_site_fract_x
 _atom_site_fract_y
 _atom_site_fract_z
 _atom_site_occupancy
  In  In0  1  0.82411455  0.87720620  0.68653804  1
  In  In1  1  0.30907978  0.15718448  0.48382112  1
  In  In2  1  0.35986794  0.02042683  0.68213247  1
  In  In3  1  -0.01073689  0.83863365  0.17957397  1
  In  In4  1  0.16234456  0.00459550  0.83582789  1
  In  In5  1  0.36218813  0.84545837  0.87825390  1
  In  In6  1  0.18306582  0.32331884  0.13704855  1
  In  In7  1  0.41596438  0.29929127  0.70117381  1
  In  In8  1  0.57929107  0.02372731  0.12754270  1
  In  In9  1  0.17076031  0.49737116  0.00086421  1
  In  In10  1  0.81509522  0.67392577  0.16733346  1
  In  In11  1  0.34183703  0.63708086  0.67947153  1
  In  In12  1  0.51481318  -0.01367269  0.47655067  1
  In  In13  1  -0.02632387  0.85082194  0.49601555  1
  In  In14  1  -0.00943450  -0.00742777  -0.00341733  1
  In  In15  1  0.34575307  0.16459739  0.84306466  1
  In  In16  1  0.15646339  0.30078722  0.50017924  1
  In  In17  1  0.49224505  0.49713319  0.32335742  1
  In  In18  1  -0.00676689  0.15943086  0.14763816  1
  In  In19  1  0.84175699  0.14478740  0.69861524  1
  In  In20  1  0.34173326  0.15639156  0.18797107  1
  In  In21  1  0.80914465  0.16306962  0.00928831  1
  In  In22  1  0.65826554  0.17860738  0.50312033  1
  In  In23  1  0.51779647  0.80507639  0.65174455  1
  In  In24  1  0.31868598  0.49426876  0.48827126  1
  In  In25  1  0.47694382  0.33863618  0.12185057  1
  In  In26  1  -0.03814775  0.48424358  0.48724605  1
  In  In27  1  0.18195807  0.83589689  0.67227327  1
  In  In28  1  0.65658909  0.66719320  0.32349732  1
  In  In29  1  0.14585117  0.81831155  0.32703317  1
  In  In30  1  0.19546025  0.31960520  0.84466818  1
  In  In31  1  0.02790331  0.47852724  0.17280434  1
  In  In32  1  0.83492946  0.01097417  0.49055558  1
  In  In33  1  0.01265879  0.00572338  0.68948222  1
  In  In34  1  0.84323571  0.19910402  0.31672798  1
  In  In35  1  0.68797477  -0.01402260  0.30716191  1
  In  In36  1  0.48804665  0.63422163  0.83812738  1
  In  In37  1  0.16377246  0.64117071  0.49464905  1
  In  In38  1  0.82096518  0.51577065  0.00470088  1
  In  In39  1  0.00897847  0.69299639  0.65795807  1
  In  In40  1  0.84536059  0.68746211  0.83405010  1
  In  In41  1  0.80778846  0.35084624  0.15977303  1
  In  In42  1  0.49426740  0.34847421  0.49316456  1
  In  In43  1  0.69685963  0.49978223  0.53041319  1
  In  In44  1  0.00382306  0.32300314  0.66963666  1
  In  In45  1  0.52205852  0.66635497  0.50298292  1
  In  In46  1  0.18465953  0.47550972  0.31364060  1
  In  In47  1  -0.00633384  0.50410226  0.85204678  1
  In  In48  1  0.32651716  0.84815972  0.12434481  1
  In  In49  1  0.65835681  0.00654333  0.67700086  1
  In  In50  1  0.33317178  0.66345452  0.00563971  1
  In  In51  1  0.53417481  0.48490658  0.67790318  1
  In  In52  1  -0.01199159  0.68682068  0.01601135  1
  In  In53  1  0.66679938  0.65773359  -0.00782934  1
  In  In54  1  0.16845148  0.15588756  -0.01577034  1
  In  In55  1  0.17715199  0.50551640  0.67750838  1
  In  In56  1  -0.04043161  0.64693598  0.34224312  1
  In  In57  1  0.32198972  -0.01605522  0.33030329  1
  In  In58  1  0.65642235  0.33972011  0.32012585  1
  In  In59  1  0.00441635  0.32256949  0.31881472  1
  In  In60  1  0.15195016  0.68782912  0.16198263  1
  In  In61  1  0.34779573  0.81789305  0.48551042  1
  In  In62  1  0.51572007  0.83420751  0.31352159  1
  In  In63  1  0.82046812  0.53352551  0.33851585  1
  In  In64  1  0.82715538  0.00033900  0.85425150  1
  In  In65  1  0.49498790  0.16007642  -0.00007818  1
  In  In66  1  0.65219715  0.85801280  0.86838457  1
  In  In67  1  0.14600238  0.02812949  0.47976459  1
  In  In68  1  0.83103755  0.31517063  0.51592606  1
  In  In69  1  0.53033211  0.36589417  0.85541398  1
  In  In70  1  0.78831565  0.33729459  0.84571538  1
  In  In71  1  0.52085203  0.65540218  0.16135574  1
  Te  Te72  1  0.09288364  0.06686411  0.08047893  1
  Te  Te73  1  0.08045006  0.14773976  0.43330128  1
  Te  Te74  1  0.08913711  0.10707210  0.76201531  1
  Te  Te75  1  0.07262512  0.39470881  0.05865115  1
  Te  Te76  1  0.07867466  0.42272026  0.41449326  1
  Te  Te77  1  0.08729976  0.41497719  0.76734001  1
  Te  Te78  1  0.08649580  0.78815937  0.07290714  1
  Te  Te79  1  0.06254952  0.73607453  0.43138577  1
  Te  Te80  1  0.10493308  0.74279251  0.75430650  1
  Te  Te81  1  0.43127468  0.06905242  0.10403644  1
  Te  Te82  1  0.41461745  0.07435793  0.40779767  1
  Te  Te83  1  0.45605455  0.09109216  0.76920520  1
  Te  Te84  1  0.39435645  0.43214793  0.04027683  1
  Te  Te85  1  0.39460835  0.40371447  0.39432967  1
  Te  Te86  1  0.42098461  0.43762399  0.76275223  1
  Te  Te87  1  0.43219362  0.75016489  0.07878035  1
  Te  Te88  1  0.43509805  0.73380296  0.39740112  1
  Te  Te89  1  0.41296326  0.74929870  0.75094507  1
  Te  Te90  1  0.72611820  0.06777334  0.09434018  1
  Te  Te91  1  0.74995373  0.10585737  0.40750161  1
  Te  Te92  1  0.72685734  0.09018655  0.78124704  1
  Te  Te93  1  0.72207776  0.41251337  0.05428937  1
  Te  Te94  1  0.75886161  0.40329201  0.41500255  1
  Te  Te95  1  0.72668371  0.43589184  0.75767669  1
  Te  Te96  1  0.75985698  0.75404943  0.05727516  1
  Te  Te97  1  0.76791615  0.74040919  0.38012933  1
  Te  Te98  1  0.74352698  0.78068907  0.77038081  1
  Te  Te99  1  0.09257643  0.24173070  0.23051347  1
  Te  Te100  1  0.08806440  0.22235791  0.60336104  1
  Te  Te101  1  0.08534601  0.25037562  0.91079840  1
  Te  Te102  1  0.07948391  0.59148100  0.26313624  1
  Te  Te103  1  0.06916031  0.56252099  0.58336629  1
  Te  Te104  1  0.07912417  0.59900345  0.93259900  1
  Te  Te105  1  0.07922784  0.92586380  0.25627710  1
  Te  Te106  1  0.08084033  0.91350456  0.58763835  1
  Te  Te107  1  0.07480020  0.91129784  0.90642283  1
  Te  Te108  1  0.43232921  0.25967331  0.23857736  1
  Te  Te109  1  0.41326468  0.24114819  0.56227129  1
  Te  Te110  1  0.42642436  0.26758217  0.91648484  1
  Te  Te111  1  0.41720590  0.59090058  0.24151085  1
  Te  Te112  1  0.42454843  0.56671786  0.57153759  1
  Te  Te113  1  0.41537782  0.55374526  0.94296031  1
  Te  Te114  1  0.41389595  0.91094987  0.23517162  1
  Te  Te115  1  0.41968982  0.91147055  0.57990431  1
  Te  Te116  1  0.45481453  0.93994655  0.94522225  1
  Te  Te117  1  0.72755836  0.24165949  0.22864392  1
  Te  Te118  1  0.74858413  0.23211937  0.61104938  1
  Te  Te119  1  0.71350037  0.23804680  0.92565776  1
  Te  Te120  1  0.72638772  0.56727234  0.22685441  1
  Te  Te121  1  0.73612112  0.55621706  0.65968200  1
  Te  Te122  1  0.75034226  0.58224753  0.88937557  1
  Te  Te123  1  0.75980759  0.94643468  0.18545648  1
  Te  Te124  1  0.73824948  0.92915060  0.57381961  1
  Te  Te125  1  0.73078761  0.94918280  0.95614162  1
  Te  Te126  1  0.27198845  0.22590296  0.06688617  1
  Te  Te127  1  0.24160267  0.25080894  0.39356305  1
  Te  Te128  1  0.27285494  0.24590676  0.73852416  1
  Te  Te129  1  0.24270344  0.58436950  0.10174228  1
  Te  Te130  1  0.25790068  0.59084786  0.38886723  1
  Te  Te131  1  0.24897107  0.58185910  0.77778252  1
  Te  Te132  1  0.26851378  0.92204813  0.01121500  1
  Te  Te133  1  0.23280025  0.90008048  0.43218843  1
  Te  Te134  1  0.27499971  0.91804965  0.76084051  1
  Te  Te135  1  0.58399608  0.24803560  0.07683762  1
  Te  Te136  1  0.56875624  0.24918696  0.40442437  1
  Te  Te137  1  0.55218607  0.26821552  0.74672739  1
  Te  Te138  1  0.57719339  0.55811219  0.06091580  1
  Te  Te139  1  0.59908122  0.55611856  0.42407540  1
  Te  Te140  1  0.59114386  0.60890700  0.73276499  1
  Te  Te141  1  0.58172531  0.91055268  0.02968207  1
  Te  Te142  1  0.61375522  0.89564619  0.40990038  1
  Te  Te143  1  0.56958175  0.90800783  0.74942346  1
  Te  Te144  1  0.90130446  0.26097437  0.08216781  1
  Te  Te145  1  0.93785057  0.24461935  0.43460538  1
  Te  Te146  1  0.90438834  0.26239636  0.76653366  1
  Te  Te147  1  0.92641122  0.57778481  0.10590846  1
  Te  Te148  1  0.87299101  0.60340970  0.46453390  1
  Te  Te149  1  0.93054431  0.59468066  0.74982183  1
  Te  Te150  1  0.90257100  0.93090267  0.10169622  1
  Te  Te151  1  0.91695639  0.93711518  0.39401469  1
  Te  Te152  1  0.93343573  0.91500154  0.78157474  1
  Te  Te153  1  0.23817528  0.07336319  0.25288544  1
  Te  Te154  1  0.24953936  0.06573795  0.59033631  1
  Te  Te155  1  0.27975059  0.05812262  0.93128978  1
  Te  Te156  1  0.26912401  0.41301348  0.21427616  1
  Te  Te157  1  0.24053485  0.40735841  0.58233200  1
  Te  Te158  1  0.27135763  0.40471727  0.94091680  1
  Te  Te159  1  0.25599325  0.76667115  0.23775899  1
  Te  Te160  1  0.25738468  0.72783738  0.57826482  1
  Te  Te161  1  0.25312403  0.76325228  0.93097447  1
  Te  Te162  1  0.57251420  0.06485534  0.26790803  1
  Te  Te163  1  0.56959782  0.08250836  0.57996574  1
  Te  Te164  1  0.54238185  0.06005673  0.90015064  1
  Te  Te165  1  0.57152129  0.41666219  0.22467092  1
  Te  Te166  1  0.60598957  0.39088860  0.58512540  1
  Te  Te167  1  0.60313863  0.44538697  0.95552264  1
  Te  Te168  1  0.60937429  0.76608456  0.21726369  1
  Te  Te169  1  0.62328336  0.74659365  0.56961627  1
  Te  Te170  1  0.56569221  0.73828615  0.91434347  1
  Te  Te171  1  0.91640695  0.09199281  0.25266592  1
  Te  Te172  1  0.92381049  0.08002900  0.59018964  1
  Te  Te173  1  0.91699734  0.10096598  0.92051734  1
  Te  Te174  1  0.90694185  0.42380594  0.25950522  1
  Te  Te175  1  0.90006462  0.41503340  0.60623556  1
  Te  Te176  1  0.90077799  0.41353754  0.92654972  1
  Te  Te177  1  0.88022866  0.76263828  0.27426236  1
  Te  Te178  1  0.89461836  0.77208533  0.59835779  1
  Te  Te179  1  0.88778798  0.77140198  0.94856584  1
