# generated using pymatgen
data_In2Te3
_symmetry_space_group_name_H-M   'P 1'
_cell_length_a   18.76602389
_cell_length_b   18.76530735
_cell_length_c   18.76376703
_cell_angle_alpha   89.99900571
_cell_angle_beta   90.02648246
_cell_angle_gamma   90.00802123
_symmetry_Int_Tables_number   1
_chemical_formula_structural   In2Te3
_chemical_formula_sum   'In72 Te108'
_cell_volume   6607.66365191
_cell_formula_units_Z   36
loop_
 _symmetry_equiv_pos_site_id
 _symmetry_equiv_pos_as_xyz
  1  'x, y, z'
loop_
 _atom_site_type_symbol
 _atom_site_label
 _atom_site_symmetry_multiplicity
 _atom_site_fract_x
 _atom_site_fract_y
 _atom_site_fract_z
 _atom_site_occupancy
  In  In0  1  0.15122636  0.16615882  0.67222404  1
  In  In1  1  0.66007659  0.83680969  0.50641543  1
  In  In2  1  0.66898593  0.81688305  0.16392991  1
  In  In3  1  0.85967341  0.82988795  0.33125875  1
  In  In4  1  0.31582937  0.66235395  0.31287629  1
  In  In5  1  0.69610867  0.50153067  0.83459918  1
  In  In6  1  0.47276619  0.66271239  0.83954404  1
  In  In7  1  0.83427866  0.16282056  0.32789470  1
  In  In8  1  0.67284124  0.16344927  0.16850793  1
  In  In9  1  0.01414163  0.81636760  0.16355161  1
  In  In10  1  0.16435551  0.35429932  0.83386255  1
  In  In11  1  -0.03087860  0.63644953  0.71323044  1
  In  In12  1  0.85075493  0.36830821  0.84980741  1
  In  In13  1  0.17530842  0.65859676  0.48932944  1
  In  In14  1  0.67495926  0.34278533  0.34238405  1
  In  In15  1  0.18857490  0.13954534  -0.03550162  1
  In  In16  1  0.67002144  0.01680396  0.33144829  1
  In  In17  1  0.31392717  0.33560107  0.66404289  1
  In  In18  1  0.49105140  0.32545864  0.19005871  1
  In  In19  1  0.17810934  0.84207911  0.67365026  1
  In  In20  1  0.69002685  0.63587824  0.30693861  1
  In  In21  1  0.14488030  0.64812702  0.86431595  1
  In  In22  1  -0.02242755  0.17577414  0.17168133  1
  In  In23  1  -0.00890834  0.83053909  0.83906378  1
  In  In24  1  -0.00343484  -0.00578292  0.00855473  1
  In  In25  1  0.47025216  0.82762996  0.02232463  1
  In  In26  1  0.50246585  -0.00528095  0.16282856  1
  In  In27  1  0.65056625  0.16513010  0.82102190  1
  In  In28  1  0.00578363  0.35539698  0.30923309  1
  In  In29  1  0.00843891  0.33120377  0.65784909  1
  In  In30  1  0.83579216  0.81954728  -0.00896874  1
  In  In31  1  0.50921262  0.33958912  0.49112678  1
  In  In32  1  0.47197250  0.82504094  0.67609588  1
  In  In33  1  0.82907475  0.16735818  0.02018352  1
  In  In34  1  0.50393479  0.30930520  0.83651315  1
  In  In35  1  0.33211828  0.50693061  0.85526223  1
  In  In36  1  0.16235302  -0.00993470  0.16854606  1
  In  In37  1  0.48266697  0.64288305  0.48675370  1
  In  In38  1  0.50507836  0.51480785  -0.00682251  1
  In  In39  1  0.67617165  0.65045733  -0.00993554  1
  In  In40  1  0.49346218  0.15632427  0.01391799  1
  In  In41  1  0.82344923  0.66438690  0.50917941  1
  In  In42  1  0.82856626  0.17546924  0.65309478  1
  In  In43  1  0.33233042  -0.00310373  0.67359851  1
  In  In44  1  0.50285918  0.49393927  0.33269507  1
  In  In45  1  0.34133465  0.17109982  0.18109836  1
  In  In46  1  0.67967881  0.83273982  0.84173365  1
  In  In47  1  0.51199733  0.15700018  0.66104904  1
  In  In48  1  0.00132652  0.48914146  0.48492777  1
  In  In49  1  0.16030533  0.81612614  0.00662257  1
  In  In50  1  0.29887868  0.50361924  0.16295426  1
  In  In51  1  0.84883204  0.37808979  0.14735600  1
  In  In52  1  0.02721801  0.63452617  0.30182911  1
  In  In53  1  0.34118449  0.84744665  0.51096837  1
  In  In54  1  0.15644777  0.00522944  0.49127629  1
  In  In55  1  0.34056170  0.00122332  0.33826726  1
  In  In56  1  0.68421667  0.66688489  0.67318792  1
  In  In57  1  0.00832001  0.16697421  0.50738965  1
  In  In58  1  0.50153361  0.49577425  0.64806201  1
  In  In59  1  0.16940603  0.80549062  0.29486066  1
  In  In60  1  0.30954184  0.19855090  0.46321510  1
  In  In61  1  0.82490716  0.34074417  0.50184996  1
  In  In62  1  0.32146933  0.34196150  -0.01060785  1
  In  In63  1  0.82683039  0.84467861  0.67724855  1
  In  In64  1  0.16098069  0.34572834  0.16918250  1
  In  In65  1  0.16043291  0.49557132  0.66388137  1
  In  In66  1  0.49804868  -0.00954103  0.84662443  1
  In  In67  1  0.67362886  0.00852427  0.65048700  1
  In  In68  1  -0.00723568  0.84750078  0.49810534  1
  In  In69  1  0.70589919  0.35248560  0.01526975  1
  In  In70  1  0.51345709  0.84085852  0.31311745  1
  In  In71  1  0.01888257  0.16462947  0.84631822  1
  Te  Te72  1  0.08618060  0.09702426  0.08013214  1
  Te  Te73  1  0.08291199  0.09496381  0.40096945  1
  Te  Te74  1  0.08059527  0.06665525  0.75438587  1
  Te  Te75  1  0.06579334  0.45618697  0.12531715  1
  Te  Te76  1  0.10479245  0.42277676  0.40012952  1
  Te  Te77  1  0.05822670  0.43445073  0.76052297  1
  Te  Te78  1  0.08728848  0.70949581  0.08652603  1
  Te  Te79  1  0.07600016  0.74731799  0.40961455  1
  Te  Te80  1  0.08566438  0.74273378  0.74501087  1
  Te  Te81  1  0.39221763  0.06520768  0.08116123  1
  Te  Te82  1  0.40836575  0.09333262  0.43019647  1
  Te  Te83  1  0.41849713  0.09062888  0.76125606  1
  Te  Te84  1  0.41918329  0.41281176  0.08268306  1
  Te  Te85  1  0.41029355  0.42954237  0.42740924  1
  Te  Te86  1  0.41337948  0.41341673  0.76408938  1
  Te  Te87  1  0.40556858  0.73959188  0.11971467  1
  Te  Te88  1  0.41234860  0.75564044  0.40593730  1
  Te  Te89  1  0.38067443  0.75180252  0.76493110  1
  Te  Te90  1  0.74869288  0.06503489  0.08979417  1
  Te  Te91  1  0.74756545  0.09837824  0.42892395  1
  Te  Te92  1  0.75812556  0.07998846  0.75504575  1
  Te  Te93  1  0.75011047  0.47702137  0.08476580  1
  Te  Te94  1  0.76902165  0.43783542  0.40434206  1
  Te  Te95  1  0.75607242  0.40218463  0.74206522  1
  Te  Te96  1  0.76586008  0.72505941  0.09119067  1
  Te  Te97  1  0.73878857  0.75290004  0.40478341  1
  Te  Te98  1  0.77630342  0.73672844  0.77313300  1
  Te  Te99  1  0.08909500  0.23764450  0.25381279  1
  Te  Te100  1  0.10979648  0.26839421  0.56495542  1
  Te  Te101  1  0.09485524  0.26249830  0.93497713  1
  Te  Te102  1  0.13410761  0.55875144  0.22773356  1
  Te  Te103  1  0.06985829  0.59248542  0.58369196  1
  Te  Te104  1  0.02507722  0.57511177  0.92018439  1
  Te  Te105  1  0.06865306  0.91726396  0.26558377  1
  Te  Te106  1  0.07748325  0.92850310  0.59772016  1
  Te  Te107  1  0.08960216  0.91981055  0.91581650  1
  Te  Te108  1  0.41429719  0.24510559  0.28781497  1
  Te  Te109  1  0.40926525  0.24672921  0.58405390  1
  Te  Te110  1  0.40068272  0.23186654  0.91713072  1
  Te  Te111  1  0.41526320  0.57605097  0.23498438  1
  Te  Te112  1  0.39888244  0.58613247  0.59407283  1
  Te  Te113  1  0.38884943  0.60714027  0.95730458  1
  Te  Te114  1  0.39986955  0.90587748  0.23502930  1
  Te  Te115  1  0.44017981  0.94025112  0.57946340  1
  Te  Te116  1  0.39847580  0.91048977  0.92142085  1
  Te  Te117  1  0.76826644  0.26799332  0.22841802  1
  Te  Te118  1  0.73217147  0.24193553  0.56303498  1
  Te  Te119  1  0.75078009  0.24950380  0.90925578  1
  Te  Te120  1  0.78061094  0.54766770  0.22989509  1
  Te  Te121  1  0.74360929  0.56534211  0.58428643  1
  Te  Te122  1  0.79013138  0.59159164  0.90997586  1
  Te  Te123  1  0.74879165  0.90972856  0.25545770  1
  Te  Te124  1  0.76994636  0.92695742  0.56155463  1
  Te  Te125  1  0.76298022  0.92617513  0.91843513  1
  Te  Te126  1  0.24668220  0.24463554  0.08153439  1
  Te  Te127  1  0.23314991  0.29734979  0.38474632  1
  Te  Te128  1  0.24593787  0.24411160  0.76543456  1
  Te  Te129  1  0.20558525  0.59597220  0.09184391  1
  Te  Te130  1  0.24616790  0.56479670  0.40050689  1
  Te  Te131  1  0.24217769  0.58326765  0.75880042  1
  Te  Te132  1  0.24842609  0.91529946  0.07614684  1
  Te  Te133  1  0.23718126  0.89844295  0.41048579  1
  Te  Te134  1  0.24487137  0.92941050  0.77679637  1
  Te  Te135  1  0.58668857  0.26090397  0.07612503  1
  Te  Te136  1  0.58426669  0.24473576  0.40416729  1
  Te  Te137  1  0.59694790  0.26975846  0.72254053  1
  Te  Te138  1  0.58584104  0.59017771  0.09050137  1
  Te  Te139  1  0.60196439  0.57590553  0.41887967  1
  Te  Te140  1  0.57980387  0.58367640  0.76186282  1
  Te  Te141  1  0.59059797  0.91006125  0.07130701  1
  Te  Te142  1  0.57496771  0.92980148  0.41909311  1
  Te  Te143  1  0.59016170  0.91022292  0.74157744  1
  Te  Te144  1  0.92951297  0.27408068  0.06614906  1
  Te  Te145  1  0.92544557  0.26448732  0.41018039  1
  Te  Te146  1  0.92414447  0.25267266  0.75907947  1
  Te  Te147  1  0.95681226  0.55075369  0.06129321  1
  Te  Te148  1  0.92151568  0.59792935  0.41230033  1
  Te  Te149  1  0.86309986  0.55036431  0.77448752  1
  Te  Te150  1  0.90983229  0.90630065  0.09650862  1
  Te  Te151  1  0.91477212  0.93954757  0.41354270  1
  Te  Te152  1  0.91466225  0.92935831  0.75967066  1
  Te  Te153  1  0.24032918  0.08606766  0.26066506  1
  Te  Te154  1  0.25491220  0.08925897  0.57678509  1
  Te  Te155  1  0.26570209  0.04429145  0.88631751  1
  Te  Te156  1  0.27593094  0.38785129  0.25947956  1
  Te  Te157  1  0.25416598  0.43088546  0.56961672  1
  Te  Te158  1  0.22050318  0.44673891  0.94402956  1
  Te  Te159  1  0.26773556  0.74964122  0.19583331  1
  Te  Te160  1  0.25840330  0.74415516  0.58738966  1
  Te  Te161  1  0.24994795  0.73779648  0.91580615  1
  Te  Te162  1  0.56404094  0.09922297  0.25472473  1
  Te  Te163  1  0.59741234  0.09478901  0.55777376  1
  Te  Te164  1  0.59398636  0.07524221  0.93147641  1
  Te  Te165  1  0.59800787  0.42307721  0.23507050  1
  Te  Te166  1  0.60328079  0.42609493  0.56930507  1
  Te  Te167  1  0.58873338  0.41066706  0.91474899  1
  Te  Te168  1  0.57792299  0.72253823  0.24311515  1
  Te  Te169  1  0.57040124  0.73995332  0.58524381  1
  Te  Te170  1  0.57563512  0.74924753  0.91819610  1
  Te  Te171  1  0.90250483  0.06790536  0.23715426  1
  Te  Te172  1  0.92744517  0.08214815  0.59593793  1
  Te  Te173  1  0.91080953  0.08389392  0.91995684  1
  Te  Te174  1  0.91279079  0.46403295  0.25742515  1
  Te  Te175  1  0.91156979  0.42948707  0.59319789  1
  Te  Te176  1  0.93035438  0.43780950  0.95384363  1
  Te  Te177  1  0.91656779  0.72221794  0.23822773  1
  Te  Te178  1  0.91995933  0.74770775  0.59435893  1
  Te  Te179  1  0.94607753  0.73063157  0.94088909  1
