# generated using pymatgen
data_In2Te3
_symmetry_space_group_name_H-M   'P 1'
_cell_length_a   18.96537296
_cell_length_b   18.99155042
_cell_length_c   18.97103958
_cell_angle_alpha   90.43212798
_cell_angle_beta   89.65360039
_cell_angle_gamma   90.06539384
_symmetry_Int_Tables_number   1
_chemical_formula_structural   In2Te3
_chemical_formula_sum   'In72 Te108'
_cell_volume   6832.70056324
_cell_formula_units_Z   36
loop_
 _symmetry_equiv_pos_site_id
 _symmetry_equiv_pos_as_xyz
  1  'x, y, z'
loop_
 _atom_site_type_symbol
 _atom_site_label
 _atom_site_symmetry_multiplicity
 _atom_site_fract_x
 _atom_site_fract_y
 _atom_site_fract_z
 _atom_site_occupancy
  In  In0  1  0.14978510  0.34730259  0.18550539  1
  In  In1  1  0.81180115  0.47199702  0.35032199  1
  In  In2  1  -0.00887528  0.32224461  0.65798270  1
  In  In3  1  0.15086702  0.49932951  0.35360789  1
  In  In4  1  0.80687810  0.31900269  0.19887016  1
  In  In5  1  0.15626664  0.80160823  0.00194296  1
  In  In6  1  0.51263831  -0.01496178  0.80287418  1
  In  In7  1  0.30340789  0.00659044  0.66232113  1
  In  In8  1  -0.00668928  0.16078939  0.48750434  1
  In  In9  1  0.30782358  0.64859880  0.68511776  1
  In  In10  1  0.69868578  0.83791944  0.49278982  1
  In  In11  1  0.36374473  0.35793455  0.66404866  1
  In  In12  1  0.33632021  0.16318281  0.18763578  1
  In  In13  1  0.15790570  0.83888596  0.33766192  1
  In  In14  1  0.31055807  0.09853989  0.38411369  1
  In  In15  1  -0.00401930  0.33311513  0.36757296  1
  In  In16  1  0.32819917  0.49656990  0.49329352  1
  In  In17  1  0.67124967  0.04345453  0.32736656  1
  In  In18  1  0.00223563  -0.00763784  0.03143587  1
  In  In19  1  0.32662813  0.20786907  0.83432672  1
  In  In20  1  0.81869471  0.14808977  0.00239754  1
  In  In21  1  0.65174869  0.69218606  -0.02639202  1
  In  In22  1  -0.00433632  0.50149208  0.15528026  1
  In  In23  1  0.80105799  0.47684208  0.64950203  1
  In  In24  1  0.52075879  0.84410152  0.67702606  1
  In  In25  1  0.47675218  0.00678659  0.47938537  1
  In  In26  1  0.52035615  0.34713229  0.13663439  1
  In  In27  1  0.34370804  0.65335070  -0.02792005  1
  In  In28  1  0.13937978  0.15546170  0.01365162  1
  In  In29  1  -0.00480035  0.18246318  0.20905716  1
  In  In30  1  0.49972875  0.67615828  0.16855064  1
  In  In31  1  0.61906945  0.33990934  0.62900050  1
  In  In32  1  0.85005146  0.00464130  0.19158182  1
  In  In33  1  0.67351933  0.17723419  0.85021076  1
  In  In34  1  0.01187930  -0.00992965  0.65379576  1
  In  In35  1  0.83255575  0.64744488  0.51334280  1
  In  In36  1  0.69437671  0.51264826  0.15708291  1
  In  In37  1  0.82971766  -0.00882945  0.84858789  1
  In  In38  1  0.33016196  0.83265686  0.16330144  1
  In  In39  1  0.51249674  0.65345483  0.49716855  1
  In  In40  1  0.31964798  0.32909099  0.33710237  1
  In  In41  1  0.87681909  -0.01987698  0.48209753  1
  In  In42  1  0.46615640  0.16347334  0.65102347  1
  In  In43  1  0.49403850  0.34132338  0.82838611  1
  In  In44  1  -0.01274770  0.65984686  0.67689801  1
  In  In45  1  -0.00406590  0.49352612  0.52452767  1
  In  In46  1  0.68521117  -0.03258599  0.00200249  1
  In  In47  1  0.15754677  0.00341220  0.49983763  1
  In  In48  1  0.52132177  0.83284501  0.31340911  1
  In  In49  1  0.01566631  0.83126741  0.18065815  1
  In  In50  1  0.00506628  0.67943741  0.33154572  1
  In  In51  1  0.31259982  -0.03036901  -0.00093946  1
  In  In52  1  0.52017642  -0.00456332  0.17380980  1
  In  In53  1  0.85894959  0.50657081  -0.00133837  1
  In  In54  1  0.51802333  0.15289222  0.02142908  1
  In  In55  1  0.16278432  0.35218552  0.80029215  1
  In  In56  1  -0.01617318  0.32954372  -0.00800368  1
  In  In57  1  0.34003733  0.84691270  0.80383534  1
  In  In58  1  0.84304237  0.65685126  0.84137853  1
  In  In59  1  0.68564752  0.82711798  0.15504177  1
  In  In60  1  0.32899570  0.68269723  0.34558098  1
  In  In61  1  0.64284836  0.50604657  0.81509967  1
  In  In62  1  0.65341062  0.17698666  0.49179912  1
  In  In63  1  0.49309191  0.49841183  -0.02110589  1
  In  In64  1  0.66335113  -0.00598427  0.68567655  1
  In  In65  1  0.18123293  0.54008584  -0.07121054  1
  In  In66  1  0.31625748  0.35011035  0.00986928  1
  In  In67  1  -0.00083297  0.16951241  0.80983842  1
  In  In68  1  0.51089268  0.50559103  0.33671593  1
  In  In69  1  0.31290205  0.81683719  0.52431406  1
  In  In70  1  0.84848221  0.81205292  0.69592692  1
  In  In71  1  0.15501375  0.00847845  0.83339930  1
  Te  Te72  1  0.07882642  0.07941455  0.12870545  1
  Te  Te73  1  0.07021112  0.06717834  0.39934478  1
  Te  Te74  1  0.09952028  0.09559283  0.72364896  1
  Te  Te75  1  0.08697927  0.41553289  0.06685722  1
  Te  Te76  1  0.10080718  0.39992794  0.45354368  1
  Te  Te77  1  0.06770705  0.43132365  0.72466018  1
  Te  Te78  1  0.06507195  0.72426853  0.08861245  1
  Te  Te79  1  0.09187039  0.74544029  0.42903336  1
  Te  Te80  1  0.05532363  0.74999371  0.77583084  1
  Te  Te81  1  0.40672907  0.06553285  0.08163266  1
  Te  Te82  1  0.45506829  0.12760875  0.39799543  1
  Te  Te83  1  0.39282396  0.08027066  0.76457128  1
  Te  Te84  1  0.40675997  0.44039644  0.08907617  1
  Te  Te85  1  0.42512546  0.40949518  0.41571316  1
  Te  Te86  1  0.44676640  0.45061805  0.74479185  1
  Te  Te87  1  0.41621532  0.75200157  0.06953625  1
  Te  Te88  1  0.42953847  0.76753791  0.42263596  1
  Te  Te89  1  0.42360069  0.74314483  0.73326395  1
  Te  Te90  1  0.73963439  0.06819990  0.10147755  1
  Te  Te91  1  0.75345162  0.06540662  0.45086903  1
  Te  Te92  1  0.75834381  0.08776126  0.75847652  1
  Te  Te93  1  0.77354346  0.40657082  0.08231001  1
  Te  Te94  1  0.70953736  0.40889669  0.43616473  1
  Te  Te95  1  0.71413776  0.39431965  0.74181317  1
  Te  Te96  1  0.75537261  0.73090308  0.06853106  1
  Te  Te97  1  0.77389966  0.73965825  0.41518619  1
  Te  Te98  1  0.74629106  0.71116688  0.74009703  1
  Te  Te99  1  0.10283498  0.25149337  0.29006808  1
  Te  Te100  1  0.08006088  0.24230741  0.57239320  1
  Te  Te101  1  0.09819185  0.25355613  0.90512284  1
  Te  Te102  1  0.08760338  0.58261577  0.24531556  1
  Te  Te103  1  0.08622898  0.57501661  0.60587197  1
  Te  Te104  1  0.07273375  0.62869938  0.87466055  1
  Te  Te105  1  0.04831438  0.93476428  0.29147598  1
  Te  Te106  1  0.07795543  0.89700357  0.56179506  1
  Te  Te107  1  0.08331667  0.91553462  0.92857218  1
  Te  Te108  1  0.42016850  0.27794851  0.23322765  1
  Te  Te109  1  0.45752015  0.28535780  0.57175973  1
  Te  Te110  1  0.42089734  0.25048888  0.94716918  1
  Te  Te111  1  0.41090083  0.59117202  0.25628782  1
  Te  Te112  1  0.41130122  0.58616417  0.58423973  1
  Te  Te113  1  0.43736592  0.58658580  0.87801409  1
  Te  Te114  1  0.41425837  0.92100246  0.25450988  1
  Te  Te115  1  0.41180328  0.92123715  0.59420930  1
  Te  Te116  1  0.42264992  0.91631618  0.91011843  1
  Te  Te117  1  0.72275140  0.23093701  0.27886146  1
  Te  Te118  1  0.72348757  0.24159117  0.60205626  1
  Te  Te119  1  0.77909540  0.25681349  0.91366793  1
  Te  Te120  1  0.78872284  0.57429011  0.24985853  1
  Te  Te121  1  0.71382034  0.57435890  0.57467078  1
  Te  Te122  1  0.73896621  0.56716068  0.91811159  1
  Te  Te123  1  0.73967705  0.92548189  0.26031703  1
  Te  Te124  1  0.76650189  0.91166509  0.60774105  1
  Te  Te125  1  0.78080053  0.88107057  0.93067412  1
  Te  Te126  1  0.23697590  0.24843170  0.09333416  1
  Te  Te127  1  0.26029238  0.23112067  0.42688596  1
  Te  Te128  1  0.25183584  0.25796121  0.71798432  1
  Te  Te129  1  0.24642711  0.58039398  0.05350200  1
  Te  Te130  1  0.23617896  0.59973707  0.43108947  1
  Te  Te131  1  0.21560764  0.59138483  0.78702776  1
  Te  Te132  1  0.21785091  0.91069290  0.09865915  1
  Te  Te133  1  0.26255034  0.91252911  0.42135008  1
  Te  Te134  1  0.21752777  0.90721981  0.73763759  1
  Te  Te135  1  0.61180728  0.24480892  0.08396197  1
  Te  Te136  1  0.62653084  0.28161578  0.39076376  1
  Te  Te137  1  0.55820027  0.22082971  0.76292367  1
  Te  Te138  1  0.58021005  0.58468010  0.07652534  1
  Te  Te139  1  0.60453285  0.60314179  0.39459506  1
  Te  Te140  1  0.62759786  0.61198514  0.71616538  1
  Te  Te141  1  0.57457812  0.89330764  0.07661805  1
  Te  Te142  1  0.58796955  0.92419691  0.41623386  1
  Te  Te143  1  0.62744866  0.87893022  0.78843500  1
  Te  Te144  1  0.91571635  0.23463005  0.09100819  1
  Te  Te145  1  0.89228840  0.23506014  0.40681500  1
  Te  Te146  1  0.90081524  0.26210179  0.75891134  1
  Te  Te147  1  0.93675807  0.60863315  0.07301283  1
  Te  Te148  1  0.92480480  0.56471571  0.41176049  1
  Te  Te149  1  0.89477368  0.55602073  0.73920256  1
  Te  Te150  1  0.90477964  0.89937078  0.09510899  1
  Te  Te151  1  0.92351874  0.89070299  0.37467801  1
  Te  Te152  1  0.93407175  0.91872682  0.76328328  1
  Te  Te153  1  0.24890919  0.06956359  0.25536186  1
  Te  Te154  1  0.26505345  0.09647300  0.55252665  1
  Te  Te155  1  0.24830378  0.09089188  0.92379974  1
  Te  Te156  1  0.24949581  0.43621876  0.25492022  1
  Te  Te157  1  0.25322586  0.42333340  0.59513840  1
  Te  Te158  1  0.27062132  0.41916784  0.88608721  1
  Te  Te159  1  0.23759583  0.74380078  0.24299730  1
  Te  Te160  1  0.22291087  0.74093559  0.60932194  1
  Te  Te161  1  0.26041385  0.75926645  0.90133469  1
  Te  Te162  1  0.55732089  0.10904894  0.26132347  1
  Te  Te163  1  0.57207917  0.06953864  0.59063876  1
  Te  Te164  1  0.59178045  0.06258788  0.92006004  1
  Te  Te165  1  0.59935958  0.42664432  0.23887061  1
  Te  Te166  1  0.60594859  0.45810325  0.54320574  1
  Te  Te167  1  0.59397282  0.40090343  0.92316879  1
  Te  Te168  1  0.61412877  0.73115889  0.25135845  1
  Te  Te169  1  0.59354964  0.76146409  0.57275956  1
  Te  Te170  1  0.57190636  0.77114581  0.88525160  1
  Te  Te171  1  0.89014814  0.11257880  0.28678767  1
  Te  Te172  1  0.90937795  0.07981905  0.59119718  1
  Te  Te173  1  0.93922516  0.08338702  0.92284999  1
  Te  Te174  1  0.92791926  0.40037689  0.24845182  1
  Te  Te175  1  0.88988729  0.39292046  0.56088878  1
  Te  Te176  1  0.94062468  0.43300661  0.90041495  1
  Te  Te177  1  0.90743914  0.76666734  0.26168270  1
  Te  Te178  1  0.92226327  0.75374806  0.57574766  1
  Te  Te179  1  0.95612237  0.73683355  0.89479542  1
