# generated using pymatgen
data_In2Te3
_symmetry_space_group_name_H-M   'P 1'
_cell_length_a   18.85160615
_cell_length_b   18.84818161
_cell_length_c   18.85920801
_cell_angle_alpha   90.09816618
_cell_angle_beta   90.10159609
_cell_angle_gamma   90.00923454
_symmetry_Int_Tables_number   1
_chemical_formula_structural   In2Te3
_chemical_formula_sum   'In72 Te108'
_cell_volume   6701.00497273
_cell_formula_units_Z   36
loop_
 _symmetry_equiv_pos_site_id
 _symmetry_equiv_pos_as_xyz
  1  'x, y, z'
loop_
 _atom_site_type_symbol
 _atom_site_label
 _atom_site_symmetry_multiplicity
 _atom_site_fract_x
 _atom_site_fract_y
 _atom_site_fract_z
 _atom_site_occupancy
  In  In0  1  0.67928204  0.16027235  0.84927372  1
  In  In1  1  0.33768719  0.14791832  0.16467125  1
  In  In2  1  0.66818106  0.30520168  0.68660888  1
  In  In3  1  -0.02039909  0.49126712  0.13596058  1
  In  In4  1  0.34052834  0.32718053  0.69291385  1
  In  In5  1  -0.01935505  0.30380086  0.32182650  1
  In  In6  1  -0.01278907  0.65408554  0.65963652  1
  In  In7  1  -0.02825014  0.30234116  0.69340756  1
  In  In8  1  0.17223912  0.47709297  0.33006697  1
  In  In9  1  0.37030721  0.49042990  0.13199053  1
  In  In10  1  0.14982723  0.00121685  0.46967450  1
  In  In11  1  0.36886892  0.27271419  -0.02569762  1
  In  In12  1  0.17297332  0.17370722  0.66393301  1
  In  In13  1  0.18872554  0.83350436  0.34057497  1
  In  In14  1  0.33154972  0.51513920  0.81575328  1
  In  In15  1  0.32666779  0.68598976  0.32669099  1
  In  In16  1  0.83709205  0.16656231  -0.00321805  1
  In  In17  1  -0.00524826  0.80451649  0.49748387  1
  In  In18  1  0.49760970  0.67465789  0.82714903  1
  In  In19  1  0.33556699  0.16397741  0.48382873  1
  In  In20  1  0.17349683  0.33886684  0.50723268  1
  In  In21  1  0.66923423  0.67025191  0.00591137  1
  In  In22  1  -0.01132353  0.32666274  -0.00373232  1
  In  In23  1  0.33400467  0.65038444  0.68579714  1
  In  In24  1  0.16421939  0.34093250  0.84949112  1
  In  In25  1  0.15167576  0.68977396  0.18490506  1
  In  In26  1  0.83596263  0.67311290  0.49907959  1
  In  In27  1  0.52399199  0.86479914  0.31489180  1
  In  In28  1  0.35758014  0.00183585  0.67438756  1
  In  In29  1  0.50023932  0.50884812  0.66822954  1
  In  In30  1  0.81222386  0.30891771  0.16111921  1
  In  In31  1  0.66914765  0.69202557  0.67748889  1
  In  In32  1  0.14948137  0.65823490  0.52766967  1
  In  In33  1  -0.01427137  0.84126256  0.83331933  1
  In  In34  1  0.65046895  0.50502822  0.48132365  1
  In  In35  1  0.33831882  0.68163757  0.00756956  1
  In  In36  1  0.67062910  -0.01597650  0.01693187  1
  In  In37  1  0.35084660  0.31182556  0.32966701  1
  In  In38  1  0.17720347  0.51980028  -0.01642241  1
  In  In39  1  -0.02498099  0.01956193  0.31471115  1
  In  In40  1  0.79520409  0.64258887  0.17842978  1
  In  In41  1  0.80711119  0.86545208  0.30639176  1
  In  In42  1  0.81417136  0.47370780  0.67525560  1
  In  In43  1  0.66439380  0.16140281  0.50610547  1
  In  In44  1  0.83045909  -0.00278173  0.51417965  1
  In  In45  1  0.17016463  0.01245045  0.84871966  1
  In  In46  1  0.66981649  0.01600491  0.68180507  1
  In  In47  1  0.15350761  0.31524272  0.18815872  1
  In  In48  1  0.67191807  0.32938462  0.30883104  1
  In  In49  1  0.80810827  0.33670778  0.48782875  1
  In  In50  1  0.67573281  0.84130162  0.85261246  1
  In  In51  1  0.52303919  0.15389165  0.32633126  1
  In  In52  1  -0.00122125  0.85558968  0.14925547  1
  In  In53  1  0.17959756  0.00194997  0.15492516  1
  In  In54  1  0.15552814  0.15870115  0.01299161  1
  In  In55  1  0.33887052  0.49843813  0.51223715  1
  In  In56  1  0.50759781  0.00206823  0.15438680  1
  In  In57  1  0.36203736  0.86250785  0.50446448  1
  In  In58  1  0.66614995  0.83117431  0.49482783  1
  In  In59  1  0.54225638  0.47535242  -0.02233296  1
  In  In60  1  0.16553236  0.82096440  0.66312936  1
  In  In61  1  0.83221071  0.84906811  0.00634983  1
  In  In62  1  0.81204685  0.49981886  -0.00395212  1
  In  In63  1  0.35417731  0.83812152  0.84813802  1
  In  In64  1  -0.00569298  0.49099876  0.84131571  1
  In  In65  1  -0.02132967  0.00862203  0.67188512  1
  In  In66  1  0.57031601  0.52225933  0.30112098  1
  In  In67  1  0.47287949  0.32966461  0.51462096  1
  In  In68  1  0.50844647  0.68377843  0.17155552  1
  In  In69  1  0.17456451  0.84131800  -0.01343998  1
  In  In70  1  -0.03668302  0.65242315  0.32161570  1
  In  In71  1  0.51954060  0.00816730  0.85538208  1
  Te  Te72  1  0.06500171  0.06791441  0.08729968  1
  Te  Te73  1  0.05397039  0.09696204  0.41426441  1
  Te  Te74  1  0.08094137  0.08992994  0.75201613  1
  Te  Te75  1  0.09661985  0.41265505  0.07563744  1
  Te  Te76  1  0.07152570  0.39813841  0.40879589  1
  Te  Te77  1  0.07506142  0.40504529  0.74471156  1
  Te  Te78  1  0.07755679  0.75189220  0.06905484  1
  Te  Te79  1  0.08832083  0.73226824  0.39940159  1
  Te  Te80  1  0.07405326  0.74172554  0.75122352  1
  Te  Te81  1  0.44186346  0.10772958  0.06839988  1
  Te  Te82  1  0.43064454  0.07814248  0.41217626  1
  Te  Te83  1  0.40932001  0.08663676  0.78486161  1
  Te  Te84  1  0.44435182  0.38119619  0.05148919  1
  Te  Te85  1  0.42130108  0.42557071  0.40757496  1
  Te  Te86  1  0.43878349  0.41426568  0.77001327  1
  Te  Te87  1  0.43019110  0.77060171  0.07988905  1
  Te  Te88  1  0.42678359  0.77106873  0.40122950  1
  Te  Te89  1  0.42212343  0.76625175  0.73155474  1
  Te  Te90  1  0.75976159  0.08081075  0.09514636  1
  Te  Te91  1  0.72746981  0.05495432  0.42138972  1
  Te  Te92  1  0.77478128  0.10290000  0.74753461  1
  Te  Te93  1  0.73818981  0.43397412  0.10852634  1
  Te  Te94  1  0.75499610  0.43872323  0.38919709  1
  Te  Te95  1  0.72640336  0.40874169  0.77773592  1
  Te  Te96  1  0.74442387  0.76240675  0.10126548  1
  Te  Te97  1  0.75577561  0.75262657  0.39762109  1
  Te  Te98  1  0.76111577  0.74113478  0.78272221  1
  Te  Te99  1  0.06954340  0.21098488  0.24705444  1
  Te  Te100  1  0.07284064  0.25295320  0.58300204  1
  Te  Te101  1  0.07159867  0.23503850  0.90743360  1
  Te  Te102  1  0.07850899  0.56788779  0.24597828  1
  Te  Te103  1  0.05676134  0.55519372  0.57274170  1
  Te  Te104  1  0.06206141  0.58954023  0.92759490  1
  Te  Te105  1  0.08324548  0.91457654  0.26453059  1
  Te  Te106  1  0.07812616  0.91108928  0.57638168  1
  Te  Te107  1  0.06742616  0.93199798  0.92649567  1
  Te  Te108  1  0.44139310  0.24334962  0.23142478  1
  Te  Te109  1  0.41107108  0.22501526  0.60383129  1
  Te  Te110  1  0.45614028  0.22714594  0.86610080  1
  Te  Te111  1  0.41117092  0.58521609  0.24845186  1
  Te  Te112  1  0.42904362  0.60393640  0.57360145  1
  Te  Te113  1  0.42371757  0.58172552  0.92634477  1
  Te  Te114  1  0.41501580  0.94261139  0.25338801  1
  Te  Te115  1  0.45743129  0.94631064  0.58105055  1
  Te  Te116  1  0.42016174  0.93266290  0.93761338  1
  Te  Te117  1  0.77288791  0.22082124  0.28265121  1
  Te  Te118  1  0.76498631  0.23519430  0.59385769  1
  Te  Te119  1  0.72754391  0.27172929  0.95152957  1
  Te  Te120  1  0.71880689  0.56246499  0.27354870  1
  Te  Te121  1  0.74354210  0.57910903  0.58249068  1
  Te  Te122  1  0.73844474  0.58876968  0.90410073  1
  Te  Te123  1  0.73826133  0.96791555  0.22133617  1
  Te  Te124  1  0.74533136  0.90819667  0.60228751  1
  Te  Te125  1  0.76832675  0.94900813  0.90570221  1
  Te  Te126  1  0.25380708  0.26152900  0.08404757  1
  Te  Te127  1  0.23510335  0.24527120  0.40286962  1
  Te  Te128  1  0.25207210  0.23764342  0.77737698  1
  Te  Te129  1  0.24661567  0.59174390  0.10081121  1
  Te  Te130  1  0.24709911  0.57897159  0.41766319  1
  Te  Te131  1  0.21978055  0.58153824  0.74597967  1
  Te  Te132  1  0.26679632  0.93152623  0.05814798  1
  Te  Te133  1  0.27383418  0.94067463  0.40516052  1
  Te  Te134  1  0.24777206  0.91409548  0.75118960  1
  Te  Te135  1  0.67352441  0.29030540  0.09637114  1
  Te  Te136  1  0.58191654  0.26950395  0.42485682  1
  Te  Te137  1  0.57044822  0.21614996  0.75707881  1
  Te  Te138  1  0.58076668  0.57499360  0.08524072  1
  Te  Te139  1  0.57385159  0.61235594  0.41690317  1
  Te  Te140  1  0.59622541  0.58070467  0.76066815  1
  Te  Te141  1  0.57888703  0.89047812  0.08432605  1
  Te  Te142  1  0.60797997  0.94276816  0.41345037  1
  Te  Te143  1  0.58264366  0.91239535  0.75543924  1
  Te  Te144  1  0.93222821  0.23263421  0.09844480  1
  Te  Te145  1  0.88238249  0.23250109  0.40936753  1
  Te  Te146  1  0.87905593  0.22583136  0.78446249  1
  Te  Te147  1  0.90162824  0.60499453  0.07703037  1
  Te  Te148  1  0.92606087  0.57197626  0.43753159  1
  Te  Te149  1  0.89913071  0.57319113  0.75404925  1
  Te  Te150  1  0.91556459  0.95195027  0.07629491  1
  Te  Te151  1  0.91750580  0.90476452  0.41234683  1
  Te  Te152  1  0.89262123  0.92256543  0.75204364  1
  Te  Te153  1  0.24174729  0.08805781  0.25739529  1
  Te  Te154  1  0.24544319  0.06946680  0.57927103  1
  Te  Te155  1  0.26097791  0.08906008  0.93556504  1
  Te  Te156  1  0.27379152  0.41424084  0.23490158  1
  Te  Te157  1  0.25252863  0.42098122  0.60949571  1
  Te  Te158  1  0.27335054  0.41639124  0.92516140  1
  Te  Te159  1  0.26843327  0.78075526  0.22165923  1
  Te  Te160  1  0.26136421  0.75605705  0.56329331  1
  Te  Te161  1  0.24912192  0.73905711  0.89854637  1
  Te  Te162  1  0.61090317  0.08506374  0.22864342  1
  Te  Te163  1  0.57186498  0.08836106  0.59612222  1
  Te  Te164  1  0.58979311  0.10098034  0.95822383  1
  Te  Te165  1  0.56532438  0.39428464  0.22904018  1
  Te  Te166  1  0.58859703  0.40739577  0.58954349  1
  Te  Te167  1  0.62030376  0.37656757  0.90099735  1
  Te  Te168  1  0.60583536  0.75760791  0.25358482  1
  Te  Te169  1  0.57663813  0.75028072  0.58076422  1
  Te  Te170  1  0.57112774  0.75989392  0.92843911  1
  Te  Te171  1  0.85469393  0.07078777  0.24264571  1
  Te  Te172  1  0.92129946  0.09879383  0.57088079  1
  Te  Te173  1  0.92277492  0.12089429  0.88602946  1
  Te  Te174  1  0.90811824  0.41123701  0.23896859  1
  Te  Te175  1  0.90894476  0.39666387  0.58627193  1
  Te  Te176  1  0.89144248  0.40068992  0.90821436  1
  Te  Te177  1  0.90814066  0.76444225  0.23722301  1
  Te  Te178  1  0.89660359  0.76474500  0.60539341  1
  Te  Te179  1  0.89448204  0.75377147  0.91142316  1
