# generated using pymatgen
data_In2Te3
_symmetry_space_group_name_H-M   'P 1'
_cell_length_a   18.76279330
_cell_length_b   18.75589084
_cell_length_c   18.75877424
_cell_angle_alpha   89.98498971
_cell_angle_beta   90.01722379
_cell_angle_gamma   89.97051148
_symmetry_Int_Tables_number   1
_chemical_formula_structural   In2Te3
_chemical_formula_sum   'In72 Te108'
_cell_volume   6601.45330337
_cell_formula_units_Z   36
loop_
 _symmetry_equiv_pos_site_id
 _symmetry_equiv_pos_as_xyz
  1  'x, y, z'
loop_
 _atom_site_type_symbol
 _atom_site_label
 _atom_site_symmetry_multiplicity
 _atom_site_fract_x
 _atom_site_fract_y
 _atom_site_fract_z
 _atom_site_occupancy
  In  In0  1  0.33757205  0.16942462  0.49330392  1
  In  In1  1  0.81737261  0.51612813  0.32810879  1
  In  In2  1  0.66947835  -0.00474160  -0.00434661  1
  In  In3  1  -0.00010225  0.69229644  0.32978868  1
  In  In4  1  0.32171549  -0.00127802  0.03704551  1
  In  In5  1  0.31624043  0.69619211  0.32647034  1
  In  In6  1  0.14245327  0.13127569  0.68638594  1
  In  In7  1  0.81546933  0.66566594  0.48745092  1
  In  In8  1  0.68348999  0.17326928  0.83761228  1
  In  In9  1  0.67996032  0.15826723  0.49214964  1
  In  In10  1  0.84357384  0.67308418  0.18901229  1
  In  In11  1  0.16077244  0.52353649  0.67378163  1
  In  In12  1  0.16849920  -0.00466343  0.47773432  1
  In  In13  1  -0.03699836  0.32842085  0.66943559  1
  In  In14  1  0.34585027  -0.03437301  0.66079928  1
  In  In15  1  0.30604029  0.14287174  0.14696028  1
  In  In16  1  0.33461877  0.51478098  0.15428004  1
  In  In17  1  0.13199547  -0.02413813  0.18407922  1
  In  In18  1  0.83303608  -0.01307604  0.47189599  1
  In  In19  1  0.82551408  0.17845770  0.66980457  1
  In  In20  1  0.66173067  0.14999438  0.16925352  1
  In  In21  1  0.16673352  0.15580355  0.01809854  1
  In  In22  1  0.49212697  0.33366469  0.16037645  1
  In  In23  1  0.49386471  0.80717662  0.01172780  1
  In  In24  1  0.66571493  0.82240549  0.47852397  1
  In  In25  1  0.33460194  0.66323842  0.60569565  1
  In  In26  1  0.83723407  0.01190728  0.84652369  1
  In  In27  1  0.84239415  0.34264298  0.49298755  1
  In  In28  1  0.67285689  0.32258567  0.33411618  1
  In  In29  1  0.01441854  0.84223725  0.48408141  1
  In  In30  1  0.32620206  0.14867283  0.87495869  1
  In  In31  1  0.84053255  0.16573061  -0.01139057  1
  In  In32  1  0.85435961  0.67454076  0.84778000  1
  In  In33  1  0.32312989  0.34561147  0.68820891  1
  In  In34  1  0.33984786  -0.06966698  0.32189929  1
  In  In35  1  0.33937605  0.49679189  0.83929721  1
  In  In36  1  0.01021072  0.17854758  0.48610150  1
  In  In37  1  0.00597615  0.51760945  0.83025898  1
  In  In38  1  0.66263203  0.65526260  -0.01206197  1
  In  In39  1  0.50883216  0.83883909  0.65809426  1
  In  In40  1  0.47097433  0.17726780  0.00639871  1
  In  In41  1  0.31907306  0.68390219  0.00156817  1
  In  In42  1  0.50506221  -0.01281864  0.49814097  1
  In  In43  1  0.51173455  0.15278119  0.32279565  1
  In  In44  1  0.82626521  0.51379080  0.01234216  1
  In  In45  1  0.51768635  0.50134675  0.34539209  1
  In  In46  1  0.50555618  0.65990903  0.82843111  1
  In  In47  1  0.16595384  0.51052682  0.34858987  1
  In  In48  1  0.32142215  0.83249970  0.82969549  1
  In  In49  1  0.16098323  0.31224487  0.17531556  1
  In  In50  1  0.15359127  0.35758909  0.49820551  1
  In  In51  1  0.00233101  0.32722390  0.00502995  1
  In  In52  1  0.15522959  0.16191348  0.32501284  1
  In  In53  1  -0.00614874  0.50200303  0.17199971  1
  In  In54  1  0.81923886  0.82477699  0.65568201  1
  In  In55  1  0.00414069  0.00500108  0.66180771  1
  In  In56  1  0.49965124  0.17867755  0.67108065  1
  In  In57  1  0.66641867  0.66332204  0.33316347  1
  In  In58  1  0.16532498  0.66705227  0.85136233  1
  In  In59  1  0.02258213  0.84959688  0.84906935  1
  In  In60  1  0.50374225  -0.01953643  0.82399183  1
  In  In61  1  0.18197896  0.33896636  0.84850082  1
  In  In62  1  0.53093082  0.36910339  0.85338338  1
  In  In63  1  0.68479062  0.83647720  0.18726189  1
  In  In64  1  0.85311780  0.85906125  0.02637103  1
  In  In65  1  0.52517057  0.38232815  0.51935862  1
  In  In66  1  0.66714278  0.66083023  0.66040523  1
  In  In67  1  0.36511916  0.35325564  0.34068588  1
  In  In68  1  0.51846657  0.66758565  0.15948612  1
  In  In69  1  0.82219516  0.33627459  0.15237324  1
  In  In70  1  0.82196785  0.34381690  0.80973897  1
  In  In71  1  0.00553645  0.65537740  0.67386624  1
  Te  Te72  1  0.07426326  0.09690758  0.11826795  1
  Te  Te73  1  0.05891072  0.06454883  0.39609587  1
  Te  Te74  1  0.05880248  0.06321635  0.78891206  1
  Te  Te75  1  0.09137313  0.41907368  0.08748667  1
  Te  Te76  1  0.06435825  0.41195576  0.39540086  1
  Te  Te77  1  0.08503122  0.40862016  0.74822417  1
  Te  Te78  1  0.14527652  0.75190545  0.10128303  1
  Te  Te79  1  0.10603068  0.74011993  0.42428104  1
  Te  Te80  1  0.09316155  0.75541251  0.74817300  1
  Te  Te81  1  0.43798303  0.06912534  0.10829234  1
  Te  Te82  1  0.40540025  0.06443941  0.40609466  1
  Te  Te83  1  0.40889520  0.08309160  0.74993375  1
  Te  Te84  1  0.40709422  0.41555057  0.07177215  1
  Te  Te85  1  0.40317348  0.45562961  0.45001835  1
  Te  Te86  1  0.43651506  0.43021852  0.74268204  1
  Te  Te87  1  0.39482112  0.75843507  0.12021382  1
  Te  Te88  1  0.40133842  0.77445841  0.42127175  1
  Te  Te89  1  0.41443010  0.74935770  0.73953616  1
  Te  Te90  1  0.76646951  0.06968326  0.08712584  1
  Te  Te91  1  0.74756667  0.07706365  0.38947354  1
  Te  Te92  1  0.74144894  0.07113361  0.74049240  1
  Te  Te93  1  0.72666196  0.42218536  0.07669031  1
  Te  Te94  1  0.73460412  0.43003619  0.42251925  1
  Te  Te95  1  0.72930140  0.41089710  0.71924845  1
  Te  Te96  1  0.75291037  0.74423314  0.07689169  1
  Te  Te97  1  0.77126080  0.76488409  0.38190855  1
  Te  Te98  1  0.74688395  0.74531627  0.76199399  1
  Te  Te99  1  0.05556826  0.24565729  0.25456407  1
  Te  Te100  1  0.09199397  0.25063008  0.59366874  1
  Te  Te101  1  0.08687850  0.23901964  0.91409353  1
  Te  Te102  1  0.08739468  0.59529018  0.24755322  1
  Te  Te103  1  0.08553331  0.59180303  0.56710614  1
  Te  Te104  1  0.08042007  0.58351743  0.93835119  1
  Te  Te105  1  0.05487241  0.88194848  0.27226597  1
  Te  Te106  1  0.09977488  0.91208712  0.59034777  1
  Te  Te107  1  0.08877561  0.95292026  0.93056023  1
  Te  Te108  1  0.40374787  0.23641982  0.24704778  1
  Te  Te109  1  0.41488203  0.26942978  0.57907116  1
  Te  Te110  1  0.41587158  0.27032058  0.89934769  1
  Te  Te111  1  0.42112375  0.58863302  0.26045885  1
  Te  Te112  1  0.43187150  0.56271764  0.56448182  1
  Te  Te113  1  0.41931328  0.58924391  0.93249877  1
  Te  Te114  1  0.42874382  0.87725784  0.21921969  1
  Te  Te115  1  0.39689316  0.87961042  0.54067413  1
  Te  Te116  1  0.41226967  0.91945462  0.93099027  1
  Te  Te117  1  0.76238268  0.23284627  0.25122935  1
  Te  Te118  1  0.73884206  0.26689020  0.58199376  1
  Te  Te119  1  0.75020909  0.27438533  0.92851897  1
  Te  Te120  1  0.72797485  0.57869523  0.22119704  1
  Te  Te121  1  0.75639732  0.56923472  0.58172826  1
  Te  Te122  1  0.74903066  0.57109916  0.89321489  1
  Te  Te123  1  0.78038112  0.93485236  0.24608922  1
  Te  Te124  1  0.73739387  0.92176114  0.57262554  1
  Te  Te125  1  0.75629454  0.90037473  0.91372613  1
  Te  Te126  1  0.26147857  0.26574028  0.06744715  1
  Te  Te127  1  0.24416969  0.25770115  0.41061723  1
  Te  Te128  1  0.24963636  0.22789255  0.75395829  1
  Te  Te129  1  0.22920058  0.60351210  0.09306048  1
  Te  Te130  1  0.25406626  0.60103571  0.42589878  1
  Te  Te131  1  0.26682126  0.60272812  0.75151001  1
  Te  Te132  1  0.23657812  0.89459257  0.10815897  1
  Te  Te133  1  0.22757814  0.87498814  0.40773092  1
  Te  Te134  1  0.23534524  0.91901528  0.74632964  1
  Te  Te135  1  0.58826812  0.24745620  0.07579573  1
  Te  Te136  1  0.56401531  0.25664082  0.42292859  1
  Te  Te137  1  0.59330139  0.26487381  0.75408747  1
  Te  Te138  1  0.56822221  0.56277814  0.06378700  1
  Te  Te139  1  0.58440802  0.59634851  0.43753716  1
  Te  Te140  1  0.58782185  0.56623130  0.74744207  1
  Te  Te141  1  0.58784147  0.90389040  0.08614730  1
  Te  Te142  1  0.59035683  0.92166484  0.39658948  1
  Te  Te143  1  0.60474454  0.91345313  0.74132189  1
  Te  Te144  1  0.92390247  0.23558410  0.09780803  1
  Te  Te145  1  0.89914180  0.23513616  0.40766924  1
  Te  Te146  1  0.92149595  0.22895606  0.77686357  1
  Te  Te147  1  0.92870060  0.60480876  0.07932674  1
  Te  Te148  1  0.92276564  0.58607554  0.41237684  1
  Te  Te149  1  0.89654450  0.57158249  0.73940268  1
  Te  Te150  1  0.95686229  0.93189441  0.10892391  1
  Te  Te151  1  0.92448659  0.90781260  0.38273377  1
  Te  Te152  1  0.91123917  0.90645563  0.74718548  1
  Te  Te153  1  0.25270007  0.05956849  0.26522695  1
  Te  Te154  1  0.25161514  0.07806941  0.58061180  1
  Te  Te155  1  0.22500226  0.04010550  0.92175336  1
  Te  Te156  1  0.25406984  0.41462214  0.25270793  1
  Te  Te157  1  0.25167844  0.43423955  0.58655012  1
  Te  Te158  1  0.23948814  0.44321215  0.93405489  1
  Te  Te159  1  0.21897686  0.77034870  0.22774441  1
  Te  Te160  1  0.26314145  0.77937404  0.55207532  1
  Te  Te161  1  0.22119912  0.78481133  0.93536074  1
  Te  Te162  1  0.59321643  0.04926121  0.25626063  1
  Te  Te163  1  0.58457897  0.08288878  0.58738140  1
  Te  Te164  1  0.57332168  0.09091531  0.91576255  1
  Te  Te165  1  0.59164898  0.41607988  0.24292263  1
  Te  Te166  1  0.61722948  0.44774911  0.61474714  1
  Te  Te167  1  0.60140041  0.44586162  0.95701195  1
  Te  Te168  1  0.57140076  0.76422516  0.26521043  1
  Te  Te169  1  0.57263078  0.73638317  0.56478247  1
  Te  Te170  1  0.59039359  0.76293732  0.90345055  1
  Te  Te171  1  0.89240721  0.02847336  0.20522605  1
  Te  Te172  1  0.90791176  0.08791095  0.57506532  1
  Te  Te173  1  0.93852807  0.06071861  0.94329336  1
  Te  Te174  1  0.90493799  0.41221843  0.25699965  1
  Te  Te175  1  0.93267961  0.43191333  0.57085950  1
  Te  Te176  1  0.91643355  0.41942070  0.91781356  1
  Te  Te177  1  0.95019470  0.77933411  0.21292198  1
  Te  Te178  1  0.92233718  0.74874694  0.57315752  1
  Te  Te179  1  0.93986001  0.76101855  0.94204460  1
