# generated using pymatgen
data_In2Te3
_symmetry_space_group_name_H-M   'P 1'
_cell_length_a   18.75225253
_cell_length_b   18.75727878
_cell_length_c   18.75799937
_cell_angle_alpha   90.00175261
_cell_angle_beta   90.01370703
_cell_angle_gamma   89.94726958
_symmetry_Int_Tables_number   1
_chemical_formula_structural   In2Te3
_chemical_formula_sum   'In72 Te108'
_cell_volume   6597.95875756
_cell_formula_units_Z   36
loop_
 _symmetry_equiv_pos_site_id
 _symmetry_equiv_pos_as_xyz
  1  'x, y, z'
loop_
 _atom_site_type_symbol
 _atom_site_label
 _atom_site_symmetry_multiplicity
 _atom_site_fract_x
 _atom_site_fract_y
 _atom_site_fract_z
 _atom_site_occupancy
  In  In0  1  0.66144853  0.48816082  0.82855441  1
  In  In1  1  0.18165130  -0.00403047  0.83598127  1
  In  In2  1  0.18099714  0.81034667  0.00770816  1
  In  In3  1  0.53521989  0.49691822  -0.00174434  1
  In  In4  1  0.67231994  0.83663205  0.15971797  1
  In  In5  1  0.82004273  0.85138865  0.70198356  1
  In  In6  1  0.67278248  0.17132140  0.16220803  1
  In  In7  1  0.81899225  0.67461587  0.82393064  1
  In  In8  1  0.16014372  0.18331354  0.34024238  1
  In  In9  1  0.00710037  0.83738390  0.50089140  1
  In  In10  1  0.82566347  0.64048037  0.50134133  1
  In  In11  1  0.52431843  0.47632587  0.64687775  1
  In  In12  1  0.17801031  0.32442718  0.81692261  1
  In  In13  1  0.36012068  0.01148856  -0.01987239  1
  In  In14  1  0.80696089  0.49787870  0.66152212  1
  In  In15  1  0.33755327  0.34199712  0.33929756  1
  In  In16  1  0.51429878  0.65464888  0.14054772  1
  In  In17  1  -0.01275222  0.15355826  0.85561382  1
  In  In18  1  -0.01489020  0.64304190  0.34608978  1
  In  In19  1  0.15768014  -0.00222063  0.17030172  1
  In  In20  1  0.32888412  0.48889486  0.18250652  1
  In  In21  1  0.17745974  0.00839453  0.50408912  1
  In  In22  1  0.35065458  0.31033589  -0.00820410  1
  In  In23  1  0.51507277  0.32518937  0.18219445  1
  In  In24  1  0.18194489  0.34642962  0.49739016  1
  In  In25  1  0.17735847  0.65938726  0.49333083  1
  In  In26  1  0.81617510  0.32572884  0.84529603  1
  In  In27  1  0.33508856  0.00277723  0.34994263  1
  In  In28  1  0.18087751  0.16777257  0.67219036  1
  In  In29  1  0.38172815  0.16797861  0.54711343  1
  In  In30  1  0.63925091  0.84398898  0.51640000  1
  In  In31  1  0.82316657  0.01362652  0.50442885  1
  In  In32  1  0.51467534  0.68604761  0.84481926  1
  In  In33  1  0.34719391  0.83453109  0.17548065  1
  In  In34  1  0.51471918  0.47865766  0.34581633  1
  In  In35  1  0.00589389  0.84812002  0.15444999  1
  In  In36  1  0.82000724  0.16660179  0.32003813  1
  In  In37  1  0.67805656  0.65367821  0.31459865  1
  In  In38  1  0.82355400  0.00757187  0.16428223  1
  In  In39  1  0.18115048  0.85238172  0.66749101  1
  In  In40  1  0.52146230  0.17875549  0.34672064  1
  In  In41  1  0.14386900  0.49581709  -0.00449156  1
  In  In42  1  0.17215168  0.66399910  0.86416016  1
  In  In43  1  0.49926244  0.85015099  0.35644533  1
  In  In44  1  0.17013617  0.47778379  0.64393183  1
  In  In45  1  0.31746407  0.67715993  -0.02351792  1
  In  In46  1  0.64670856  0.15133690  0.81380574  1
  In  In47  1  0.18575890  0.15958888  0.00459694  1
  In  In48  1  0.52279123  0.66917613  0.49663315  1
  In  In49  1  0.51594984  0.15254276  -0.02467027  1
  In  In50  1  -0.00259665  0.35003670  0.66881305  1
  In  In51  1  0.35751325  0.67159387  0.69202521  1
  In  In52  1  0.14205809  0.65642413  0.17530575  1
  In  In53  1  -0.01953608  0.17123390  0.48599844  1
  In  In54  1  -0.01654659  0.83408589  0.83888277  1
  In  In55  1  -0.00813843  0.49659811  0.50066577  1
  In  In56  1  0.63562265  0.18211142  0.51787635  1
  In  In57  1  0.35211096  0.48692585  0.80914672  1
  In  In58  1  0.31650356  0.67342870  0.32241766  1
  In  In59  1  -0.03166063  0.34200580  0.30634244  1
  In  In60  1  0.36079835  0.87089818  0.52764512  1
  In  In61  1  -0.02818132  0.68033776  0.68724666  1
  In  In62  1  -0.01426337  0.33663012  0.02460954  1
  In  In63  1  -0.02955122  -0.00366386  0.00017472  1
  In  In64  1  0.53025032  0.85791641  -0.02404699  1
  In  In65  1  0.81952001  0.65514985  0.15111745  1
  In  In66  1  0.79858212  0.15557139  0.67442199  1
  In  In67  1  0.82761507  0.48452509  0.01598832  1
  In  In68  1  0.82477747  0.83519681  0.32312317  1
  In  In69  1  0.32740230  0.49046237  0.49181890  1
  In  In70  1  0.32785389  0.17313337  0.12269256  1
  In  In71  1  -0.04618135  0.18430486  0.16066406  1
  Te  Te72  1  0.06983723  0.09005396  0.08121172  1
  Te  Te73  1  0.07608521  0.07698054  0.41136468  1
  Te  Te74  1  0.08425101  0.08461423  0.75718706  1
  Te  Te75  1  0.06596804  0.43252427  0.10477160  1
  Te  Te76  1  0.07241418  0.40453255  0.40977493  1
  Te  Te77  1  0.08356920  0.43354820  0.76308303  1
  Te  Te78  1  0.06399474  0.73471726  0.06850826  1
  Te  Te79  1  0.08432557  0.74492854  0.40673826  1
  Te  Te80  1  0.09146454  0.75396652  0.74872772  1
  Te  Te81  1  0.44220602  0.07922950  0.08997751  1
  Te  Te82  1  0.43704482  0.08148449  0.43263193  1
  Te  Te83  1  0.46663503  0.07075805  0.72490318  1
  Te  Te84  1  0.42233653  0.41803774  0.08398236  1
  Te  Te85  1  0.43598858  0.39121374  0.44334463  1
  Te  Te86  1  0.45588353  0.39552553  0.75365825  1
  Te  Te87  1  0.42144600  0.75417503  0.06792582  1
  Te  Te88  1  0.40727133  0.74561404  0.42551612  1
  Te  Te89  1  0.44114765  0.77751248  0.75168266  1
  Te  Te90  1  0.73794217  0.07637512  0.06526618  1
  Te  Te91  1  0.72901213  0.09701273  0.42049485  1
  Te  Te92  1  0.75090252  0.04278443  0.76843467  1
  Te  Te93  1  0.77067596  0.37017161  0.09681078  1
  Te  Te94  1  0.69897183  0.41388702  0.43461991  1
  Te  Te95  1  0.72973566  0.38771808  0.73492695  1
  Te  Te96  1  0.74015165  0.74689016  0.06295914  1
  Te  Te97  1  0.74117208  0.75345012  0.42192297  1
  Te  Te98  1  0.71767160  0.76756910  0.76562094  1
  Te  Te99  1  0.07213986  0.25141899  0.23617345  1
  Te  Te100  1  0.08291015  0.25085465  0.57990099  1
  Te  Te101  1  0.08668876  0.25414050  0.92097877  1
  Te  Te102  1  0.06461632  0.55801120  0.25345389  1
  Te  Te103  1  0.07137746  0.59469249  0.58753328  1
  Te  Te104  1  0.05837313  0.59058829  0.92031858  1
  Te  Te105  1  0.07633927  0.91800533  0.26340191  1
  Te  Te106  1  0.07562939  0.93639291  0.59490682  1
  Te  Te107  1  0.08819117  0.91888841  0.93409023  1
  Te  Te108  1  0.40528291  0.23832943  0.24910429  1
  Te  Te109  1  0.48543057  0.26267722  0.59721989  1
  Te  Te110  1  0.42690679  0.23600955  0.88995796  1
  Te  Te111  1  0.42843666  0.58782559  0.25934187  1
  Te  Te112  1  0.41662901  0.57858850  0.58087026  1
  Te  Te113  1  0.42094121  0.57790660  0.91612756  1
  Te  Te114  1  0.43115759  0.93717694  0.24838689  1
  Te  Te115  1  0.46568695  0.94922623  0.60014784  1
  Te  Te116  1  0.42286993  0.91342409  0.88954519  1
  Te  Te117  1  0.75217668  0.27588897  0.24014258  1
  Te  Te118  1  0.74881230  0.25856433  0.58065508  1
  Te  Te119  1  0.72560717  0.23246089  0.91429270  1
  Te  Te120  1  0.76892417  0.55404341  0.25039578  1
  Te  Te121  1  0.72569132  0.60736595  0.60414178  1
  Te  Te122  1  0.74928656  0.57353521  0.91759726  1
  Te  Te123  1  0.72874957  0.93611879  0.26348228  1
  Te  Te124  1  0.73719094  0.92952914  0.59743869  1
  Te  Te125  1  0.73729374  0.96989844  0.90449499  1
  Te  Te126  1  0.23033690  0.28335445  0.08591900  1
  Te  Te127  1  0.26795213  0.22958900  0.43958354  1
  Te  Te128  1  0.28244065  0.24852563  0.74459164  1
  Te  Te129  1  0.25537903  0.58817019  0.08776670  1
  Te  Te130  1  0.23598142  0.56159807  0.39173239  1
  Te  Te131  1  0.24209289  0.58246169  0.74370206  1
  Te  Te132  1  0.26066046  0.92959561  0.07610357  1
  Te  Te133  1  0.24867029  0.90020778  0.42243890  1
  Te  Te134  1  0.27830139  0.93830279  0.73794741  1
  Te  Te135  1  0.58519170  0.25737228  0.06616905  1
  Te  Te136  1  0.61942305  0.28209291  0.39826319  1
  Te  Te137  1  0.56685613  0.24660969  0.72938300  1
  Te  Te138  1  0.62508625  0.57137655  0.08923302  1
  Te  Te139  1  0.61349939  0.56627220  0.42808935  1
  Te  Te140  1  0.57528519  0.58312011  0.74672430  1
  Te  Te141  1  0.58627634  0.93427485  0.08901745  1
  Te  Te142  1  0.58904716  0.94642164  0.42177088  1
  Te  Te143  1  0.56372447  0.95686089  0.72592091  1
  Te  Te144  1  0.87062080  0.24265890  0.05124159  1
  Te  Te145  1  0.88818641  0.26858846  0.41535689  1
  Te  Te146  1  0.91861943  0.24492888  0.74813942  1
  Te  Te147  1  0.92456854  0.57397535  0.08424135  1
  Te  Te148  1  0.88184657  0.54057994  0.40137260  1
  Te  Te149  1  0.90878047  0.56306612  0.75639831  1
  Te  Te150  1  0.88391816  0.89594741  0.07608188  1
  Te  Te151  1  0.91067556  0.92204729  0.41624309  1
  Te  Te152  1  0.92599355  0.93968961  0.75444552  1
  Te  Te153  1  0.25318340  0.09009212  0.24961673  1
  Te  Te154  1  0.27635904  0.06909517  0.60308169  1
  Te  Te155  1  0.27472405  0.10518233  0.89323167  1
  Te  Te156  1  0.23315505  0.40578755  0.25796747  1
  Te  Te157  1  0.28561509  0.38884623  0.60279761  1
  Te  Te158  1  0.25878255  0.42404028  0.91657492  1
  Te  Te159  1  0.22748231  0.76872330  0.24259770  1
  Te  Te160  1  0.26195399  0.74697513  0.58547615  1
  Te  Te161  1  0.26523295  0.78493568  0.88209117  1
  Te  Te162  1  0.58494700  0.08868523  0.24916475  1
  Te  Te163  1  0.58048507  0.07749684  0.61919907  1
  Te  Te164  1  0.59890235  0.03734452  0.91296309  1
  Te  Te165  1  0.60080938  0.43338504  0.23420928  1
  Te  Te166  1  0.62769092  0.39946178  0.56309995  1
  Te  Te167  1  0.59282350  0.38933197  0.91681239  1
  Te  Te168  1  0.57191714  0.75083908  0.25531017  1
  Te  Te169  1  0.56916339  0.75219609  0.60982398  1
  Te  Te170  1  0.62097803  0.74850590  0.92989791  1
  Te  Te171  1  0.92519429  0.07213636  0.25936169  1
  Te  Te172  1  0.91831773  0.08850121  0.59756500  1
  Te  Te173  1  0.87386612  0.07674216  0.91818269  1
  Te  Te174  1  0.87194187  0.40538304  0.21164150  1
  Te  Te175  1  0.89297968  0.40531262  0.57270972  1
  Te  Te176  1  0.92064635  0.41504359  0.90991487  1
  Te  Te177  1  0.91960643  0.74381359  0.24621734  1
  Te  Te178  1  0.89854374  0.76119342  0.58012491  1
  Te  Te179  1  0.89709270  0.75276883  0.92402888  1
