# generated using pymatgen
data_In2Te3
_symmetry_space_group_name_H-M   'P 1'
_cell_length_a   18.94572884
_cell_length_b   18.94188540
_cell_length_c   18.97807415
_cell_angle_alpha   90.06693356
_cell_angle_beta   90.13016869
_cell_angle_gamma   90.00080900
_symmetry_Int_Tables_number   1
_chemical_formula_structural   In2Te3
_chemical_formula_sum   'In72 Te108'
_cell_volume   6810.59795654
_cell_formula_units_Z   36
loop_
 _symmetry_equiv_pos_site_id
 _symmetry_equiv_pos_as_xyz
  1  'x, y, z'
loop_
 _atom_site_type_symbol
 _atom_site_label
 _atom_site_symmetry_multiplicity
 _atom_site_fract_x
 _atom_site_fract_y
 _atom_site_fract_z
 _atom_site_occupancy
  In  In0  1  0.81630214  -0.01376142  0.49910858  1
  In  In1  1  0.67368996  0.82588911  0.52505937  1
  In  In2  1  0.18300723  0.52576205  0.64679382  1
  In  In3  1  0.83474344  0.67521614  0.84627368  1
  In  In4  1  0.00741841  0.32881551  0.65689183  1
  In  In5  1  0.33644568  0.82366340  0.15964122  1
  In  In6  1  0.17494231  0.15272186  -0.03409462  1
  In  In7  1  -0.03092261  0.52687804  0.12508957  1
  In  In8  1  0.64254210  0.31651516  0.01457259  1
  In  In9  1  0.20076725  -0.03081657  0.81118686  1
  In  In10  1  0.64020994  0.51209323  0.49591107  1
  In  In11  1  0.32592619  0.00293753  0.34709372  1
  In  In12  1  0.16339114  0.33965444  0.16561478  1
  In  In13  1  0.01476562  0.66438608  0.30836813  1
  In  In14  1  0.18608630  0.81745597  0.31539420  1
  In  In15  1  0.33604240  0.16522988  0.49548575  1
  In  In16  1  0.83087548  0.64974765  0.49880928  1
  In  In17  1  0.80554856  0.02241349  0.16408349  1
  In  In18  1  0.00121860  0.80819589  0.14656039  1
  In  In19  1  -0.00758560  0.01124289  0.00038694  1
  In  In20  1  0.64668482  -0.01932672  0.34842236  1
  In  In21  1  0.34749226  0.35607197  -0.03288303  1
  In  In22  1  0.79819026  0.50551453  0.67733222  1
  In  In23  1  0.00165019  0.69844074  0.68475281  1
  In  In24  1  0.16649184  0.34561223  0.48497936  1
  In  In25  1  0.85097948  0.18024147  0.33176178  1
  In  In26  1  0.19122024  0.66609962  0.82915710  1
  In  In27  1  0.84347230  0.32974554  0.14413771  1
  In  In28  1  0.48932402  0.66971473  0.51214425  1
  In  In29  1  0.69040505  0.83335103  0.14614669  1
  In  In30  1  0.47674060  -0.03054108  0.86226861  1
  In  In31  1  0.17080207  -0.01889739  0.18018859  1
  In  In32  1  0.47976282  0.14788721  0.32826147  1
  In  In33  1  -0.00525291  0.14629022  0.83290075  1
  In  In34  1  0.32625245  0.34599212  0.33794818  1
  In  In35  1  0.65887256  0.35657514  0.32964504  1
  In  In36  1  0.49619950  0.67822065  0.16002973  1
  In  In37  1  0.65136292  0.17783738  0.82710502  1
  In  In38  1  0.64761501  0.53921931  0.83769483  1
  In  In39  1  0.16161020  0.00415072  0.52548036  1
  In  In40  1  0.49458922  0.50753557  -0.00047805  1
  In  In41  1  0.25529573  0.69391882  0.50316097  1
  In  In42  1  0.17516324  0.33162286  0.83663005  1
  In  In43  1  -0.00081130  0.49836004  0.84334981  1
  In  In44  1  0.85507928  0.81668836  0.35142753  1
  In  In45  1  0.48940856  0.13782060  0.68486927  1
  In  In46  1  0.35057636  0.50993007  0.14467303  1
  In  In47  1  0.64025175  0.81162651  0.85959167  1
  In  In48  1  -0.00719633  -0.01133761  0.66303363  1
  In  In49  1  0.65062765  0.15241039  0.52432878  1
  In  In50  1  0.00812790  0.48250758  0.50667277  1
  In  In51  1  0.82176579  0.29882580  0.49987967  1
  In  In52  1  0.84446022  0.81903711  -0.00752934  1
  In  In53  1  0.67057653  0.00927283  -0.00495263  1
  In  In54  1  0.50850597  0.33035684  0.49928063  1
  In  In55  1  0.33632003  0.50479040  0.51720749  1
  In  In56  1  0.82906209  0.83319963  0.69940352  1
  In  In57  1  0.38708646  0.37080803  0.70899432  1
  In  In58  1  0.17670818  0.50128181  0.01116328  1
  In  In59  1  0.00235950  0.18925192  0.16300668  1
  In  In60  1  0.82042657  0.35632310  0.84417076  1
  In  In61  1  0.01197512  0.83947813  0.50010804  1
  In  In62  1  0.48134207  0.81179307  0.33980150  1
  In  In63  1  0.18468965  0.19329523  0.67881835  1
  In  In64  1  0.49491737  0.00530862  0.13550057  1
  In  In65  1  0.80520254  0.17401318  0.67186475  1
  In  In66  1  0.32820720  0.17419422  0.14556573  1
  In  In67  1  0.82571393  0.49665952  0.30780860  1
  In  In68  1  0.47326333  0.83490398  0.70005462  1
  In  In69  1  0.17374860  0.84488410  0.00632951  1
  In  In70  1  -0.01031374  0.15196643  0.46468542  1
  In  In71  1  0.66032476  0.49767356  0.18414806  1
  Te  Te72  1  0.10063569  0.08364449  0.08538043  1
  Te  Te73  1  0.09410998  0.06661990  0.41054156  1
  Te  Te74  1  0.09885444  0.08285838  0.74346660  1
  Te  Te75  1  0.06974944  0.41666739  0.07494707  1
  Te  Te76  1  0.10331581  0.44759715  0.39999392  1
  Te  Te77  1  0.09436297  0.42388475  0.73741071  1
  Te  Te78  1  0.11212201  0.73487826  0.08506220  1
  Te  Te79  1  0.09121871  0.74152198  0.41618200  1
  Te  Te80  1  0.10015732  0.76621721  0.76779948  1
  Te  Te81  1  0.42711555  0.10995294  0.05773365  1
  Te  Te82  1  0.43116932  0.05990464  0.44167584  1
  Te  Te83  1  0.39853393  0.05294686  0.76587898  1
  Te  Te84  1  0.43421777  0.39643660  0.08387402  1
  Te  Te85  1  0.42491680  0.42766947  0.41927804  1
  Te  Te86  1  0.44105253  0.48147360  0.79993772  1
  Te  Te87  1  0.42916388  0.76604046  0.05908323  1
  Te  Te88  1  0.38179619  0.73736926  0.42694088  1
  Te  Te89  1  0.45980328  0.73259112  0.81412084  1
  Te  Te90  1  0.72046195  0.12015408  0.08759371  1
  Te  Te91  1  0.74775091  0.09006210  0.41155206  1
  Te  Te92  1  0.74153764  0.08078736  0.76180986  1
  Te  Te93  1  0.73740158  0.41658120  0.08082739  1
  Te  Te94  1  0.75672788  0.42101529  0.43102756  1
  Te  Te95  1  0.71403770  0.41233145  0.75478283  1
  Te  Te96  1  0.75695865  0.72568579  0.06792304  1
  Te  Te97  1  0.74050146  0.74203113  0.41705791  1
  Te  Te98  1  0.73134788  0.73504842  0.75510165  1
  Te  Te99  1  0.08877231  0.25637540  0.25921856  1
  Te  Te100  1  0.08403428  0.23353916  0.56813564  1
  Te  Te101  1  0.07211316  0.25184188  0.91263839  1
  Te  Te102  1  0.08173026  0.59699770  0.19652273  1
  Te  Te103  1  0.06579174  0.59989932  0.58543165  1
  Te  Te104  1  0.08974301  0.58944704  0.91840538  1
  Te  Te105  1  0.07039206  0.89435056  0.25209334  1
  Te  Te106  1  0.10014114  0.89401652  0.61045845  1
  Te  Te107  1  0.09238626  0.93556652  0.91493511  1
  Te  Te108  1  0.40975825  0.25365005  0.24812696  1
  Te  Te109  1  0.41790735  0.25092925  0.59048840  1
  Te  Te110  1  0.42332023  0.27874062  0.86589154  1
  Te  Te111  1  0.40595162  0.60196621  0.24814008  1
  Te  Te112  1  0.42198763  0.58043813  0.61299358  1
  Te  Te113  1  0.42582620  0.59935613  0.90223918  1
  Te  Te114  1  0.41911240  0.92577116  0.25247394  1
  Te  Te115  1  0.37720999  0.86956390  0.59099025  1
  Te  Te116  1  0.40717427  0.84844375  0.91632173  1
  Te  Te117  1  0.75596001  0.26707418  0.25286112  1
  Te  Te118  1  0.71136432  0.26888871  0.60075452  1
  Te  Te119  1  0.74608671  0.25040518  0.92149914  1
  Te  Te120  1  0.73680147  0.59954534  0.25924760  1
  Te  Te121  1  0.72135324  0.60317519  0.59127558  1
  Te  Te122  1  0.77585446  0.56281087  0.92466303  1
  Te  Te123  1  0.75762853  0.91347676  0.26759478  1
  Te  Te124  1  0.74216990  0.92827266  0.61412489  1
  Te  Te125  1  0.74910630  0.90789770  0.91396217  1
  Te  Te126  1  0.24460083  0.26595502  0.05132679  1
  Te  Te127  1  0.24090303  0.23940526  0.40519171  1
  Te  Te128  1  0.28760456  0.25236107  0.77221023  1
  Te  Te129  1  0.28082293  0.59643238  0.04947410  1
  Te  Te130  1  0.23613449  0.56823699  0.42835481  1
  Te  Te131  1  0.28167362  0.60353424  0.72552707  1
  Te  Te132  1  0.27207846  0.93708541  0.07953384  1
  Te  Te133  1  0.23676237  0.91105612  0.42507586  1
  Te  Te134  1  0.29474292  0.88833354  0.72420373  1
  Te  Te135  1  0.59849418  0.21195346  0.10606983  1
  Te  Te136  1  0.58596932  0.23686296  0.40501500  1
  Te  Te137  1  0.54256147  0.25733756  0.75887481  1
  Te  Te138  1  0.59040771  0.58809526  0.08386677  1
  Te  Te139  1  0.57154519  0.60515004  0.40787487  1
  Te  Te140  1  0.55113898  0.54307055  0.71682843  1
  Te  Te141  1  0.58459047  0.90431720  0.06356879  1
  Te  Te142  1  0.56511689  0.89378636  0.43963290  1
  Te  Te143  1  0.58329350  0.91879892  0.76704714  1
  Te  Te144  1  0.91210001  0.23262654  0.05830409  1
  Te  Te145  1  0.93826046  0.28200430  0.40515062  1
  Te  Te146  1  0.91132737  0.25683973  0.74977471  1
  Te  Te147  1  0.87076409  0.60233716  0.04425144  1
  Te  Te148  1  0.92534258  0.57679485  0.40523760  1
  Te  Te149  1  0.91802579  0.57915708  0.73754448  1
  Te  Te150  1  0.90465283  0.92422839  0.09575045  1
  Te  Te151  1  0.93012661  0.93376190  0.41424831  1
  Te  Te152  1  0.92603373  0.91603619  0.76970133  1
  Te  Te153  1  0.25159098  0.09113589  0.24906519  1
  Te  Te154  1  0.26320723  0.08646571  0.60226689  1
  Te  Te155  1  0.27314241  0.07036831  0.89347624  1
  Te  Te156  1  0.25320662  0.43547098  0.24051170  1
  Te  Te157  1  0.25430944  0.39689709  0.59699197  1
  Te  Te158  1  0.25546228  0.44807422  0.89107820  1
  Te  Te159  1  0.27262066  0.72144687  0.24524637  1
  Te  Te160  1  0.27942180  0.75166419  0.63806062  1
  Te  Te161  1  0.26321396  0.77369521  0.90938911  1
  Te  Te162  1  0.58349843  0.07091508  0.24601580  1
  Te  Te163  1  0.57107270  0.05429364  0.59506990  1
  Te  Te164  1  0.56784040  0.08448595  0.91391959  1
  Te  Te165  1  0.55469492  0.42201582  0.25271717  1
  Te  Te166  1  0.56881828  0.42729766  0.59516157  1
  Te  Te167  1  0.58706938  0.41908746  0.91902672  1
  Te  Te168  1  0.58891944  0.76864384  0.24353340  1
  Te  Te169  1  0.57058232  0.75514143  0.60893310  1
  Te  Te170  1  0.58909370  0.67423132  0.89454118  1
  Te  Te171  1  0.92142541  0.08150337  0.24292117  1
  Te  Te172  1  0.90677025  0.09013879  0.58303850  1
  Te  Te173  1  0.89447443  0.07634107  0.91208345  1
  Te  Te174  1  0.92952079  0.42165933  0.23111096  1
  Te  Te175  1  0.89807166  0.41493719  0.59216390  1
  Te  Te176  1  0.92206693  0.41289395  0.93291442  1
  Te  Te177  1  0.90066875  0.73371015  0.23376414  1
  Te  Te178  1  0.89981141  0.76555583  0.57455681  1
  Te  Te179  1  0.94290823  0.75378622  0.90605781  1
