# generated using pymatgen
data_In2Te3
_symmetry_space_group_name_H-M   'P 1'
_cell_length_a   18.97111986
_cell_length_b   18.97254627
_cell_length_c   18.98146745
_cell_angle_alpha   90.03862594
_cell_angle_beta   90.16346368
_cell_angle_gamma   90.21928009
_symmetry_Int_Tables_number   1
_chemical_formula_structural   In2Te3
_chemical_formula_sum   'In72 Te108'
_cell_volume   6831.92866382
_cell_formula_units_Z   36
loop_
 _symmetry_equiv_pos_site_id
 _symmetry_equiv_pos_as_xyz
  1  'x, y, z'
loop_
 _atom_site_type_symbol
 _atom_site_label
 _atom_site_symmetry_multiplicity
 _atom_site_fract_x
 _atom_site_fract_y
 _atom_site_fract_z
 _atom_site_occupancy
  In  In0  1  0.36276271  -0.02760158  0.34231777  1
  In  In1  1  0.67147375  0.69057831  -0.00441621  1
  In  In2  1  0.68010559  0.33569108  0.34960228  1
  In  In3  1  0.64972352  0.17321518  0.15564785  1
  In  In4  1  0.46514726  0.18562144  0.30241884  1
  In  In5  1  0.82645997  0.15252832  -0.00485203  1
  In  In6  1  0.68369554  0.66265149  0.65587439  1
  In  In7  1  0.50232498  0.34331205  0.49242583  1
  In  In8  1  0.82483503  0.31060531  0.81817893  1
  In  In9  1  0.22288535  0.33860814  0.16026965  1
  In  In10  1  0.34044057  0.82169158  0.84032681  1
  In  In11  1  0.49170333  -0.00844438  0.82429717  1
  In  In12  1  -0.03483178  0.03522113  0.62984332  1
  In  In13  1  0.32808600  0.16911091  0.84059687  1
  In  In14  1  0.17951757  -0.00149993  0.82417588  1
  In  In15  1  0.48596808  0.17726665  -0.00910852  1
  In  In16  1  0.00117568  0.81935805  0.82430908  1
  In  In17  1  0.16306283  0.00632407  0.48875254  1
  In  In18  1  0.15989287  0.01038007  0.15854018  1
  In  In19  1  0.69345224  0.33272713  0.65145004  1
  In  In20  1  0.34315139  0.34277172  0.68457225  1
  In  In21  1  0.82200718  -0.00281514  0.82167041  1
  In  In22  1  0.18476909  0.65305047  0.15246391  1
  In  In23  1  0.47851520  0.34420643  0.83908722  1
  In  In24  1  0.49893632  0.01073556  0.15294209  1
  In  In25  1  0.81366705  0.82969448  0.66369734  1
  In  In26  1  0.17353427  0.17131662  0.31008210  1
  In  In27  1  0.49873995  0.68117888  0.15205859  1
  In  In28  1  0.67557257  0.15493468  0.82774950  1
  In  In29  1  0.66892664  0.48804291  0.52308925  1
  In  In30  1  0.83703102  0.49815545  0.01129501  1
  In  In31  1  0.83533543  0.66799560  0.49992862  1
  In  In32  1  0.82495985  -0.00825502  0.16213478  1
  In  In33  1  0.02308707  0.33484764  -0.00864132  1
  In  In34  1  0.65797676  0.84470964  0.49493293  1
  In  In35  1  -0.02151417  0.02421835  0.36887791  1
  In  In36  1  0.64934269  0.51041338  0.84065285  1
  In  In37  1  0.00426518  0.66697123  0.67629015  1
  In  In38  1  0.17269312  0.64432267  0.49242794  1
  In  In39  1  0.65415292  0.83288511  0.15882920  1
  In  In40  1  0.00134097  0.49112703  0.17434241  1
  In  In41  1  0.17363291  0.49454978  0.67342788  1
  In  In42  1  0.80648509  0.65528838  0.17793853  1
  In  In43  1  0.16587495  0.33693443  0.49204201  1
  In  In44  1  0.66199898  0.49545519  0.18537824  1
  In  In45  1  0.34316851  0.66033548  0.65819342  1
  In  In46  1  0.47952870  0.50175154  0.00395890  1
  In  In47  1  0.15276162  0.82744553  0.65518678  1
  In  In48  1  0.34934622  0.50501437  0.18551790  1
  In  In49  1  0.31309778  0.16286678  0.48614276  1
  In  In50  1  0.01045800  0.51979936  0.84117526  1
  In  In51  1  0.16368093  0.82134005  0.32154235  1
  In  In52  1  0.18864475  0.83410154  -0.00826444  1
  In  In53  1  0.65300462  0.12644784  0.49926509  1
  In  In54  1  0.18959686  0.36848920  0.85398321  1
  In  In55  1  0.84929879  0.32789840  0.17201648  1
  In  In56  1  0.82783195  0.16791824  0.39542529  1
  In  In57  1  0.02171959  0.13671573  0.16296612  1
  In  In58  1  -0.01256883  0.86332931  0.17261672  1
  In  In59  1  0.82728572  0.84972244  0.33904418  1
  In  In60  1  0.33296102  0.80953692  0.17338900  1
  In  In61  1  0.65174162  0.84641985  0.82224689  1
  In  In62  1  0.02703905  0.68426841  -0.00658334  1
  In  In63  1  0.01008655  0.35528084  0.32609449  1
  In  In64  1  0.51113919  0.49551444  0.34498401  1
  In  In65  1  0.37219245  -0.02384243  0.63564699  1
  In  In66  1  0.52427868  0.17458961  0.65263128  1
  In  In67  1  -0.00774693  0.66347522  0.35498529  1
  In  In68  1  0.02450940  0.19000109  0.84483919  1
  In  In69  1  0.13639015  0.18375764  0.64297915  1
  In  In70  1  0.49425410  0.67756168  0.50106039  1
  In  In71  1  0.51471342  0.67431007  0.82442286  1
  Te  Te72  1  0.08692839  0.07521866  0.04873416  1
  Te  Te73  1  0.08669355  0.11783308  0.42233857  1
  Te  Te74  1  0.07998901  0.08144271  0.74181893  1
  Te  Te75  1  0.10072386  0.41318573  0.09366612  1
  Te  Te76  1  0.09838780  0.44491846  0.40956789  1
  Te  Te77  1  0.07790772  0.41014087  0.76194704  1
  Te  Te78  1  0.09356842  0.77351710  0.10654417  1
  Te  Te79  1  0.08349156  0.75649943  0.43205893  1
  Te  Te80  1  0.10970212  0.73261522  0.76495387  1
  Te  Te81  1  0.40127789  0.10357502  0.09023856  1
  Te  Te82  1  0.42572639  0.09105833  0.41653694  1
  Te  Te83  1  0.41757595  0.09900636  0.74148454  1
  Te  Te84  1  0.42567310  0.40746475  0.10415227  1
  Te  Te85  1  0.40853528  0.40838307  0.40333389  1
  Te  Te86  1  0.39692131  0.44906927  0.77291430  1
  Te  Te87  1  0.39588976  0.73540359  0.06291249  1
  Te  Te88  1  0.42941603  0.78040360  0.41553925  1
  Te  Te89  1  0.42984385  0.76211296  0.73492594  1
  Te  Te90  1  0.72815129  0.07109071  0.07522723  1
  Te  Te91  1  0.73848706  0.05256523  0.40596851  1
  Te  Te92  1  0.75839383  0.09033444  0.72552635  1
  Te  Te93  1  0.74762951  0.40777390  0.09262753  1
  Te  Te94  1  0.76140300  0.39971295  0.45209784  1
  Te  Te95  1  0.74900191  0.42923815  0.76094457  1
  Te  Te96  1  0.77016351  0.76583658  0.08250829  1
  Te  Te97  1  0.74228821  0.74770483  0.41168093  1
  Te  Te98  1  0.74881255  0.74160890  0.76754659  1
  Te  Te99  1  0.08158231  0.26076091  0.22849524  1
  Te  Te100  1  0.05808692  0.28820405  0.57927479  1
  Te  Te101  1  0.13427485  0.24994549  0.93461128  1
  Te  Te102  1  0.07917875  0.59762581  0.24800721  1
  Te  Te103  1  0.07628543  0.57063061  0.58505703  1
  Te  Te104  1  0.10456197  0.56768358  0.94478007  1
  Te  Te105  1  0.07533738  0.93780317  0.27366166  1
  Te  Te106  1  0.06989078  0.93293552  0.58266712  1
  Te  Te107  1  0.08818963  0.91218283  0.90952401  1
  Te  Te108  1  0.37575195  0.26881505  0.21603903  1
  Te  Te109  1  0.40465222  0.24433177  0.57901018  1
  Te  Te110  1  0.38013495  0.27717398  0.93221425  1
  Te  Te111  1  0.43466349  0.60013106  0.26670471  1
  Te  Te112  1  0.40525176  0.57471025  0.55682681  1
  Te  Te113  1  0.42376473  0.57531203  0.88820975  1
  Te  Te114  1  0.43975889  0.89610248  0.23825448  1
  Te  Te115  1  0.42690610  0.88700443  0.53128973  1
  Te  Te116  1  0.39354597  0.93534637  0.91937194  1
  Te  Te117  1  0.75409974  0.24105246  0.25155057  1
  Te  Te118  1  0.74831792  0.20308682  0.59269413  1
  Te  Te119  1  0.73697369  0.25356637  0.92746303  1
  Te  Te120  1  0.74548916  0.57126938  0.27932405  1
  Te  Te121  1  0.77976225  0.56372164  0.59724250  1
  Te  Te122  1  0.75450264  0.58756398  0.92114774  1
  Te  Te123  1  0.72668608  0.92616779  0.25687400  1
  Te  Te124  1  0.75567341  0.92524331  0.57089901  1
  Te  Te125  1  0.74160400  0.91825010  0.91282637  1
  Te  Te126  1  0.27340409  0.20551318  0.12266263  1
  Te  Te127  1  0.25931122  0.26651331  0.39186592  1
  Te  Te128  1  0.23569169  0.25207864  0.74347048  1
  Te  Te129  1  0.27163172  0.56503698  0.06940444  1
  Te  Te130  1  0.22016369  0.54251106  0.39726611  1
  Te  Te131  1  0.25542178  0.58710681  0.75181051  1
  Te  Te132  1  0.26175778  0.91849475  0.09409400  1
  Te  Te133  1  0.24890435  0.90475707  0.41861555  1
  Te  Te134  1  0.25976746  0.90797307  0.73117275  1
  Te  Te135  1  0.57137822  0.26415480  0.07393946  1
  Te  Te136  1  0.58359767  0.23929878  0.41965193  1
  Te  Te137  1  0.58472874  0.26241232  0.76088370  1
  Te  Te138  1  0.59769157  0.58202168  0.07489541  1
  Te  Te139  1  0.59684274  0.58398103  0.43287978  1
  Te  Te140  1  0.57817910  0.57851915  0.72587468  1
  Te  Te141  1  0.56895392  0.91273128  0.07007708  1
  Te  Te142  1  0.53864837  0.89409048  0.41944593  1
  Te  Te143  1  0.58314188  0.93360274  0.72399184  1
  Te  Te144  1  0.92515302  0.24202483  0.07139446  1
  Te  Te145  1  0.93485860  0.26746961  0.41880049  1
  Te  Te146  1  0.92618740  0.23504659  0.74060554  1
  Te  Te147  1  0.92568315  0.59482316  0.08905190  1
  Te  Te148  1  0.92107706  0.56674233  0.43652562  1
  Te  Te149  1  0.91294825  0.59296650  0.76335595  1
  Te  Te150  1  0.92385525  0.94022855  0.06720763  1
  Te  Te151  1  0.92456713  0.90522084  0.43319414  1
  Te  Te152  1  0.92590984  0.91838257  0.73619875  1
  Te  Te153  1  0.26082705  0.05857025  0.26455597  1
  Te  Te154  1  0.24761512  0.07911297  0.59461663  1
  Te  Te155  1  0.27073676  0.06080894  0.92312335  1
  Te  Te156  1  0.23474108  0.44614882  0.26270157  1
  Te  Te157  1  0.26370982  0.41692293  0.57944516  1
  Te  Te158  1  0.23927132  0.46350584  0.95314339  1
  Te  Te159  1  0.26033502  0.71792200  0.26986257  1
  Te  Te160  1  0.25041953  0.74822794  0.57192021  1
  Te  Te161  1  0.26361219  0.72889574  0.92489110  1
  Te  Te162  1  0.57471973  0.09073758  0.25847288  1
  Te  Te163  1  0.57053666  0.04708946  0.59449129  1
  Te  Te164  1  0.57626657  0.08080213  0.91442884  1
  Te  Te165  1  0.57650216  0.39187885  0.25472652  1
  Te  Te166  1  0.56759838  0.41217926  0.60814256  1
  Te  Te167  1  0.58005382  0.41157462  0.93028838  1
  Te  Te168  1  0.59834581  0.73035679  0.24707619  1
  Te  Te169  1  0.58454571  0.75713455  0.59577512  1
  Te  Te170  1  0.56589516  0.77316677  0.92699711  1
  Te  Te171  1  0.90756093  0.08823465  0.24815204  1
  Te  Te172  1  0.90221150  0.11384130  0.52208596  1
  Te  Te173  1  0.92026442  0.08937142  0.89687492  1
  Te  Te174  1  0.89470726  0.43658774  0.26731004  1
  Te  Te175  1  0.84330600  0.32235348  0.62822213  1
  Te  Te176  1  0.91132235  0.40454461  0.91593735  1
  Te  Te177  1  0.91283465  0.75365087  0.24933803  1
  Te  Te178  1  0.92251648  0.75724307  0.58660884  1
  Te  Te179  1  0.91846825  0.74697060  0.92060536  1
