# generated using pymatgen
data_In2Te3
_symmetry_space_group_name_H-M   'P 1'
_cell_length_a   18.74271346
_cell_length_b   18.75212396
_cell_length_c   18.74690195
_cell_angle_alpha   89.96347951
_cell_angle_beta   90.12475803
_cell_angle_gamma   89.99220777
_symmetry_Int_Tables_number   1
_chemical_formula_structural   In2Te3
_chemical_formula_sum   'In72 Te108'
_cell_volume   6588.87573627
_cell_formula_units_Z   36
loop_
 _symmetry_equiv_pos_site_id
 _symmetry_equiv_pos_as_xyz
  1  'x, y, z'
loop_
 _atom_site_type_symbol
 _atom_site_label
 _atom_site_symmetry_multiplicity
 _atom_site_fract_x
 _atom_site_fract_y
 _atom_site_fract_z
 _atom_site_occupancy
  In  In0  1  -0.00193240  0.33271325  0.34232312  1
  In  In1  1  0.68728643  0.30952957  0.65014872  1
  In  In2  1  0.51716730  0.84714108  0.67187973  1
  In  In3  1  0.31788327  -0.01424563  0.65800421  1
  In  In4  1  0.49909762  0.48452989  0.69820599  1
  In  In5  1  0.16562702  0.83771985  -0.01353591  1
  In  In6  1  0.33612018  0.66859753  0.64945161  1
  In  In7  1  0.32555247  -0.03367579  0.33284205  1
  In  In8  1  0.33732392  0.49798103  0.84154678  1
  In  In9  1  0.15149865  0.16796227  0.33870977  1
  In  In10  1  0.33613649  0.62056980  0.31701287  1
  In  In11  1  0.34095873  0.50636162  0.16802442  1
  In  In12  1  0.32528036  0.15336324  0.13139796  1
  In  In13  1  0.85899311  0.50598337  0.66545626  1
  In  In14  1  0.82265020  0.47421955  0.01919298  1
  In  In15  1  0.83168822  0.18393030  -0.00855520  1
  In  In16  1  0.68725598  0.00651688  0.33496983  1
  In  In17  1  -0.00388684  0.65217527  -0.01656430  1
  In  In18  1  0.51267148  0.33254379  0.18873716  1
  In  In19  1  0.66329443  -0.01771345  -0.01152902  1
  In  In20  1  -0.02825988  0.68352914  0.33174880  1
  In  In21  1  -0.01527657  0.18217972  0.51991096  1
  In  In22  1  0.01677670  -0.00531078  0.02482544  1
  In  In23  1  0.52571399  0.16505481  0.34482585  1
  In  In24  1  0.83966146  0.01418699  0.49613923  1
  In  In25  1  0.15736473  0.68063721  0.84045009  1
  In  In26  1  0.48576152  0.16514958  0.66714488  1
  In  In27  1  0.14784777  0.65574971  0.49522728  1
  In  In28  1  0.17897520  0.47260593  0.64529706  1
  In  In29  1  0.48398391  0.33880799  0.85436212  1
  In  In30  1  0.31587605  0.84800353  0.82822542  1
  In  In31  1  0.83286490  0.83139045  0.66592849  1
  In  In32  1  -0.00242535  0.15418197  0.15617057  1
  In  In33  1  0.48905005  0.66027917  0.50770250  1
  In  In34  1  0.48818528  0.19467625  0.00583829  1
  In  In35  1  0.84051171  0.66140363  0.81139549  1
  In  In36  1  0.17614175  0.64861262  0.15061354  1
  In  In37  1  0.66557617  0.32918107  0.34117704  1
  In  In38  1  0.49551343  0.47446641  0.31406880  1
  In  In39  1  0.82674352  0.51665027  0.33580589  1
  In  In40  1  0.68718865  0.17086026  0.83439523  1
  In  In41  1  0.17374160  0.19287714  0.69124980  1
  In  In42  1  -0.00287818  0.34467964  0.67673312  1
  In  In43  1  0.33893978  0.82316711  0.14343299  1
  In  In44  1  0.50593768  0.66028863  0.85169036  1
  In  In45  1  0.67083480  0.17216853  0.18536583  1
  In  In46  1  0.29714806  0.81587539  0.49638065  1
  In  In47  1  0.67375754  0.67694221  0.03050620  1
  In  In48  1  0.84635241  0.66824327  0.50835151  1
  In  In49  1  0.51107841  0.81636811  0.31460247  1
  In  In50  1  0.01372742  0.33301225  -0.00928153  1
  In  In51  1  0.82994457  -0.00393183  0.82591161  1
  In  In52  1  0.50299618  0.83414329  -0.00187012  1
  In  In53  1  0.16647666  0.82076085  0.35292764  1
  In  In54  1  0.85918789  0.33122794  0.83444339  1
  In  In55  1  0.67086245  0.83745823  0.49368838  1
  In  In56  1  0.00327025  0.49505639  0.16249457  1
  In  In57  1  0.50946869  0.02805727  0.52145697  1
  In  In58  1  -0.02173703  0.83630377  0.17664163  1
  In  In59  1  0.31548960  0.35088034  0.00041950  1
  In  In60  1  -0.00396264  0.83870359  0.84356487  1
  In  In61  1  0.83828373  -0.00661144  0.17584190  1
  In  In62  1  0.50409558  0.00657439  0.80621840  1
  In  In63  1  0.67260529  0.50333528  0.50881877  1
  In  In64  1  0.32892309  0.18270516  0.50531645  1
  In  In65  1  0.00418013  0.17306781  0.82086942  1
  In  In66  1  0.15716972  0.48093838  0.34603879  1
  In  In67  1  0.66746571  0.66552041  0.30892190  1
  In  In68  1  -0.01717127  -0.00107860  0.33959652  1
  In  In69  1  0.33005308  0.33760480  0.33456067  1
  In  In70  1  0.15451479  0.01512310  0.14124677  1
  In  In71  1  0.65789618  0.49799538  0.83931387  1
  Te  Te72  1  0.10657153  0.12697229  0.03904904  1
  Te  Te73  1  0.07188829  0.08033009  0.43273934  1
  Te  Te74  1  0.08643467  0.08178161  0.73841280  1
  Te  Te75  1  0.09735909  0.42286135  0.07640563  1
  Te  Te76  1  0.06798259  0.41712580  0.44385605  1
  Te  Te77  1  0.11061279  0.40027079  0.75876688  1
  Te  Te78  1  0.08041282  0.75718096  0.08545019  1
  Te  Te79  1  0.05308440  0.76577725  0.43565890  1
  Te  Te80  1  0.05529827  0.73937170  0.74877642  1
  Te  Te81  1  0.43739974  0.07581006  0.07773220  1
  Te  Te82  1  0.40673037  0.07656595  0.41394686  1
  Te  Te83  1  0.38403699  0.08766371  0.75470898  1
  Te  Te84  1  0.42964396  0.41059394  0.08635642  1
  Te  Te85  1  0.41798540  0.41597620  0.42631956  1
  Te  Te86  1  0.38705141  0.38931645  0.74393198  1
  Te  Te87  1  0.42313703  0.72623045  0.06792944  1
  Te  Te88  1  0.40875598  0.74308546  0.40725222  1
  Te  Te89  1  0.41869587  0.75382678  0.74971314  1
  Te  Te90  1  0.75150710  0.08434213  0.07761878  1
  Te  Te91  1  0.74157341  0.11069690  0.42725056  1
  Te  Te92  1  0.76349606  0.09418655  0.73515586  1
  Te  Te93  1  0.71492167  0.39470565  0.07765578  1
  Te  Te94  1  0.76360308  0.41243516  0.42997739  1
  Te  Te95  1  0.75366389  0.41680352  0.74857168  1
  Te  Te96  1  0.76334948  0.75710351  0.11619592  1
  Te  Te97  1  0.75593417  0.74359406  0.40880897  1
  Te  Te98  1  0.74041447  0.75042566  0.74905388  1
  Te  Te99  1  0.08123088  0.25533205  0.23576535  1
  Te  Te100  1  0.09438896  0.26813353  0.58445929  1
  Te  Te101  1  0.10034580  0.26704042  0.88715028  1
  Te  Te102  1  0.08527871  0.59813363  0.26399513  1
  Te  Te103  1  0.07913583  0.57092090  0.59452860  1
  Te  Te104  1  0.10326424  0.57025105  0.92548410  1
  Te  Te105  1  0.08973407  0.91728386  0.24838784  1
  Te  Te106  1  0.14969633  0.89416584  0.58679519  1
  Te  Te107  1  0.09684250  0.94445721  0.90108165  1
  Te  Te108  1  0.41259910  0.23509105  0.25351990  1
  Te  Te109  1  0.41664723  0.26870045  0.58661598  1
  Te  Te110  1  0.37425583  0.23259934  0.90823613  1
  Te  Te111  1  0.45951761  0.60014255  0.22523264  1
  Te  Te112  1  0.41125715  0.55284398  0.58395378  1
  Te  Te113  1  0.42872979  0.56748944  0.93640736  1
  Te  Te114  1  0.42564927  0.91537896  0.23042559  1
  Te  Te115  1  0.41421547  0.90333039  0.56937242  1
  Te  Te116  1  0.41835142  0.92848519  0.90699100  1
  Te  Te117  1  0.76638759  0.25403244  0.26130622  1
  Te  Te118  1  0.73526977  0.21390270  0.54852186  1
  Te  Te119  1  0.74100749  0.28501127  0.92129404  1
  Te  Te120  1  0.74284228  0.56880579  0.22404685  1
  Te  Te121  1  0.75022976  0.59485459  0.60207075  1
  Te  Te122  1  0.75215521  0.58452495  0.92452993  1
  Te  Te123  1  0.74765622  0.90220655  0.25006006  1
  Te  Te124  1  0.74394309  0.93113376  0.58625648  1
  Te  Te125  1  0.75582703  0.89911644  0.90977153  1
  Te  Te126  1  0.23684040  0.26371831  0.09206758  1
  Te  Te127  1  0.22832730  0.26760801  0.42534303  1
  Te  Te128  1  0.28389602  0.23897624  0.77825589  1
  Te  Te129  1  0.26020550  0.57042133  0.05987816  1
  Te  Te130  1  0.25693070  0.56387543  0.43369278  1
  Te  Te131  1  0.25110585  0.58973111  0.74920350  1
  Te  Te132  1  0.26513568  0.93679429  0.06287143  1
  Te  Te133  1  0.21777389  0.94076412  0.44020707  1
  Te  Te134  1  0.21282241  0.91365329  0.74073838  1
  Te  Te135  1  0.60503055  0.26368361  0.07928865  1
  Te  Te136  1  0.57652920  0.26312659  0.44115876  1
  Te  Te137  1  0.57873429  0.26013174  0.75969794  1
  Te  Te138  1  0.55476364  0.61773479  0.09762318  1
  Te  Te139  1  0.57997006  0.58066175  0.41170020  1
  Te  Te140  1  0.59182795  0.59737329  0.74130851  1
  Te  Te141  1  0.59065711  0.90869866  0.09373914  1
  Te  Te142  1  0.56906952  0.92291152  0.41492755  1
  Te  Te143  1  0.61374826  0.92532130  0.75119008  1
  Te  Te144  1  0.91461657  0.26573426  0.08897569  1
  Te  Te145  1  0.90308012  0.24069801  0.41069592  1
  Te  Te146  1  0.89884320  0.23339484  0.72616892  1
  Te  Te147  1  0.90628146  0.58586809  0.08744284  1
  Te  Te148  1  0.93418327  0.57102116  0.42975754  1
  Te  Te149  1  0.95255393  0.58355435  0.75162995  1
  Te  Te150  1  0.89968537  0.90718586  0.06395625  1
  Te  Te151  1  0.90078222  0.90378607  0.41588256  1
  Te  Te152  1  0.93392188  0.92769869  0.73541323  1
  Te  Te153  1  0.24893848  0.07935052  0.25647840  1
  Te  Te154  1  0.23676552  0.09356681  0.58564782  1
  Te  Te155  1  0.21850478  0.05633167  0.96273576  1
  Te  Te156  1  0.23922576  0.41278923  0.23739675  1
  Te  Te157  1  0.28717974  0.43427964  0.55428280  1
  Te  Te158  1  0.22498736  0.41664738  0.89974704  1
  Te  Te159  1  0.25776593  0.74545117  0.25248434  1
  Te  Te160  1  0.20939380  0.75554603  0.61002580  1
  Te  Te161  1  0.26915674  0.74200658  0.92819470  1
  Te  Te162  1  0.57711657  0.06628727  0.24161392  1
  Te  Te163  1  0.60777968  0.10173272  0.60428115  1
  Te  Te164  1  0.57835387  0.09694490  0.91455406  1
  Te  Te165  1  0.62161027  0.43507586  0.23291832  1
  Te  Te166  1  0.58531906  0.41026566  0.59213824  1
  Te  Te167  1  0.56804618  0.43067071  0.93624609  1
  Te  Te168  1  0.59975953  0.75746169  0.20780765  1
  Te  Te169  1  0.59058025  0.74306721  0.58505996  1
  Te  Te170  1  0.60373516  0.75855254  0.91172901  1
  Te  Te171  1  0.90083878  0.10313956  0.26302246  1
  Te  Te172  1  0.94051838  0.06217832  0.59576100  1
  Te  Te173  1  0.92301206  0.08123851  0.92502365  1
  Te  Te174  1  0.90675605  0.41664307  0.24846891  1
  Te  Te175  1  0.90359339  0.39923984  0.57432685  1
  Te  Te176  1  0.92943741  0.43856027  0.91383196  1
  Te  Te177  1  0.87452418  0.74003106  0.22983840  1
  Te  Te178  1  0.93541959  0.74894223  0.59522473  1
  Te  Te179  1  0.89926816  0.75218103  0.92369874  1
