# generated using pymatgen
data_In2Te3
_symmetry_space_group_name_H-M   'P 1'
_cell_length_a   18.75379690
_cell_length_b   18.75073997
_cell_length_c   18.74321436
_cell_angle_alpha   90.00538181
_cell_angle_beta   89.99458450
_cell_angle_gamma   90.01124185
_symmetry_Int_Tables_number   1
_chemical_formula_structural   In2Te3
_chemical_formula_sum   'In72 Te108'
_cell_volume   6591.00558071
_cell_formula_units_Z   36
loop_
 _symmetry_equiv_pos_site_id
 _symmetry_equiv_pos_as_xyz
  1  'x, y, z'
loop_
 _atom_site_type_symbol
 _atom_site_label
 _atom_site_symmetry_multiplicity
 _atom_site_fract_x
 _atom_site_fract_y
 _atom_site_fract_z
 _atom_site_occupancy
  In  In0  1  0.00805632  0.64832394  0.68043720  1
  In  In1  1  0.84953743  0.15480528  0.32856255  1
  In  In2  1  0.82732762  0.63608613  0.49826145  1
  In  In3  1  0.18228900  0.49758839  0.69530041  1
  In  In4  1  0.84630665  0.66774317  0.83218186  1
  In  In5  1  0.32454984  0.18035294  0.17279323  1
  In  In6  1  0.16946286  0.01696629  0.49040716  1
  In  In7  1  0.13336303  -0.01684438  0.17931160  1
  In  In8  1  0.16721614  0.81845287  0.67476368  1
  In  In9  1  0.47857292  0.01887683  0.51245044  1
  In  In10  1  0.85116550  0.18242469  -0.00775998  1
  In  In11  1  0.15307007  0.67557896  0.51321322  1
  In  In12  1  0.45910346  0.35791388  0.12977521  1
  In  In13  1  0.84114565  0.50863321  0.00368582  1
  In  In14  1  0.15938940  0.48312840  0.34048719  1
  In  In15  1  0.32194962  0.01102461  0.00460334  1
  In  In16  1  0.67018165  0.35846598  0.36173978  1
  In  In17  1  0.86831413  -0.02461559  0.14971237  1
  In  In18  1  0.49397409  0.65800494  0.53795854  1
  In  In19  1  0.65306769  0.15031353  0.16790507  1
  In  In20  1  -0.00228659  0.83300700  0.85720240  1
  In  In21  1  0.49399748  0.84504222  0.33893681  1
  In  In22  1  0.49073692  0.18232149  -0.02896620  1
  In  In23  1  0.80969749  0.51188022  0.34631788  1
  In  In24  1  -0.02433059  0.67748271  0.32236854  1
  In  In25  1  0.69581445  0.79782734  0.13508659  1
  In  In26  1  0.49021363  0.18916218  0.68308285  1
  In  In27  1  0.29421694  0.30361893  0.34941465  1
  In  In28  1  0.00749181  0.01893930  0.67039784  1
  In  In29  1  0.31356081  0.00231908  0.65473719  1
  In  In30  1  0.32895798  0.82613856  0.84390321  1
  In  In31  1  0.32764603  0.66974807  0.31035557  1
  In  In32  1  0.66890972  0.49645535  0.53335393  1
  In  In33  1  0.66004212  0.54259266  0.16402600  1
  In  In34  1  0.15868674  0.84392012  -0.00975045  1
  In  In35  1  0.84052835  0.33690175  0.84056691  1
  In  In36  1  0.67074676  0.33608793  -0.02535816  1
  In  In37  1  0.33783144  0.35673590  0.69058050  1
  In  In38  1  -0.00291769  0.33205985  -0.00927992  1
  In  In39  1  0.32772827  0.18798781  0.82694098  1
  In  In40  1  0.33376529  0.01047042  0.34367414  1
  In  In41  1  0.49910769  0.50579782  0.33077044  1
  In  In42  1  0.68264549  0.65216975  0.31694675  1
  In  In43  1  -0.00414788  0.83127168  0.47785023  1
  In  In44  1  0.17023484  0.33690690  0.15542599  1
  In  In45  1  0.66522786  0.00267590  0.32292074  1
  In  In46  1  0.68211287  0.83507563  0.53338184  1
  In  In47  1  0.34318390  0.64112723  -0.01106862  1
  In  In48  1  0.01309764  0.16717023  0.51001126  1
  In  In49  1  0.17392040  0.67073274  0.13942114  1
  In  In50  1  0.84816816  -0.03456608  0.50979781  1
  In  In51  1  0.81699994  0.01415818  0.82336056  1
  In  In52  1  0.02440111  0.31740561  0.34097583  1
  In  In53  1  0.50625601  0.66839637  0.82909519  1
  In  In54  1  0.81907515  0.81837562  0.67161387  1
  In  In55  1  0.66024506  0.49965289  0.82468298  1
  In  In56  1  0.33903138  0.50636940  0.52161623  1
  In  In57  1  0.32076005  0.83683294  0.51169897  1
  In  In58  1  0.86029527  0.83332763  0.33272009  1
  In  In59  1  0.83954865  0.31881786  0.16413466  1
  In  In60  1  0.67290792  0.17443612  0.51935606  1
  In  In61  1  0.50112443  0.66415750  0.14498450  1
  In  In62  1  0.49041199  0.80496578  -0.01230210  1
  In  In63  1  0.65934369  0.33172568  0.67295131  1
  In  In64  1  0.50372566  -0.01109189  0.17823663  1
  In  In65  1  -0.01255666  0.34873877  0.65133710  1
  In  In66  1  0.01128585  0.16306017  0.83439017  1
  In  In67  1  0.50921632  0.33928738  0.50883541  1
  In  In68  1  0.66856974  -0.00249784  -0.01334000  1
  In  In69  1  -0.01055271  0.49763642  0.16303184  1
  In  In70  1  0.15859815  0.16272933  0.01588030  1
  In  In71  1  0.53127668  -0.02439408  0.80621809  1
  Te  Te72  1  0.06796903  0.05778854  0.06724245  1
  Te  Te73  1  0.08619812  0.09878056  0.39894329  1
  Te  Te74  1  0.10836355  0.10058324  0.73900053  1
  Te  Te75  1  0.08792280  0.43007965  0.06674612  1
  Te  Te76  1  0.09489225  0.39863184  0.44236310  1
  Te  Te77  1  0.07385626  0.41338888  0.75924369  1
  Te  Te78  1  0.06861358  0.76335667  0.08161078  1
  Te  Te79  1  0.09343679  0.74913025  0.39385293  1
  Te  Te80  1  0.08746048  0.73612385  0.77613429  1
  Te  Te81  1  0.42930143  0.09144131  0.08427510  1
  Te  Te82  1  0.40501938  0.11245795  0.42459795  1
  Te  Te83  1  0.41156050  0.07240602  0.75552588  1
  Te  Te84  1  0.37132623  0.44213637  0.04627157  1
  Te  Te85  1  0.41092173  0.41283821  0.41420926  1
  Te  Te86  1  0.41947503  0.42039798  0.79799009  1
  Te  Te87  1  0.39253869  0.75541450  0.09067412  1
  Te  Te88  1  0.42033855  0.74070557  0.42375757  1
  Te  Te89  1  0.41210148  0.75279950  0.74809257  1
  Te  Te90  1  0.76057488  0.08455264  0.08136316  1
  Te  Te91  1  0.75505953  0.07072242  0.42647122  1
  Te  Te92  1  0.73456350  0.07583523  0.71960296  1
  Te  Te93  1  0.74807988  0.41278627  0.08494695  1
  Te  Te94  1  0.77692328  0.40744236  0.46553346  1
  Te  Te95  1  0.76403094  0.42360398  0.74173436  1
  Te  Te96  1  0.77386011  0.71873684  0.04040171  1
  Te  Te97  1  0.75066960  0.75621646  0.41639665  1
  Te  Te98  1  0.73427422  0.74876485  0.77238191  1
  Te  Te99  1  0.10214527  0.23834167  0.24355624  1
  Te  Te100  1  0.09075396  0.25148570  0.60349722  1
  Te  Te101  1  0.10337250  0.26194150  0.90913281  1
  Te  Te102  1  0.08816472  0.58426288  0.24934329  1
  Te  Te103  1  0.08590769  0.56133754  0.58333298  1
  Te  Te104  1  0.14041782  0.53422232  0.86053020  1
  Te  Te105  1  0.04503818  0.90680701  0.27108822  1
  Te  Te106  1  0.08671161  0.90908958  0.57901856  1
  Te  Te107  1  0.08529299  0.94182347  0.90655654  1
  Te  Te108  1  0.41657378  0.27266247  0.25061332  1
  Te  Te109  1  0.40322589  0.25906836  0.58175116  1
  Te  Te110  1  0.40134895  0.28690010  0.91302263  1
  Te  Te111  1  0.40931811  0.57104085  0.22699870  1
  Te  Te112  1  0.41211180  0.57571300  0.62984403  1
  Te  Te113  1  0.40948384  0.55706382  0.87913024  1
  Te  Te114  1  0.39356636  0.90686083  0.24351060  1
  Te  Te115  1  0.42172213  0.90758207  0.60085689  1
  Te  Te116  1  0.42663362  0.93119696  0.92235807  1
  Te  Te117  1  0.73981542  0.24756000  0.25847607  1
  Te  Te118  1  0.76476154  0.25672631  0.59926562  1
  Te  Te119  1  0.74385162  0.22871818  0.89446037  1
  Te  Te120  1  0.78880835  0.60112178  0.22185801  1
  Te  Te121  1  0.73786184  0.60290370  0.61012616  1
  Te  Te122  1  0.73906821  0.58786461  0.92287635  1
  Te  Te123  1  0.74993764  0.90930786  0.23850531  1
  Te  Te124  1  0.73890115  0.95181896  0.62340389  1
  Te  Te125  1  0.75545017  0.90915948  0.90714388  1
  Te  Te126  1  0.26591263  0.26324485  0.05993155  1
  Te  Te127  1  0.23700859  0.20176659  0.43906228  1
  Te  Te128  1  0.23204606  0.26871495  0.74794211  1
  Te  Te129  1  0.25170359  0.55519405  0.07974477  1
  Te  Te130  1  0.25326499  0.58783638  0.41987182  1
  Te  Te131  1  0.25210326  0.59788227  0.78029601  1
  Te  Te132  1  0.24753207  0.91488661  0.09302438  1
  Te  Te133  1  0.23818516  0.90689214  0.40668075  1
  Te  Te134  1  0.23870834  0.92157445  0.76155531  1
  Te  Te135  1  0.58130270  0.25507156  0.08137874  1
  Te  Te136  1  0.58267353  0.24364443  0.41558889  1
  Te  Te137  1  0.57918958  0.26100629  0.77651382  1
  Te  Te138  1  0.57398380  0.57775972  0.05047545  1
  Te  Te139  1  0.58820113  0.58607177  0.42661718  1
  Te  Te140  1  0.58422052  0.58576877  0.72925147  1
  Te  Te141  1  0.58735401  0.90550596  0.08222475  1
  Te  Te142  1  0.58549436  0.92361390  0.43312136  1
  Te  Te143  1  0.59942065  0.87381066  0.72531684  1
  Te  Te144  1  0.94876736  0.23518793  0.09943100  1
  Te  Te145  1  0.91233018  0.25324927  0.42430048  1
  Te  Te146  1  0.91480798  0.24193859  0.74825109  1
  Te  Te147  1  0.94708678  0.59609344  0.06086989  1
  Te  Te148  1  0.93696708  0.56567361  0.41995031  1
  Te  Te149  1  0.91109331  0.56230629  0.75068473  1
  Te  Te150  1  0.94432865  0.87298896  0.07520988  1
  Te  Te151  1  0.94775660  0.95203666  0.38695125  1
  Te  Te152  1  0.92582411  0.90709744  0.74057310  1
  Te  Te153  1  0.23841834  0.08109403  0.24589566  1
  Te  Te154  1  0.25147671  0.11314238  0.57365899  1
  Te  Te155  1  0.23908425  0.08799578  0.90604047  1
  Te  Te156  1  0.26204252  0.41590895  0.25000816  1
  Te  Te157  1  0.24057151  0.40813752  0.57833473  1
  Te  Te158  1  0.25139722  0.46495539  0.93305651  1
  Te  Te159  1  0.23455461  0.75981607  0.24137909  1
  Te  Te160  1  0.26621600  0.72635509  0.60277356  1
  Te  Te161  1  0.23745007  0.73015707  0.92018907  1
  Te  Te162  1  0.55483400  0.09673284  0.27386101  1
  Te  Te163  1  0.57873051  0.08853318  0.60504157  1
  Te  Te164  1  0.58713780  0.08888272  0.89534249  1
  Te  Te165  1  0.59435293  0.42240093  0.24444109  1
  Te  Te166  1  0.55628633  0.43376332  0.61677699  1
  Te  Te167  1  0.56470204  0.40857550  0.89847345  1
  Te  Te168  1  0.58067915  0.75327545  0.25147000  1
  Te  Te169  1  0.57794957  0.76038319  0.61366897  1
  Te  Te170  1  0.60080846  0.76051775  0.90243731  1
  Te  Te171  1  0.93107252  0.08549234  0.22691701  1
  Te  Te172  1  0.90245663  0.08760604  0.58515163  1
  Te  Te173  1  0.92314386  0.06876238  0.91991951  1
  Te  Te174  1  0.90916073  0.41167244  0.26413339  1
  Te  Te175  1  0.89978529  0.42714037  0.56311400  1
  Te  Te176  1  0.93449316  0.44005951  0.90301808  1
  Te  Te177  1  0.92507877  0.76869303  0.21309440  1
  Te  Te178  1  0.92251479  0.74188390  0.57826076  1
  Te  Te179  1  0.89282978  0.76383434  0.94411857  1
