# generated using pymatgen
data_In2Te3
_symmetry_space_group_name_H-M   'P 1'
_cell_length_a   18.78911958
_cell_length_b   18.77427012
_cell_length_c   18.77856859
_cell_angle_alpha   90.04399132
_cell_angle_beta   89.96201400
_cell_angle_gamma   90.01873789
_symmetry_Int_Tables_number   1
_chemical_formula_structural   In2Te3
_chemical_formula_sum   'In72 Te108'
_cell_volume   6624.17398442
_cell_formula_units_Z   36
loop_
 _symmetry_equiv_pos_site_id
 _symmetry_equiv_pos_as_xyz
  1  'x, y, z'
loop_
 _atom_site_type_symbol
 _atom_site_label
 _atom_site_symmetry_multiplicity
 _atom_site_fract_x
 _atom_site_fract_y
 _atom_site_fract_z
 _atom_site_occupancy
  In  In0  1  0.14766639  0.34623986  0.85393933  1
  In  In1  1  0.84310579  0.66063819  0.48367951  1
  In  In2  1  0.30248107  0.35276904  0.66052465  1
  In  In3  1  0.00366253  0.68799185  0.00867521  1
  In  In4  1  0.35812669  0.17674744  0.49025158  1
  In  In5  1  0.83137434  0.46561426  0.65329515  1
  In  In6  1  0.67052335  0.01515080  0.02137136  1
  In  In7  1  0.31675713  0.50307606  0.84788606  1
  In  In8  1  0.18193666  0.51241648  0.33384781  1
  In  In9  1  0.31956396  0.16564862  0.88092254  1
  In  In10  1  0.64565871  0.67499870  0.65646662  1
  In  In11  1  0.81281551  0.19135102  0.32248041  1
  In  In12  1  0.16308171  0.15022765  0.30821265  1
  In  In13  1  0.19615040  0.69364740  0.82305694  1
  In  In14  1  0.83915641  0.67847748  0.16889713  1
  In  In15  1  0.82655824  0.01616243  0.16792938  1
  In  In16  1  0.66203763  0.00363721  0.33530468  1
  In  In17  1  0.14377152  0.01362062  0.83403934  1
  In  In18  1  0.00397027  0.17339407  0.16373428  1
  In  In19  1  0.82235968  0.00615126  0.83863836  1
  In  In20  1  0.14635744  0.82916815  0.65391790  1
  In  In21  1  0.49761101  0.50708341  0.66004958  1
  In  In22  1  0.65296116  0.67546101  0.02769573  1
  In  In23  1  0.19827552  0.68129545  0.18574996  1
  In  In24  1  0.67317929  0.01386825  0.66573160  1
  In  In25  1  -0.04090253  0.16367171  0.49447431  1
  In  In26  1  0.67426941  0.49011375  0.47880644  1
  In  In27  1  0.32882551  -0.00480460  0.29536661  1
  In  In28  1  0.48595387  0.13045155  0.02579239  1
  In  In29  1  -0.00098322  0.83217417  0.17665046  1
  In  In30  1  0.70790245  0.30581847  0.62734091  1
  In  In31  1  0.49541151  0.35292324  0.46064092  1
  In  In32  1  0.66162243  0.84125233  0.83703407  1
  In  In33  1  0.83451109  0.47400982  0.33069326  1
  In  In34  1  0.00694935  0.49930041  0.82977257  1
  In  In35  1  -0.01075376  0.01083818  -0.01380644  1
  In  In36  1  0.67858914  0.16517462  0.84299022  1
  In  In37  1  0.14851929  0.34291674  0.48854945  1
  In  In38  1  0.49690676  0.67983304  0.48269271  1
  In  In39  1  0.49882756  0.30903190  0.84671488  1
  In  In40  1  0.31241959  0.66448306  -0.00035849  1
  In  In41  1  0.49778332  0.15485507  0.66188378  1
  In  In42  1  0.83094798  0.86882527  0.66410721  1
  In  In43  1  0.52810183  0.16832246  0.32427884  1
  In  In44  1  0.48642397  0.48961513  0.02360982  1
  In  In45  1  0.49874825  0.85199944  0.02461619  1
  In  In46  1  0.01431592  0.82220679  0.48182397  1
  In  In47  1  -0.00524292  0.48548438  0.17958038  1
  In  In48  1  0.17471472  0.16880111  0.02883681  1
  In  In49  1  -0.05573717  0.28463837  0.66522242  1
  In  In50  1  0.34532800  0.82284469  0.46889810  1
  In  In51  1  0.01382461  -0.02100952  0.33759872  1
  In  In52  1  0.67990114  0.49038788  0.80147989  1
  In  In53  1  0.81334740  0.47247315  0.01496277  1
  In  In54  1  0.16274343  0.50664064  0.62243892  1
  In  In55  1  0.35008082  0.84936417  0.84475219  1
  In  In56  1  0.33817809  0.69701281  0.64463454  1
  In  In57  1  -0.01128529  0.31191069  0.00254368  1
  In  In58  1  0.02321543  0.66005012  0.65585891  1
  In  In59  1  0.16509943  0.51703561  0.02156827  1
  In  In60  1  0.52424678  -0.01107244  0.50213512  1
  In  In61  1  0.84260793  0.66913753  0.85057448  1
  In  In62  1  0.17960014  -0.02374685  0.50428068  1
  In  In63  1  0.14794354  0.15486988  0.69324199  1
  In  In64  1  0.66506148  0.68304619  0.31673149  1
  In  In65  1  0.33709413  0.34149343  0.31823209  1
  In  In66  1  0.66169256  0.32615403  0.00545337  1
  In  In67  1  0.33367961  0.02005645  0.68278250  1
  In  In68  1  0.51173867  0.33710882  0.18558653  1
  In  In69  1  0.49120422  0.65475444  0.18286858  1
  In  In70  1  0.84698546  0.84311332  0.33461261  1
  In  In71  1  0.49677652  0.82769781  0.67327538  1
  Te  Te72  1  0.08411498  0.06375980  0.09525821  1
  Te  Te73  1  0.09278407  0.08361108  0.42785053  1
  Te  Te74  1  0.03648126  0.07006817  0.74475666  1
  Te  Te75  1  0.08234475  0.40485820  0.08268290  1
  Te  Te76  1  0.07615714  0.41995175  0.38711877  1
  Te  Te77  1  0.09171516  0.41744235  0.73243147  1
  Te  Te78  1  0.10693887  0.76260982  0.08963515  1
  Te  Te79  1  0.10379900  0.72915861  0.41262500  1
  Te  Te80  1  0.06945388  0.75670206  0.76522142  1
  Te  Te81  1  0.38333362  0.05139468  0.10105149  1
  Te  Te82  1  0.42164594  0.06688473  0.40948499  1
  Te  Te83  1  0.42021596  0.09637438  0.77965203  1
  Te  Te84  1  0.40200433  0.40969565  0.11411781  1
  Te  Te85  1  0.41973620  0.45455874  0.37964926  1
  Te  Te86  1  0.41482221  0.41452984  0.75957187  1
  Te  Te87  1  0.40874127  0.74415033  0.08746343  1
  Te  Te88  1  0.41023921  0.72488600  0.36393682  1
  Te  Te89  1  0.41949247  0.73620950  0.76801215  1
  Te  Te90  1  0.76112041  0.11768385  0.08176674  1
  Te  Te91  1  0.75569424  0.08821880  0.41202626  1
  Te  Te92  1  0.77065887  0.11046632  0.73214889  1
  Te  Te93  1  0.73038572  0.40051744  0.11672621  1
  Te  Te94  1  0.76472788  0.38602434  0.42989477  1
  Te  Te95  1  0.76543148  0.37371709  0.75585153  1
  Te  Te96  1  0.76073470  0.76218922  0.07666860  1
  Te  Te97  1  0.74877545  0.76057167  0.41974734  1
  Te  Te98  1  0.74660211  0.74953162  0.74623640  1
  Te  Te99  1  0.09220392  0.26210710  0.24364401  1
  Te  Te100  1  0.08104386  0.24805975  0.59221772  1
  Te  Te101  1  0.08374284  0.22530785  0.91665410  1
  Te  Te102  1  0.08194108  0.59287882  0.23894633  1
  Te  Te103  1  0.04909631  0.56444283  0.54592244  1
  Te  Te104  1  0.10095657  0.59441832  0.90458364  1
  Te  Te105  1  0.10412820  0.91580551  0.24060417  1
  Te  Te106  1  0.05987294  0.93271138  0.58673742  1
  Te  Te107  1  0.08222190  0.91328642  0.92372064  1
  Te  Te108  1  0.41370239  0.23081396  0.24612723  1
  Te  Te109  1  0.42173839  0.27325729  0.59033161  1
  Te  Te110  1  0.41462730  0.25654037  0.96198432  1
  Te  Te111  1  0.40959299  0.57354551  0.27591000  1
  Te  Te112  1  0.40838685  0.58595351  0.56492136  1
  Te  Te113  1  0.41982114  0.58567973  0.92405006  1
  Te  Te114  1  0.42122301  0.90178929  0.22609710  1
  Te  Te115  1  0.39968106  0.91719985  0.58559998  1
  Te  Te116  1  0.42422785  0.94157800  0.93167994  1
  Te  Te117  1  0.70563865  0.27704909  0.24941350  1
  Te  Te118  1  0.81895591  0.22253026  0.55949195  1
  Te  Te119  1  0.76276426  0.25362412  0.92537146  1
  Te  Te120  1  0.75511830  0.58070009  0.24823293  1
  Te  Te121  1  0.74720590  0.58269791  0.58890601  1
  Te  Te122  1  0.73970641  0.57748801  0.91888812  1
  Te  Te123  1  0.74890672  0.90842038  0.24187158  1
  Te  Te124  1  0.73347844  0.92021261  0.56806036  1
  Te  Te125  1  0.75025141  0.91362461  0.93739048  1
  Te  Te126  1  0.26593474  0.27912390  0.05985406  1
  Te  Te127  1  0.24781816  0.24538578  0.41101242  1
  Te  Te128  1  0.25639389  0.24771099  0.76245096  1
  Te  Te129  1  0.27503537  0.56900981  0.11310350  1
  Te  Te130  1  0.22449542  0.63110567  0.41553973  1
  Te  Te131  1  0.25042668  0.58088957  0.73075399  1
  Te  Te132  1  0.29747360  0.92687908  0.14860420  1
  Te  Te133  1  0.23920559  0.90085198  0.38740271  1
  Te  Te134  1  0.24420372  0.91117167  0.74248881  1
  Te  Te135  1  0.57878163  0.23218328  0.09250310  1
  Te  Te136  1  0.59844658  0.25379541  0.42320352  1
  Te  Te137  1  0.59219265  0.25138779  0.73946759  1
  Te  Te138  1  0.59204217  0.56156483  0.10754193  1
  Te  Te139  1  0.58399754  0.58287836  0.40144748  1
  Te  Te140  1  0.57215283  0.59329841  0.76209267  1
  Te  Te141  1  0.58331593  0.93722461  0.11643489  1
  Te  Te142  1  0.56419177  0.90407923  0.38982501  1
  Te  Te143  1  0.57352712  0.93312717  0.75189155  1
  Te  Te144  1  0.89212456  0.24513922  0.09521311  1
  Te  Te145  1  0.93138501  0.25839324  0.38557919  1
  Te  Te146  1  0.93200889  0.20955882  0.78939112  1
  Te  Te147  1  0.91814372  0.57644005  0.06905120  1
  Te  Te148  1  0.92598458  0.56662314  0.40753220  1
  Te  Te149  1  0.90854672  0.57934136  0.74229573  1
  Te  Te150  1  0.91316872  0.91929695  0.08674655  1
  Te  Te151  1  0.91228488  0.93037513  0.44029106  1
  Te  Te152  1  0.92238056  0.92246883  0.76534346  1
  Te  Te153  1  0.26232965  0.10062936  0.20519860  1
  Te  Te154  1  0.25359571  0.09805809  0.57770495  1
  Te  Te155  1  0.24415936  0.05173209  0.94355146  1
  Te  Te156  1  0.23437829  0.41016991  0.23772471  1
  Te  Te157  1  0.26632348  0.43243405  0.53684532  1
  Te  Te158  1  0.25580885  0.40349481  0.94635724  1
  Te  Te159  1  0.27922668  0.75773167  0.28482616  1
  Te  Te160  1  0.22725850  0.74578067  0.55333140  1
  Te  Te161  1  0.24404575  0.78572484  0.93549458  1
  Te  Te162  1  0.58210718  0.06934991  0.22591752  1
  Te  Te163  1  0.60193095  0.10550245  0.56226510  1
  Te  Te164  1  0.57889910  0.07617683  0.91454627  1
  Te  Te165  1  0.61553201  0.39160727  0.27734276  1
  Te  Te166  1  0.59387922  0.41349680  0.58855635  1
  Te  Te167  1  0.58166824  0.42514144  0.90843277  1
  Te  Te168  1  0.58521761  0.76386133  0.22331087  1
  Te  Te169  1  0.58600337  0.77686023  0.56002143  1
  Te  Te170  1  0.57243365  0.75393979  0.92462227  1
  Te  Te171  1  0.92408201  0.08207043  0.26766539  1
  Te  Te172  1  0.88400863  0.08949348  0.59644649  1
  Te  Te173  1  0.90619457  0.11223126  0.91171190  1
  Te  Te174  1  0.90103024  0.38391859  0.23051258  1
  Te  Te175  1  0.93746730  0.40164670  0.57550614  1
  Te  Te176  1  0.91277094  0.41267304  0.91232999  1
  Te  Te177  1  0.93463338  0.73413655  0.27456516  1
  Te  Te178  1  0.91519207  0.75100894  0.58902618  1
  Te  Te179  1  0.91944363  0.77157397  0.92205718  1
