# generated using pymatgen
data_In2Te3
_symmetry_space_group_name_H-M   'P 1'
_cell_length_a   18.78305488
_cell_length_b   18.78098463
_cell_length_c   18.77699751
_cell_angle_alpha   89.92698188
_cell_angle_beta   89.98745851
_cell_angle_gamma   90.00890022
_symmetry_Int_Tables_number   1
_chemical_formula_structural   In2Te3
_chemical_formula_sum   'In72 Te108'
_cell_volume   6623.84811042
_cell_formula_units_Z   36
loop_
 _symmetry_equiv_pos_site_id
 _symmetry_equiv_pos_as_xyz
  1  'x, y, z'
loop_
 _atom_site_type_symbol
 _atom_site_label
 _atom_site_symmetry_multiplicity
 _atom_site_fract_x
 _atom_site_fract_y
 _atom_site_fract_z
 _atom_site_occupancy
  In  In0  1  0.67071846  0.15573300  0.16103006  1
  In  In1  1  0.35063887  0.49998569  0.20142264  1
  In  In2  1  0.00163071  0.30597601  -0.01672387  1
  In  In3  1  0.67383812  0.17817690  0.82516117  1
  In  In4  1  0.17785945  0.65015106  0.81444795  1
  In  In5  1  0.50800153  0.31945929  0.17030451  1
  In  In6  1  0.18018014  0.68781658  0.17248739  1
  In  In7  1  0.00932966  -0.00530461  0.32916062  1
  In  In8  1  0.00205833  0.66342394  0.65639925  1
  In  In9  1  0.64471007  0.50531084  0.81161026  1
  In  In10  1  0.19065476  0.85293659  0.66142916  1
  In  In11  1  0.34778578  0.14305717  0.14615278  1
  In  In12  1  0.35144936  0.51690191  0.50908629  1
  In  In13  1  0.84784018  0.67464144  0.17115531  1
  In  In14  1  0.49966777  0.50595163  0.35944892  1
  In  In15  1  0.84754865  0.82988647  0.66839279  1
  In  In16  1  0.15918101  0.86158818  0.00119680  1
  In  In17  1  -0.00841759  0.66761845  0.34862197  1
  In  In18  1  0.65665594  0.33219189  0.65042734  1
  In  In19  1  0.50092924  0.83631767  -0.00651710  1
  In  In20  1  0.48410741  0.33408831  0.82666814  1
  In  In21  1  0.49069538  0.83151698  0.34395821  1
  In  In22  1  0.16486139  0.16595472  0.33288770  1
  In  In23  1  0.18117126  0.02553823  0.53794265  1
  In  In24  1  0.67579137  0.84805176  0.16722876  1
  In  In25  1  0.83092428  0.32017813  0.84551044  1
  In  In26  1  -0.00880388  0.31138161  0.68075363  1
  In  In27  1  0.83733478  0.17687524  0.33630690  1
  In  In28  1  0.82230160  0.32435685  0.16052858  1
  In  In29  1  0.34294697  0.48333061  0.79908703  1
  In  In30  1  0.16392469  0.50659140  0.68304241  1
  In  In31  1  0.14994785  0.49437026  0.00894640  1
  In  In32  1  0.52182106  0.49061162  -0.00900841  1
  In  In33  1  -0.00557293  0.84748186  0.84309597  1
  In  In34  1  0.66747593  0.49191853  0.16207327  1
  In  In35  1  0.00356291  0.65640214  0.02135859  1
  In  In36  1  -0.00607700  0.50239296  0.51057667  1
  In  In37  1  0.82166372  0.48483915  0.35241764  1
  In  In38  1  0.67281121  0.17161501  0.49783757  1
  In  In39  1  0.65948218  0.00027309  0.68058528  1
  In  In40  1  0.18125077  0.49652881  0.35747794  1
  In  In41  1  0.17393758  0.16406056  -0.00312657  1
  In  In42  1  0.34733466  0.67927106  -0.00607901  1
  In  In43  1  -0.03014913  0.01803757  -0.01366724  1
  In  In44  1  -0.03874374  0.50939242  0.79374208  1
  In  In45  1  0.17542241  0.29883081  0.84546374  1
  In  In46  1  0.49854075  -0.01456787  0.50207193  1
  In  In47  1  0.33567898  0.00487623  0.33482990  1
  In  In48  1  0.65223581  0.67087924  0.35495432  1
  In  In49  1  0.64756798  0.64884790  -0.00569617  1
  In  In50  1  0.52543304  0.16547961  0.34019193  1
  In  In51  1  0.82924425  0.85491488  -0.01136860  1
  In  In52  1  0.35100053  0.82521997  0.50858377  1
  In  In53  1  0.32771550  0.31606259  0.00486464  1
  In  In54  1  0.33580901  0.85543261  0.82374908  1
  In  In55  1  -0.00746668  0.49562412  0.17093740  1
  In  In56  1  0.79667741  0.68444137  0.82510459  1
  In  In57  1  0.63876283  0.82686317  0.51240916  1
  In  In58  1  0.33610832  0.31608905  0.68632989  1
  In  In59  1  0.15306960  0.83558216  0.33867634  1
  In  In60  1  0.00713669  0.16929438  0.17361696  1
  In  In61  1  0.50414188  0.00248840  0.81881695  1
  In  In62  1  0.00951242  0.02281679  0.67323809  1
  In  In63  1  0.32479153  0.84643591  0.16803602  1
  In  In64  1  0.33070659  0.34923215  0.34230160  1
  In  In65  1  0.50816764  0.67450992  0.80926508  1
  In  In66  1  0.84787362  0.00925085  0.49846662  1
  In  In67  1  0.81115088  0.83355768  0.33997266  1
  In  In68  1  0.33591797  0.17445984  0.81650260  1
  In  In69  1  0.82588578  0.32385322  0.49759243  1
  In  In70  1  0.15436756  0.32928164  0.50910942  1
  In  In71  1  0.68269103  0.00644101  -0.01087747  1
  Te  Te72  1  0.08134181  0.07540227  0.08007820  1
  Te  Te73  1  0.08472377  0.08042660  0.43114435  1
  Te  Te74  1  0.11717305  0.09697942  0.74313850  1
  Te  Te75  1  0.07382673  0.39238653  0.09044969  1
  Te  Te76  1  0.06735035  0.41219832  0.41129346  1
  Te  Te77  1  0.08559930  0.40514103  0.76581447  1
  Te  Te78  1  0.07707242  0.76880578  0.09305032  1
  Te  Te79  1  0.08491666  0.74434846  0.43275919  1
  Te  Te80  1  0.08190419  0.75649236  0.75278479  1
  Te  Te81  1  0.40393213  0.04449434  0.05399531  1
  Te  Te82  1  0.41919213  0.09326865  0.42489057  1
  Te  Te83  1  0.41611721  0.08408217  0.72601149  1
  Te  Te84  1  0.41093197  0.42190913  0.08125135  1
  Te  Te85  1  0.42834097  0.40031617  0.44809105  1
  Te  Te86  1  0.45007182  0.42724136  0.70891113  1
  Te  Te87  1  0.42701999  0.75229494  0.09866420  1
  Te  Te88  1  0.44598491  0.72543516  0.44339575  1
  Te  Te89  1  0.41025421  0.76095254  0.73939575  1
  Te  Te90  1  0.77155952  0.07880594  0.08300755  1
  Te  Te91  1  0.74553087  0.07506486  0.40537311  1
  Te  Te92  1  0.75993081  0.08096177  0.75265835  1
  Te  Te93  1  0.74432801  0.41041598  0.06795953  1
  Te  Te94  1  0.71977367  0.40671270  0.42908492  1
  Te  Te95  1  0.75249807  0.41259476  0.74533203  1
  Te  Te96  1  0.74820961  0.74059915  0.07298727  1
  Te  Te97  1  0.75017959  0.74179886  0.44746144  1
  Te  Te98  1  0.72615930  0.75946102  0.71880843  1
  Te  Te99  1  0.07385842  0.26200797  0.26686874  1
  Te  Te100  1  0.05889962  0.23331586  0.57288670  1
  Te  Te101  1  0.06047512  0.19896307  0.88738658  1
  Te  Te102  1  0.08655773  0.58894831  0.24785965  1
  Te  Te103  1  0.10484911  0.58910431  0.56927979  1
  Te  Te104  1  0.07420972  0.57901100  0.90379174  1
  Te  Te105  1  0.10079911  0.92593418  0.23514440  1
  Te  Te106  1  0.07824617  0.91929121  0.58224185  1
  Te  Te107  1  0.08740927  0.95085331  0.90186785  1
  Te  Te108  1  0.40316145  0.24487508  0.25412516  1
  Te  Te109  1  0.39804139  0.21893583  0.59468155  1
  Te  Te110  1  0.42694575  0.23365675  0.92853735  1
  Te  Te111  1  0.42419541  0.60212118  0.27465309  1
  Te  Te112  1  0.43741993  0.61579943  0.57827267  1
  Te  Te113  1  0.42006504  0.57670214  0.90474293  1
  Te  Te114  1  0.43042321  0.93023189  0.24240731  1
  Te  Te115  1  0.42062291  0.91332202  0.60505656  1
  Te  Te116  1  0.40432105  0.93867285  0.93313468  1
  Te  Te117  1  0.73162176  0.25811217  0.26313749  1
  Te  Te118  1  0.76300208  0.23285522  0.60465764  1
  Te  Te119  1  0.74648237  0.24223389  0.93822010  1
  Te  Te120  1  0.75189515  0.59053910  0.25737577  1
  Te  Te121  1  0.76041596  0.51864925  0.62399280  1
  Te  Te122  1  0.74611512  0.56823479  0.91091722  1
  Te  Te123  1  0.76466373  0.93583705  0.24392732  1
  Te  Te124  1  0.74800857  0.92014440  0.57468075  1
  Te  Te125  1  0.74817158  0.91998365  0.88667264  1
  Te  Te126  1  0.23857663  0.24923060  0.10608002  1
  Te  Te127  1  0.25473820  0.24713218  0.42763962  1
  Te  Te128  1  0.21149843  0.21950610  0.71574507  1
  Te  Te129  1  0.25116976  0.58673480  0.07897952  1
  Te  Te130  1  0.26609944  0.59751614  0.41919609  1
  Te  Te131  1  0.28317106  0.59925384  0.71832989  1
  Te  Te132  1  0.26010044  0.94348185  0.07499477  1
  Te  Te133  1  0.24999037  0.92610091  0.43312431  1
  Te  Te134  1  0.24266303  0.95120218  0.75876507  1
  Te  Te135  1  0.57930959  0.23699564  0.07366721  1
  Te  Te136  1  0.57922830  0.26678734  0.43276390  1
  Te  Te137  1  0.56617113  0.24336654  0.73474996  1
  Te  Te138  1  0.56058819  0.58661039  0.10320135  1
  Te  Te139  1  0.59928333  0.57118748  0.45392457  1
  Te  Te140  1  0.60451951  0.61069917  0.71359714  1
  Te  Te141  1  0.58259436  0.93117613  0.08024972  1
  Te  Te142  1  0.59784104  0.92361157  0.40180907  1
  Te  Te143  1  0.57136544  0.89654979  0.74074003  1
  Te  Te144  1  0.90586400  0.22934084  0.07422442  1
  Te  Te145  1  0.93126775  0.24922577  0.42425472  1
  Te  Te146  1  0.90741896  0.21598526  0.76475332  1
  Te  Te147  1  0.89430767  0.56373622  0.07580575  1
  Te  Te148  1  0.89213790  0.59004262  0.43737955  1
  Te  Te149  1  0.86604985  0.59898232  0.70847190  1
  Te  Te150  1  0.92200031  0.91623046  0.08262937  1
  Te  Te151  1  0.92378655  0.90416360  0.41881560  1
  Te  Te152  1  0.90892584  0.93840351  0.75619653  1
  Te  Te153  1  0.24186393  0.07486628  0.23762759  1
  Te  Te154  1  0.29686956  0.10467921  0.59722059  1
  Te  Te155  1  0.26030173  0.08444299  0.90739848  1
  Te  Te156  1  0.23307241  0.41314166  0.24036712  1
  Te  Te157  1  0.25042368  0.41450166  0.59351100  1
  Te  Te158  1  0.25352647  0.42201015  0.91112145  1
  Te  Te159  1  0.26917434  0.75308451  0.27642336  1
  Te  Te160  1  0.24381385  0.74654901  0.57576628  1
  Te  Te161  1  0.23742164  0.75253010  0.91636017  1
  Te  Te162  1  0.57402726  0.07262005  0.23854765  1
  Te  Te163  1  0.57905629  0.08749712  0.58451619  1
  Te  Te164  1  0.57986172  0.09230819  0.91408488  1
  Te  Te165  1  0.58082955  0.41563861  0.26183735  1
  Te  Te166  1  0.62854999  0.45200823  0.56301930  1
  Te  Te167  1  0.59980895  0.39243646  0.90933049  1
  Te  Te168  1  0.58515939  0.75387166  0.24780851  1
  Te  Te169  1  0.54883180  0.72704015  0.57509086  1
  Te  Te170  1  0.59600768  0.75967327  0.90316089  1
  Te  Te171  1  0.90966581  0.07610634  0.24665895  1
  Te  Te172  1  0.92434574  0.10519461  0.58097237  1
  Te  Te173  1  0.91869652  0.11616576  0.88670433  1
  Te  Te174  1  0.91077207  0.40258700  0.26008445  1
  Te  Te175  1  0.90794896  0.41207806  0.59694641  1
  Te  Te176  1  0.92394982  0.41865178  0.91679176  1
  Te  Te177  1  0.92824989  0.77026288  0.25404791  1
  Te  Te178  1  0.92558157  0.75390842  0.56835189  1
  Te  Te179  1  0.91898500  0.73288981  0.91320037  1
