# generated using pymatgen
data_In2Te3
_symmetry_space_group_name_H-M   'P 1'
_cell_length_a   18.77082752
_cell_length_b   18.77458721
_cell_length_c   18.77445801
_cell_angle_alpha   90.03440280
_cell_angle_beta   89.98722578
_cell_angle_gamma   90.02189650
_symmetry_Int_Tables_number   1
_chemical_formula_structural   In2Te3
_chemical_formula_sum   'In72 Te108'
_cell_volume   6616.39011120
_cell_formula_units_Z   36
loop_
 _symmetry_equiv_pos_site_id
 _symmetry_equiv_pos_as_xyz
  1  'x, y, z'
loop_
 _atom_site_type_symbol
 _atom_site_label
 _atom_site_symmetry_multiplicity
 _atom_site_fract_x
 _atom_site_fract_y
 _atom_site_fract_z
 _atom_site_occupancy
  In  In0  1  0.49468000  0.18068264  0.33067886  1
  In  In1  1  0.84286361  0.84196002  0.32397442  1
  In  In2  1  0.32475470  0.49368899  0.81097532  1
  In  In3  1  0.67496552  0.17610903  0.83217785  1
  In  In4  1  0.49641660  0.84017581  0.01806272  1
  In  In5  1  0.64324366  0.33032440  0.65244285  1
  In  In6  1  0.01744446  0.34339262  0.66837524  1
  In  In7  1  -0.01277379  0.47945655  0.82805504  1
  In  In8  1  0.66967829  -0.02212140  0.65685963  1
  In  In9  1  0.01645129  0.17242100  0.47074827  1
  In  In10  1  0.00236370  0.48682456  0.15203353  1
  In  In11  1  0.83340872  0.32046199  0.15914898  1
  In  In12  1  -0.00646369  0.01813224  0.01964606  1
  In  In13  1  0.31266484  0.02170681  0.00636976  1
  In  In14  1  0.17016014  0.01310643  0.84155687  1
  In  In15  1  0.32000484  0.67105601  -0.01933592  1
  In  In16  1  0.34251619  0.83476947  0.82416443  1
  In  In17  1  0.64605643  0.46450615  0.19393442  1
  In  In18  1  0.32784239  0.84068405  0.49112334  1
  In  In19  1  0.69359710  0.14458395  0.15094645  1
  In  In20  1  0.66390059  0.67791985  0.33014142  1
  In  In21  1  0.82816204  0.34039077  0.86096234  1
  In  In22  1  0.34329012  0.49860580  0.17663571  1
  In  In23  1  -0.00894961  0.66212959  0.01416909  1
  In  In24  1  0.32757234  0.15476327  0.51011491  1
  In  In25  1  0.32297721  0.85836803  0.17475162  1
  In  In26  1  0.49911906  -0.00782434  0.17952407  1
  In  In27  1  0.50242722  0.48006679  0.00367542  1
  In  In28  1  0.34725820  0.49333939  0.49299500  1
  In  In29  1  0.49023031  0.17758693  0.01475978  1
  In  In30  1  0.32965680  -0.00093668  0.65669367  1
  In  In31  1  -0.02052225  0.69314247  0.63638116  1
  In  In32  1  0.84796441  0.85216591  0.00357040  1
  In  In33  1  0.67240118  0.67842247  0.67605248  1
  In  In34  1  0.01375407  0.17001616  0.17675723  1
  In  In35  1  0.83940515  0.50507936  0.32398848  1
  In  In36  1  0.82658346  0.50833912  0.67175948  1
  In  In37  1  0.02369863  0.50803527  0.48238952  1
  In  In38  1  0.31797834  0.30100077  0.03028182  1
  In  In39  1  0.66690615  0.48802849  0.51083236  1
  In  In40  1  0.66059529  0.16752366  0.46932470  1
  In  In41  1  0.67715731  0.84290317  0.17926188  1
  In  In42  1  0.48846385  0.66587424  0.49483711  1
  In  In43  1  0.17359659  0.67535734  0.81857730  1
  In  In44  1  0.65391343  0.51306407  0.85216326  1
  In  In45  1  -0.00093730  0.83872036  0.82920553  1
  In  In46  1  0.17936705  0.47409968  0.35388757  1
  In  In47  1  0.15078564  0.68284026  0.17454535  1
  In  In48  1  0.50853549  0.65231185  0.18334966  1
  In  In49  1  0.15144892  0.48365167  0.00577263  1
  In  In50  1  0.69343602  0.66853037  -0.01382426  1
  In  In51  1  0.51431401  0.01098212  0.81489016  1
  In  In52  1  0.17125495  0.31439259  0.83601145  1
  In  In53  1  0.32647074  0.32426364  0.31858179  1
  In  In54  1  0.46956709  0.16311272  0.65382978  1
  In  In55  1  0.01409062  0.15888849  0.85585787  1
  In  In56  1  0.49757066  0.00642841  0.48062821  1
  In  In57  1  0.83842692  0.15798250  0.67671030  1
  In  In58  1  0.50530855  0.66909665  0.80861045  1
  In  In59  1  0.66740170  0.32185064  0.00835525  1
  In  In60  1  0.17393597  0.66659335  0.51296881  1
  In  In61  1  0.81965929  -0.00410971  0.49953422  1
  In  In62  1  0.01209925  0.02001306  0.32399792  1
  In  In63  1  -0.00081607  0.83633295  0.18416370  1
  In  In64  1  0.18077412  0.32717591  0.49350860  1
  In  In65  1  0.00993157  -0.03231314  0.65470041  1
  In  In66  1  0.17289857  0.83566515  0.34412209  1
  In  In67  1  0.85170284  0.31820968  0.47834986  1
  In  In68  1  0.33016428  0.33332276  0.66501127  1
  In  In69  1  0.01405554  0.67972704  0.35008625  1
  In  In70  1  0.69045879  0.84672295  0.83807538  1
  In  In71  1  0.66672630  0.84605912  0.49599760  1
  Te  Te72  1  0.11088103  0.09544685  0.07864014  1
  Te  Te73  1  0.10983131  0.06151235  0.43142534  1
  Te  Te74  1  0.07626571  0.08148054  0.74118435  1
  Te  Te75  1  0.08082499  0.37956188  0.08406298  1
  Te  Te76  1  0.06578294  0.38502058  0.40633249  1
  Te  Te77  1  0.11067798  0.42955960  0.75396040  1
  Te  Te78  1  0.08162393  0.77072420  0.07181281  1
  Te  Te79  1  0.07436765  0.77929916  0.45191615  1
  Te  Te80  1  0.08416963  0.76132555  0.72876367  1
  Te  Te81  1  0.40413197  0.08956888  0.10875569  1
  Te  Te82  1  0.39626613  0.07938342  0.39514164  1
  Te  Te83  1  0.39445662  0.08926661  0.76430420  1
  Te  Te84  1  0.42447244  0.39494771  0.10012956  1
  Te  Te85  1  0.42459094  0.42157307  0.38264191  1
  Te  Te86  1  0.42643891  0.40796128  0.74938532  1
  Te  Te87  1  0.40854055  0.73791336  0.08899617  1
  Te  Te88  1  0.42301112  0.76533313  0.40604157  1
  Te  Te89  1  0.40681661  0.74319683  0.72744451  1
  Te  Te90  1  0.75379257  0.06244875  0.04444121  1
  Te  Te91  1  0.76485688  0.09047597  0.39910228  1
  Te  Te92  1  0.74844508  0.06444199  0.75692380  1
  Te  Te93  1  0.74671748  0.42644092  0.08379347  1
  Te  Te94  1  0.75225406  0.41081699  0.40762250  1
  Te  Te95  1  0.74426186  0.40424692  0.74910338  1
  Te  Te96  1  0.76479377  0.75484281  0.08998584  1
  Te  Te97  1  0.76165662  0.75248144  0.42061891  1
  Te  Te98  1  0.76732848  0.74109672  0.77041951  1
  Te  Te99  1  0.11829627  0.22578803  0.27032051  1
  Te  Te100  1  0.09459335  0.24203297  0.58801456  1
  Te  Te101  1  0.07270057  0.26906751  0.93663160  1
  Te  Te102  1  0.08652579  0.57443675  0.26223298  1
  Te  Te103  1  0.08249658  0.58037966  0.60035577  1
  Te  Te104  1  0.08676523  0.58779565  0.91284048  1
  Te  Te105  1  0.10574485  0.92756999  0.24075001  1
  Te  Te106  1  0.09409439  0.87778998  0.57406086  1
  Te  Te107  1  0.07695438  0.92676789  0.92619916  1
  Te  Te108  1  0.40167507  0.23435422  0.22677039  1
  Te  Te109  1  0.42178680  0.26557846  0.55339966  1
  Te  Te110  1  0.40582551  0.25422805  0.92088953  1
  Te  Te111  1  0.41367913  0.58463025  0.27378773  1
  Te  Te112  1  0.41226924  0.58254468  0.59168483  1
  Te  Te113  1  0.42648765  0.58267451  0.91548015  1
  Te  Te114  1  0.41212637  0.91792362  0.27479053  1
  Te  Te115  1  0.43464720  0.91743810  0.58476251  1
  Te  Te116  1  0.42014197  0.92997636  0.92058308  1
  Te  Te117  1  0.73688735  0.24971499  0.24619809  1
  Te  Te118  1  0.75383766  0.24625829  0.58097579  1
  Te  Te119  1  0.76841240  0.22623564  0.94325933  1
  Te  Te120  1  0.73803961  0.58102708  0.23814301  1
  Te  Te121  1  0.75406981  0.59799445  0.57293158  1
  Te  Te122  1  0.77476241  0.57141268  0.91043091  1
  Te  Te123  1  0.75221280  0.94062223  0.26096605  1
  Te  Te124  1  0.78296182  0.88403625  0.60898489  1
  Te  Te125  1  0.74515763  0.94488901  0.93908518  1
  Te  Te126  1  0.22195839  0.21832212  0.11034516  1
  Te  Te127  1  0.24139723  0.22425623  0.39877804  1
  Te  Te128  1  0.24677977  0.23517667  0.73775539  1
  Te  Te129  1  0.24280390  0.58713044  0.08594924  1
  Te  Te130  1  0.25799677  0.59130858  0.41070809  1
  Te  Te131  1  0.27108169  0.60566678  0.73160012  1
  Te  Te132  1  0.23340454  0.91692631  0.07520633  1
  Te  Te133  1  0.24060263  0.94296272  0.42353268  1
  Te  Te134  1  0.23820514  0.91419995  0.74582825  1
  Te  Te135  1  0.58361226  0.25024919  0.11111400  1
  Te  Te136  1  0.58437814  0.27743580  0.40423610  1
  Te  Te137  1  0.56486962  0.24092970  0.74848711  1
  Te  Te138  1  0.59169688  0.58195991  0.07566556  1
  Te  Te139  1  0.58634784  0.57814319  0.41357234  1
  Te  Te140  1  0.58240545  0.56421066  0.72842730  1
  Te  Te141  1  0.59932894  0.93184616  0.07976353  1
  Te  Te142  1  0.60161434  0.93788010  0.40113776  1
  Te  Te143  1  0.57728572  0.89283703  0.74390854  1
  Te  Te144  1  0.92237354  0.23503472  0.07742972  1
  Te  Te145  1  0.90933988  0.22316081  0.38023337  1
  Te  Te146  1  0.92023538  0.26144423  0.75648061  1
  Te  Te147  1  0.90221930  0.57948482  0.09663270  1
  Te  Te148  1  0.91156491  0.59361569  0.42706999  1
  Te  Te149  1  0.92690680  0.59338807  0.74772195  1
  Te  Te150  1  0.90606157  0.93701199  0.11736203  1
  Te  Te151  1  0.92871693  0.92571265  0.41728844  1
  Te  Te152  1  0.90938853  0.93053845  0.75553485  1
  Te  Te153  1  0.19940212  0.10875460  0.21937749  1
  Te  Te154  1  0.22606312  0.07369074  0.58104474  1
  Te  Te155  1  0.24685633  0.11749483  0.91478842  1
  Te  Te156  1  0.23149699  0.40729007  0.22780371  1
  Te  Te157  1  0.24114607  0.43106630  0.58534428  1
  Te  Te158  1  0.26760199  0.41624534  0.93159366  1
  Te  Te159  1  0.26095383  0.74323428  0.25956064  1
  Te  Te160  1  0.25171689  0.76315996  0.59336583  1
  Te  Te161  1  0.23343155  0.77698395  0.91793337  1
  Te  Te162  1  0.59029063  0.08698891  0.25521044  1
  Te  Te163  1  0.59103034  0.08912798  0.58879929  1
  Te  Te164  1  0.58236513  0.09272537  0.92272178  1
  Te  Te165  1  0.54810887  0.40263461  0.28443466  1
  Te  Te166  1  0.55352340  0.41629720  0.57397173  1
  Te  Te167  1  0.57818218  0.39139047  0.90493768  1
  Te  Te168  1  0.56689110  0.77234271  0.25935024  1
  Te  Te169  1  0.58034968  0.75629087  0.58236102  1
  Te  Te170  1  0.57976318  0.75291746  0.92158737  1
  Te  Te171  1  0.90737344  0.08723118  0.24346577  1
  Te  Te172  1  0.92506493  0.08790184  0.57303010  1
  Te  Te173  1  0.90666850  0.07512532  0.91325324  1
  Te  Te174  1  0.92687094  0.40209351  0.25450792  1
  Te  Te175  1  0.91571460  0.41962145  0.57943647  1
  Te  Te176  1  0.92400854  0.41596915  0.94403304  1
  Te  Te177  1  0.91287420  0.72721420  0.24604943  1
  Te  Te178  1  0.88612332  0.77728299  0.55967677  1
  Te  Te179  1  0.91042989  0.74538930  0.91364651  1
