# generated using pymatgen
data_In2Te3
_symmetry_space_group_name_H-M   'P 1'
_cell_length_a   18.93821324
_cell_length_b   18.92508446
_cell_length_c   18.96316744
_cell_angle_alpha   89.98505555
_cell_angle_beta   90.10170604
_cell_angle_gamma   90.18759138
_symmetry_Int_Tables_number   1
_chemical_formula_structural   In2Te3
_chemical_formula_sum   'In72 Te108'
_cell_volume   6796.48999941
_cell_formula_units_Z   36
loop_
 _symmetry_equiv_pos_site_id
 _symmetry_equiv_pos_as_xyz
  1  'x, y, z'
loop_
 _atom_site_type_symbol
 _atom_site_label
 _atom_site_symmetry_multiplicity
 _atom_site_fract_x
 _atom_site_fract_y
 _atom_site_fract_z
 _atom_site_occupancy
  In  In0  1  0.81295763  0.65272807  0.83731144  1
  In  In1  1  0.14962279  0.65347751  0.50706544  1
  In  In2  1  -0.01397087  0.64353610  0.67460308  1
  In  In3  1  0.50618032  0.67935454  0.17068634  1
  In  In4  1  0.31493740  0.32974286  0.67594400  1
  In  In5  1  0.65844044  0.65839306  0.69271316  1
  In  In6  1  0.49584267  0.83185049  0.66947379  1
  In  In7  1  0.16551422  0.01470858  0.17314813  1
  In  In8  1  0.00739466  0.83970266  0.17896009  1
  In  In9  1  0.82994472  0.67926429  0.48673215  1
  In  In10  1  0.65693266  0.31893010  0.69167763  1
  In  In11  1  0.18178399  0.64085470  0.82618423  1
  In  In12  1  0.15721467  0.14344685  0.33832158  1
  In  In13  1  0.83689367  -0.00353883  0.82916647  1
  In  In14  1  0.64546016  -0.01916063  0.35443886  1
  In  In15  1  -0.01184065  0.66208062  0.00752462  1
  In  In16  1  -0.00871537  0.48730525  0.50121265  1
  In  In17  1  0.00078042  0.68281533  0.34336361  1
  In  In18  1  0.15749441  0.80596763  0.65474009  1
  In  In19  1  0.67565961  0.71635063  0.31838820  1
  In  In20  1  0.82683229  0.02584184  0.16566300  1
  In  In21  1  0.51481255  0.32344493  0.52812115  1
  In  In22  1  -0.01095118  0.02810089  -0.01954369  1
  In  In23  1  0.64898093  -0.01183470  0.64973590  1
  In  In24  1  0.51931103  0.80908600  -0.03311405  1
  In  In25  1  0.49587822  0.35485403  0.15406363  1
  In  In26  1  0.33320308  0.31665807  -0.00070948  1
  In  In27  1  0.49467781  0.48179282  -0.02396264  1
  In  In28  1  0.82932340  0.17909155  0.68288003  1
  In  In29  1  0.49118246  0.53424244  0.36628104  1
  In  In30  1  0.52909687  0.17526760  0.31126193  1
  In  In31  1  0.16632614  0.00889726  0.82714942  1
  In  In32  1  0.66471272  0.15248801  0.50859028  1
  In  In33  1  0.19902162  0.83279414  0.34486541  1
  In  In34  1  0.37243553  -0.01163903  0.30790368  1
  In  In35  1  0.50408082  0.66829887  0.51168624  1
  In  In36  1  0.33545934  0.47277536  0.83381131  1
  In  In37  1  0.83762609  0.32411652  0.83684740  1
  In  In38  1  0.64209510  0.17325493  0.84253947  1
  In  In39  1  -0.01013880  0.02279580  0.66145080  1
  In  In40  1  0.00055423  0.17179585  0.17222929  1
  In  In41  1  -0.01943572  -0.01150142  0.38197874  1
  In  In42  1  0.17743021  0.50119057  0.00420852  1
  In  In43  1  0.32792161  0.50358106  0.52184153  1
  In  In44  1  0.69030025  0.35010353  0.30819610  1
  In  In45  1  0.35519349  0.80638973  0.82869679  1
  In  In46  1  0.06287319  0.32656119  0.66966117  1
  In  In47  1  0.34796846  0.70405855  0.34320465  1
  In  In48  1  0.50378088  0.00910329  0.83069632  1
  In  In49  1  0.67076764  0.86336590  0.14002058  1
  In  In50  1  0.36652288  0.01899382  0.03219654  1
  In  In51  1  0.65577325  0.17159704  0.14719297  1
  In  In52  1  0.82896870  0.82945755  -0.00184556  1
  In  In53  1  0.83048755  0.33182624  0.15167856  1
  In  In54  1  0.66850740  0.49694621  0.15424708  1
  In  In55  1  0.19162987  0.32666357  0.15926735  1
  In  In56  1  0.83889654  0.84268459  0.63812575  1
  In  In57  1  0.33431547  0.16760388  0.84870788  1
  In  In58  1  0.82760104  0.46384698  0.30905717  1
  In  In59  1  0.30314216  0.00584465  0.65980009  1
  In  In60  1  0.01793095  0.51836079  0.14431001  1
  In  In61  1  0.14570160  0.48782426  0.35530829  1
  In  In62  1  0.32420118  0.83664339  0.50906152  1
  In  In63  1  0.13856282  0.02643039  0.50049956  1
  In  In64  1  0.01713185  0.28767743  -0.04155657  1
  In  In65  1  0.85675370  0.66478343  0.16199307  1
  In  In66  1  0.33649380  0.32369438  0.33455058  1
  In  In67  1  0.32788178  0.14565700  0.49413257  1
  In  In68  1  0.15999042  0.85973041  0.01107095  1
  In  In69  1  0.66533609  0.48698676  0.50363537  1
  In  In70  1  0.32238024  0.65922333  0.01497917  1
  In  In71  1  0.84295303  0.47948152  0.65960977  1
  Te  Te72  1  0.08875737  0.09804533  0.07248178  1
  Te  Te73  1  0.04174826  0.13189964  0.44446587  1
  Te  Te74  1  0.06244069  0.09960984  0.76951198  1
  Te  Te75  1  0.08502416  0.39764979  0.07368559  1
  Te  Te76  1  0.06128380  0.38522578  0.41847629  1
  Te  Te77  1  0.11737192  0.45057816  0.72892688  1
  Te  Te78  1  0.08547050  0.74900661  0.08794198  1
  Te  Te79  1  0.08916831  0.77054972  0.43028953  1
  Te  Te80  1  0.07761913  0.73199984  0.75885299  1
  Te  Te81  1  0.45943540  0.09006538  0.11872123  1
  Te  Te82  1  0.43537658  0.09267532  0.40006335  1
  Te  Te83  1  0.40437506  0.08288579  0.74231407  1
  Te  Te84  1  0.39123098  0.43318582  0.07968570  1
  Te  Te85  1  0.42392985  0.40969992  0.42766687  1
  Te  Te86  1  0.42724414  0.38229354  0.76039624  1
  Te  Te87  1  0.42167498  0.75953105  0.07231660  1
  Te  Te88  1  0.44950061  0.78658944  0.42464211  1
  Te  Te89  1  0.42937389  0.72016280  0.73885960  1
  Te  Te90  1  0.74901934  0.09441257  0.06407616  1
  Te  Te91  1  0.73126936  0.09309719  0.39300221  1
  Te  Te92  1  0.72837614  0.08226090  0.74500281  1
  Te  Te93  1  0.73064826  0.39833843  0.06334751  1
  Te  Te94  1  0.77224037  0.40134358  0.44223775  1
  Te  Te95  1  0.74652350  0.42082551  0.76032377  1
  Te  Te96  1  0.74426917  0.74125639  0.08867546  1
  Te  Te97  1  0.75344625  0.78866484  0.42215545  1
  Te  Te98  1  0.76112699  0.76025757  0.74238421  1
  Te  Te99  1  0.09536731  0.25471841  0.25513803  1
  Te  Te100  1  0.07013821  0.21169533  0.57798916  1
  Te  Te101  1  0.10779861  0.21955390  0.86398555  1
  Te  Te102  1  0.08817422  0.59317524  0.25958985  1
  Te  Te103  1  0.09091858  0.54909243  0.60332451  1
  Te  Te104  1  0.07857237  0.57782188  0.91813501  1
  Te  Te105  1  0.08897131  0.92789036  0.27240318  1
  Te  Te106  1  0.07892126  0.91934829  0.58911927  1
  Te  Te107  1  0.06837128  0.92044919  0.90758398  1
  Te  Te108  1  0.42044588  0.24976335  0.23334716  1
  Te  Te109  1  0.40567503  0.23840983  0.58658157  1
  Te  Te110  1  0.43488761  0.23547797  0.93196102  1
  Te  Te111  1  0.41119979  0.59384925  0.25364675  1
  Te  Te112  1  0.44172717  0.56428984  0.59450988  1
  Te  Te113  1  0.40288093  0.58664007  0.91076846  1
  Te  Te114  1  0.43300445  0.87888380  0.23468167  1
  Te  Te115  1  0.41415988  0.93134995  0.58737691  1
  Te  Te116  1  0.40264650  0.92177800  0.91296347  1
  Te  Te117  1  0.75978695  0.23291622  0.24295134  1
  Te  Te118  1  0.74424904  0.25872416  0.58384327  1
  Te  Te119  1  0.74203444  0.24899037  0.91996800  1
  Te  Te120  1  0.74529363  0.59240449  0.24609797  1
  Te  Te121  1  0.75906756  0.58877378  0.58945397  1
  Te  Te122  1  0.71129105  0.59834889  0.92907895  1
  Te  Te123  1  0.75160084  0.92643718  0.25033428  1
  Te  Te124  1  0.76743334  0.95216115  0.56173608  1
  Te  Te125  1  0.74694693  0.91722261  0.91533550  1
  Te  Te126  1  0.25475468  0.22164547  0.08102893  1
  Te  Te127  1  0.24040270  0.24451448  0.42009035  1
  Te  Te128  1  0.23097626  0.24330732  0.76838012  1
  Te  Te129  1  0.23218003  0.59030685  0.10683289  1
  Te  Te130  1  0.25504161  0.59261986  0.41454166  1
  Te  Te131  1  0.25198678  0.54881274  0.73370080  1
  Te  Te132  1  0.26234763  0.92395824  0.10088535  1
  Te  Te133  1  0.25540303  0.94745477  0.42837180  1
  Te  Te134  1  0.24579568  0.89563549  0.74887684  1
  Te  Te135  1  0.59899928  0.28862090  0.07234026  1
  Te  Te136  1  0.59556747  0.27366740  0.40948185  1
  Te  Te137  1  0.54497118  0.25145476  0.76083094  1
  Te  Te138  1  0.56636672  0.57712440  0.07757590  1
  Te  Te139  1  0.62100450  0.60190839  0.41317526  1
  Te  Te140  1  0.60251885  0.56952067  0.80405686  1
  Te  Te141  1  0.58954057  0.92197601  0.03280817  1
  Te  Te142  1  0.55289670  0.90496653  0.43534616  1
  Te  Te143  1  0.59076167  0.90445653  0.76383461  1
  Te  Te144  1  0.91754205  0.24138718  0.06741084  1
  Te  Te145  1  0.89580512  0.33776926  0.36190237  1
  Te  Te146  1  0.93960793  0.26178079  0.74336565  1
  Te  Te147  1  0.89310798  0.55599867  0.06268523  1
  Te  Te148  1  0.90861877  0.57474727  0.40045153  1
  Te  Te149  1  0.91269711  0.55576135  0.77216629  1
  Te  Te150  1  0.92419290  0.92387865  0.08443447  1
  Te  Te151  1  0.87871722  0.91182613  0.45175539  1
  Te  Te152  1  0.92612586  0.90967491  0.74331115  1
  Te  Te153  1  0.27039387  0.08985409  0.25270640  1
  Te  Te154  1  0.21564031  0.11444047  0.60016944  1
  Te  Te155  1  0.25511528  0.06775074  0.93333621  1
  Te  Te156  1  0.24988303  0.42474699  0.26219212  1
  Te  Te157  1  0.24061449  0.39502106  0.56583052  1
  Te  Te158  1  0.23413632  0.39481539  0.91379718  1
  Te  Te159  1  0.26508492  0.76160126  0.23644404  1
  Te  Te160  1  0.26378337  0.72186965  0.58796500  1
  Te  Te161  1  0.23747225  0.75659349  0.92186081  1
  Te  Te162  1  0.57281827  0.05874041  0.22130987  1
  Te  Te163  1  0.56156221  0.08807030  0.58795742  1
  Te  Te164  1  0.57144841  0.08354152  0.93824852  1
  Te  Te165  1  0.57106487  0.43892848  0.26595642  1
  Te  Te166  1  0.57955187  0.43240773  0.61263701  1
  Te  Te167  1  0.57958537  0.43172473  0.86827173  1
  Te  Te168  1  0.56583231  0.79766729  0.24798012  1
  Te  Te169  1  0.60231976  0.75515816  0.58882429  1
  Te  Te170  1  0.60842460  0.71101100  0.90337624  1
  Te  Te171  1  0.92778000  0.07854698  0.26666199  1
  Te  Te172  1  0.88010626  0.08200277  0.58183816  1
  Te  Te173  1  0.89865234  0.10988741  0.90038765  1
  Te  Te174  1  0.94813555  0.41152968  0.22882844  1
  Te  Te175  1  0.93356745  0.38137948  0.59312327  1
  Te  Te176  1  0.93798952  0.40131919  0.91424280  1
  Te  Te177  1  0.90405207  0.76855377  0.26408847  1
  Te  Te178  1  0.93725614  0.74401216  0.57280248  1
  Te  Te179  1  0.91594621  0.74703106  0.90651401  1
