# generated using pymatgen
data_In2Te3
_symmetry_space_group_name_H-M   'P 1'
_cell_length_a   18.73725285
_cell_length_b   18.74240631
_cell_length_c   18.73907544
_cell_angle_alpha   90.05457239
_cell_angle_beta   90.06432545
_cell_angle_gamma   89.98088832
_symmetry_Int_Tables_number   1
_chemical_formula_structural   In2Te3
_chemical_formula_sum   'In72 Te108'
_cell_volume   6580.80361820
_cell_formula_units_Z   36
loop_
 _symmetry_equiv_pos_site_id
 _symmetry_equiv_pos_as_xyz
  1  'x, y, z'
loop_
 _atom_site_type_symbol
 _atom_site_label
 _atom_site_symmetry_multiplicity
 _atom_site_fract_x
 _atom_site_fract_y
 _atom_site_fract_z
 _atom_site_occupancy
  In  In0  1  0.83632129  0.00365403  0.15056395  1
  In  In1  1  0.47080506  0.83068332  0.34290897  1
  In  In2  1  0.50207919  0.19814709  0.02164645  1
  In  In3  1  0.50370387  0.67782468  0.84491133  1
  In  In4  1  0.33297275  0.31813495  0.32256609  1
  In  In5  1  0.51680358  0.35052923  0.51419993  1
  In  In6  1  0.85900868  0.01397360  0.82537971  1
  In  In7  1  0.48144255  0.00852108  0.82561633  1
  In  In8  1  0.84060315  0.19496756  0.00175043  1
  In  In9  1  0.51699495  0.52990039  0.34055010  1
  In  In10  1  0.84052855  0.18637963  0.65334885  1
  In  In11  1  0.01540219  0.64995868  0.34334046  1
  In  In12  1  0.49790241  0.46034425  -0.00115623  1
  In  In13  1  0.33566601  0.66793063  0.64350833  1
  In  In14  1  0.17745236  0.85076009  0.00256978  1
  In  In15  1  0.83511839  0.65393643  0.51203443  1
  In  In16  1  0.50254172  0.83134882  0.64833738  1
  In  In17  1  0.00540268  0.32315088  0.67240851  1
  In  In18  1  0.02171280  0.17350079  0.82801858  1
  In  In19  1  0.65845205  0.66619191  -0.00128895  1
  In  In20  1  0.30116796  0.86780290  0.81549642  1
  In  In21  1  0.31456281  0.51351947  0.48820317  1
  In  In22  1  0.47647732  0.50210504  0.65169526  1
  In  In23  1  0.66201296  0.18490625  0.83666108  1
  In  In24  1  0.80752009  0.17949883  0.31404182  1
  In  In25  1  0.85171344  0.84637578  -0.00409426  1
  In  In26  1  -0.00808850  0.49198902  0.48373049  1
  In  In27  1  0.03264405  0.15893627  0.12985581  1
  In  In28  1  0.66287544  -0.01792189  0.00570945  1
  In  In29  1  -0.01365538  0.63641636  0.00268572  1
  In  In30  1  0.20187662  0.14207002  0.29183602  1
  In  In31  1  0.69442412  0.17828414  0.51237692  1
  In  In32  1  -0.00910952  0.67402719  0.68034586  1
  In  In33  1  0.33381160  0.66469546  0.02796209  1
  In  In34  1  0.48736827  0.17743714  0.30387295  1
  In  In35  1  0.50289501  0.81709734  0.00324355  1
  In  In36  1  0.31593744  0.03167803  -0.00509188  1
  In  In37  1  0.64453626  0.84349134  0.17177250  1
  In  In38  1  0.66739322  0.34236927  0.33358418  1
  In  In39  1  0.82157931  0.81895110  0.35310788  1
  In  In40  1  0.62157970  0.00296068  0.32465332  1
  In  In41  1  0.01362739  0.83791941  0.18122326  1
  In  In42  1  0.00497364  -0.00233898  0.33352628  1
  In  In43  1  0.01075920  -0.00246296  0.66686668  1
  In  In44  1  0.66356409  0.48359298  0.16912176  1
  In  In45  1  0.17040434  0.32615383  0.15491688  1
  In  In46  1  0.14025787  0.33678722  0.51430594  1
  In  In47  1  0.17166977  -0.01063751  0.50197588  1
  In  In48  1  0.15080151  0.49201588  0.68154223  1
  In  In49  1  0.48704828  -0.01872862  0.49404964  1
  In  In50  1  0.01136006  0.20602708  0.49214867  1
  In  In51  1  0.17724674  0.51504692  0.35136483  1
  In  In52  1  0.67067084  0.66602742  0.65870211  1
  In  In53  1  0.49418868  0.15834566  0.69222450  1
  In  In54  1  0.82068379  0.33584450  0.49936379  1
  In  In55  1  0.84124441  0.47262722  0.00099021  1
  In  In56  1  0.32069843  0.30764104  0.70015175  1
  In  In57  1  0.17901914  0.66253245  0.16912350  1
  In  In58  1  0.32614763  0.31642315  -0.00361704  1
  In  In59  1  0.83139527  0.65482361  0.79777222  1
  In  In60  1  0.14467975  0.66670005  0.84470752  1
  In  In61  1  0.02584781  0.84780912  0.83265793  1
  In  In62  1  0.17269210  0.83822747  0.33233574  1
  In  In63  1  0.67648897  0.47233839  0.82363431  1
  In  In64  1  0.81400952  0.64484508  0.16832254  1
  In  In65  1  0.82314677  -0.01683579  0.51346124  1
  In  In66  1  0.32623007  0.47498868  0.83933033  1
  In  In67  1  0.00650235  0.32513236  -0.00784769  1
  In  In68  1  0.32560789  0.15295254  0.50184720  1
  In  In69  1  0.18672600  0.68735912  0.50634311  1
  In  In70  1  0.66813319  -0.00882547  0.64880329  1
  In  In71  1  0.48332476  0.67203574  0.18494643  1
  Te  Te72  1  0.09497951  0.04552720  0.06041765  1
  Te  Te73  1  0.09119844  0.09693407  0.41351809  1
  Te  Te74  1  0.10558738  0.06043163  0.76619845  1
  Te  Te75  1  0.07500217  0.41712850  0.08738200  1
  Te  Te76  1  0.07705683  0.40178505  0.38797453  1
  Te  Te77  1  0.09214467  0.39282676  0.77180118  1
  Te  Te78  1  0.07859573  0.74878543  0.07326208  1
  Te  Te79  1  0.07726519  0.76070181  0.42555538  1
  Te  Te80  1  0.10587440  0.76145891  0.73229023  1
  Te  Te81  1  0.41282458  0.09649615  0.09045376  1
  Te  Te82  1  0.41200428  0.07873150  0.39916092  1
  Te  Te83  1  0.37973378  0.08694493  0.75183626  1
  Te  Te84  1  0.40454981  0.40152353  0.09485539  1
  Te  Te85  1  0.41302636  0.41567233  0.41859514  1
  Te  Te86  1  0.43074601  0.40004787  0.75748239  1
  Te  Te87  1  0.40017373  0.77630259  0.10963136  1
  Te  Te88  1  0.41851379  0.72486850  0.43210702  1
  Te  Te89  1  0.40943390  0.75634721  0.75513238  1
  Te  Te90  1  0.74416981  0.09400417  0.07168085  1
  Te  Te91  1  0.74804553  0.07169610  0.40788535  1
  Te  Te92  1  0.74840849  0.08841110  0.73934040  1
  Te  Te93  1  0.73735440  0.39528518  0.07510507  1
  Te  Te94  1  0.73256996  0.43325245  0.43081907  1
  Te  Te95  1  0.75863007  0.40225135  0.72525126  1
  Te  Te96  1  0.75256256  0.76671046  0.08438951  1
  Te  Te97  1  0.73646585  0.71373449  0.41479016  1
  Te  Te98  1  0.74648367  0.76194834  0.74470754  1
  Te  Te99  1  0.08685902  0.23539245  0.25045452  1
  Te  Te100  1  0.10584325  0.22316981  0.61243466  1
  Te  Te101  1  0.11511302  0.23272477  0.93261362  1
  Te  Te102  1  0.08202194  0.56556651  0.23770177  1
  Te  Te103  1  0.09368622  0.57795412  0.56785367  1
  Te  Te104  1  0.08518972  0.55860646  0.92417128  1
  Te  Te105  1  0.10920460  0.94272500  0.23697842  1
  Te  Te106  1  0.07704774  0.90189681  0.57632417  1
  Te  Te107  1  0.09225198  0.94854857  0.92597867  1
  Te  Te108  1  0.39795989  0.24962222  0.20646130  1
  Te  Te109  1  0.41428555  0.25372927  0.58046336  1
  Te  Te110  1  0.42657031  0.25149933  0.90745029  1
  Te  Te111  1  0.40497281  0.56586700  0.24986975  1
  Te  Te112  1  0.43392593  0.60833056  0.53998570  1
  Te  Te113  1  0.41766017  0.57954315  0.92354319  1
  Te  Te114  1  0.40756929  0.94915973  0.27824750  1
  Te  Te115  1  0.39453474  0.91672089  0.59056386  1
  Te  Te116  1  0.40822884  0.91043097  0.92107107  1
  Te  Te117  1  0.72559451  0.26084944  0.21762125  1
  Te  Te118  1  0.72306008  0.28628443  0.62373730  1
  Te  Te119  1  0.75013355  0.27655425  0.91490181  1
  Te  Te120  1  0.73215866  0.57227083  0.26661059  1
  Te  Te121  1  0.76204899  0.56154146  0.60276001  1
  Te  Te122  1  0.75517991  0.58144838  0.91877635  1
  Te  Te123  1  0.75570115  0.92150495  0.25115649  1
  Te  Te124  1  0.74252348  0.88138803  0.58260639  1
  Te  Te125  1  0.75885852  0.92287632  0.90158972  1
  Te  Te126  1  0.24960778  0.22113098  0.08545575  1
  Te  Te127  1  0.23660117  0.25011443  0.41986632  1
  Te  Te128  1  0.23625734  0.24723940  0.80607966  1
  Te  Te129  1  0.23711636  0.56436639  0.07350571  1
  Te  Te130  1  0.27405515  0.63013789  0.39220289  1
  Te  Te131  1  0.25883156  0.58587068  0.74835824  1
  Te  Te132  1  0.26470621  0.93016554  0.09442383  1
  Te  Te133  1  0.26868079  0.91609945  0.41558183  1
  Te  Te134  1  0.21908703  0.95567244  0.73132934  1
  Te  Te135  1  0.60497750  0.25015429  0.11447817  1
  Te  Te136  1  0.58089152  0.23964288  0.41985730  1
  Te  Te137  1  0.58110847  0.26727774  0.74097038  1
  Te  Te138  1  0.56670765  0.58358642  0.08561672  1
  Te  Te139  1  0.58409220  0.61885782  0.43729209  1
  Te  Te140  1  0.57455942  0.57695763  0.75550136  1
  Te  Te141  1  0.54895834  0.93344096  0.09611565  1
  Te  Te142  1  0.59468058  0.89756183  0.42623584  1
  Te  Te143  1  0.57974729  0.91799986  0.75041080  1
  Te  Te144  1  0.92165696  0.26421755  0.11086815  1
  Te  Te145  1  0.90831115  0.26666194  0.39146136  1
  Te  Te146  1  0.90530035  0.25767544  0.77064778  1
  Te  Te147  1  0.91810324  0.54959283  0.11057743  1
  Te  Te148  1  0.89355324  0.55938272  0.38079816  1
  Te  Te149  1  0.93871277  0.56141636  0.75909807  1
  Te  Te150  1  0.94914465  0.93301799  0.07580021  1
  Te  Te151  1  0.92478166  0.90654619  0.42613049  1
  Te  Te152  1  0.91434488  0.90142579  0.73903529  1
  Te  Te153  1  0.29781321  0.04921696  0.22496110  1
  Te  Te154  1  0.24677322  0.07589961  0.60242379  1
  Te  Te155  1  0.24002940  0.12400052  0.90416764  1
  Te  Te156  1  0.24937829  0.42365683  0.25098814  1
  Te  Te157  1  0.25794467  0.41141577  0.59177585  1
  Te  Te158  1  0.22942213  0.41136694  0.92865722  1
  Te  Te159  1  0.26275827  0.75986059  0.24234175  1
  Te  Te160  1  0.26899204  0.78673093  0.58225424  1
  Te  Te161  1  0.25725780  0.74644083  0.91315512  1
  Te  Te162  1  0.58920141  0.10326516  0.22115347  1
  Te  Te163  1  0.57333585  0.08771437  0.57400692  1
  Te  Te164  1  0.57995449  0.08265968  0.91942456  1
  Te  Te165  1  0.55719846  0.40951561  0.25081050  1
  Te  Te166  1  0.59841138  0.45606165  0.57808010  1
  Te  Te167  1  0.59925657  0.38704015  0.91966908  1
  Te  Te168  1  0.58722664  0.74549913  0.26835466  1
  Te  Te169  1  0.58538057  0.74201358  0.56043078  1
  Te  Te170  1  0.60915375  0.77308914  0.90127820  1
  Te  Te171  1  0.91889755  0.09208295  0.24688829  1
  Te  Te172  1  0.92229691  0.09094553  0.56558144  1
  Te  Te173  1  0.93266153  0.09554603  0.92875806  1
  Te  Te174  1  0.92703069  0.42616056  0.31984626  1
  Te  Te175  1  0.91486642  0.41667409  0.59175563  1
  Te  Te176  1  0.92962632  0.41371015  0.89847075  1
  Te  Te177  1  0.91523807  0.74291323  0.24960248  1
  Te  Te178  1  0.92042161  0.75381299  0.57889802  1
  Te  Te179  1  0.92705936  0.74625154  0.90785910  1
