# generated using pymatgen
data_In2Te3
_symmetry_space_group_name_H-M   'P 1'
_cell_length_a   18.94425103
_cell_length_b   18.97996739
_cell_length_c   18.95702788
_cell_angle_alpha   89.95602929
_cell_angle_beta   89.93233821
_cell_angle_gamma   89.97277755
_symmetry_Int_Tables_number   1
_chemical_formula_structural   In2Te3
_chemical_formula_sum   'In72 Te108'
_cell_volume   6816.20543559
_cell_formula_units_Z   36
loop_
 _symmetry_equiv_pos_site_id
 _symmetry_equiv_pos_as_xyz
  1  'x, y, z'
loop_
 _atom_site_type_symbol
 _atom_site_label
 _atom_site_symmetry_multiplicity
 _atom_site_fract_x
 _atom_site_fract_y
 _atom_site_fract_z
 _atom_site_occupancy
  In  In0  1  0.81435521  0.16802795  0.35362131  1
  In  In1  1  0.86370056  0.00911497  0.14693287  1
  In  In2  1  0.33411594  0.16033253  0.81520599  1
  In  In3  1  0.17061630  0.17086652  0.68454700  1
  In  In4  1  0.16371570  0.51854306  0.65827204  1
  In  In5  1  0.67899826  0.84085494  0.15579370  1
  In  In6  1  0.00950463  0.48374999  0.16083059  1
  In  In7  1  0.64133879  0.86786861  0.53216356  1
  In  In8  1  0.49088845  0.47500587  0.32964725  1
  In  In9  1  0.49407138  0.68090440  0.83514537  1
  In  In10  1  0.02336017  0.19072991  0.85669965  1
  In  In11  1  0.00681208  0.16342601  0.49960208  1
  In  In12  1  0.00454288  -0.02869898  -0.02373170  1
  In  In13  1  0.48690319  0.68873041  0.50896304  1
  In  In14  1  0.63594525  0.15712416  0.83327888  1
  In  In15  1  0.02400484  0.51869859  0.49665053  1
  In  In16  1  0.36422633  0.14393940  0.52335346  1
  In  In17  1  0.34095841  -0.01316661  0.66981152  1
  In  In18  1  -0.03040626  0.68560601  -0.02827424  1
  In  In19  1  0.17636610  0.81016882  0.65365044  1
  In  In20  1  0.01713061  0.68696081  0.33859824  1
  In  In21  1  0.31565868  0.34519179  0.35597408  1
  In  In22  1  0.86671858  0.50215270  0.34011166  1
  In  In23  1  0.67886306  0.49378896  0.81282684  1
  In  In24  1  0.02119718  -0.00678043  0.66030680  1
  In  In25  1  0.16267539  0.64589494  0.15691641  1
  In  In26  1  0.16651706  -0.04553431  0.15452328  1
  In  In27  1  0.49513069  0.32360382  0.16525500  1
  In  In28  1  0.50063597  0.50703930  0.01125222  1
  In  In29  1  0.31112284  0.46774092  0.85145812  1
  In  In30  1  0.01931761  0.36543117  0.65664957  1
  In  In31  1  0.80459081  0.67205612  0.15504908  1
  In  In32  1  0.81406674  0.69269068  0.53261033  1
  In  In33  1  0.83480513  0.17176332  0.67643366  1
  In  In34  1  0.83933073  0.18038220  0.02492906  1
  In  In35  1  0.68679840  0.31052290  0.35697068  1
  In  In36  1  0.28333617  0.66083256  0.43422310  1
  In  In37  1  -0.00063388  0.53351055  0.82218707  1
  In  In38  1  0.49753351  0.00427330  0.17188346  1
  In  In39  1  0.64290423  0.49429253  0.13338089  1
  In  In40  1  0.49817397  0.32648456  0.50835233  1
  In  In41  1  -0.02982131  0.85228747  0.15410101  1
  In  In42  1  0.65126005  -0.01759670  0.34791750  1
  In  In43  1  0.82815099  0.84357707  0.35782030  1
  In  In44  1  0.17158875  0.82413943  -0.00001107  1
  In  In45  1  0.16560302  0.68507592  0.82405504  1
  In  In46  1  0.64312106  -0.02126106  -0.02889304  1
  In  In47  1  0.18335366  0.84033068  0.35101324  1
  In  In48  1  0.17738575  0.17090649  0.34600046  1
  In  In49  1  0.67251462  0.16819781  0.16239507  1
  In  In50  1  0.34774090  0.84742293  0.82460027  1
  In  In51  1  0.49065976  0.51831946  0.66250785  1
  In  In52  1  -0.02446667  0.00109592  0.35766767  1
  In  In53  1  0.84352688  0.36254564  0.83139264  1
  In  In54  1  0.33023768  0.50060374  0.13730277  1
  In  In55  1  0.67347923  0.33274530  -0.01187334  1
  In  In56  1  0.48985814  0.83817617  0.66652909  1
  In  In57  1  0.82418058  0.83563619  0.67823930  1
  In  In58  1  0.84310498  0.50206469  -0.01500506  1
  In  In59  1  0.17365003  0.33767327  0.16134848  1
  In  In60  1  0.50997435  0.67883017  0.15540348  1
  In  In61  1  0.34847893  0.15430643  0.19655621  1
  In  In62  1  0.64492037  0.11965129  0.51958223  1
  In  In63  1  0.84101169  0.32820972  0.52056738  1
  In  In64  1  0.02798551  0.18251093  0.15213828  1
  In  In65  1  0.65760641  0.66004712  0.31503467  1
  In  In66  1  0.33395930  0.82241396  0.15015703  1
  In  In67  1  0.32640310  0.00562371  0.35032586  1
  In  In68  1  0.81711732  -0.00062440  0.84121552  1
  In  In69  1  0.19345350  0.15121690  -0.01145276  1
  In  In70  1  0.48274808  0.32583182  0.80734418  1
  In  In71  1  0.67587567  0.53195784  0.52054920  1
  Te  Te72  1  0.08011257  0.05963275  0.07551127  1
  Te  Te73  1  0.09610874  0.06740419  0.42329562  1
  Te  Te74  1  0.08402701  0.08224198  0.77139784  1
  Te  Te75  1  0.11770909  0.44003711  0.06602507  1
  Te  Te76  1  0.10575395  0.40973140  0.43916954  1
  Te  Te77  1  0.09690507  0.43046140  0.76658903  1
  Te  Te78  1  0.06745565  0.75293690  0.09220292  1
  Te  Te79  1  0.11595237  0.73767789  0.43569049  1
  Te  Te80  1  0.06770140  0.73081963  0.72195152  1
  Te  Te81  1  0.41780580  0.09150564  0.08464095  1
  Te  Te82  1  0.43731460  0.07408482  0.41660594  1
  Te  Te83  1  0.44323303  0.08213715  0.72944186  1
  Te  Te84  1  0.41069460  0.39522936  0.06326546  1
  Te  Te85  1  0.40466655  0.43036151  0.44470041  1
  Te  Te86  1  0.39506516  0.42166638  0.72921777  1
  Te  Te87  1  0.41515549  0.73836486  0.06118076  1
  Te  Te88  1  0.40917098  0.72127364  0.38981934  1
  Te  Te89  1  0.39802529  0.73789654  0.73295784  1
  Te  Te90  1  0.73819647  0.06777227  0.06886965  1
  Te  Te91  1  0.75493283  0.05558589  0.43334662  1
  Te  Te92  1  0.73441445  0.08097520  0.74367009  1
  Te  Te93  1  0.76225970  0.41397634  0.07994005  1
  Te  Te94  1  0.75472616  0.42701696  0.42817711  1
  Te  Te95  1  0.73982120  0.38643592  0.73160230  1
  Te  Te96  1  0.74595101  0.75927146  0.05370957  1
  Te  Te97  1  0.72406900  0.75097244  0.41817260  1
  Te  Te98  1  0.80514378  0.72346358  0.77722585  1
  Te  Te99  1  0.08939865  0.26370895  0.26566812  1
  Te  Te100  1  0.09248623  0.25530879  0.58290188  1
  Te  Te101  1  0.12983502  0.26927742  0.92384699  1
  Te  Te102  1  0.08239542  0.57303144  0.26346981  1
  Te  Te103  1  0.05363744  0.60734017  0.61094237  1
  Te  Te104  1  0.08663010  0.60216431  0.92596112  1
  Te  Te105  1  0.06364968  0.90777336  0.26411837  1
  Te  Te106  1  0.10912128  0.91634850  0.57293200  1
  Te  Te107  1  0.08561853  0.88147408  0.89550130  1
  Te  Te108  1  0.41911565  0.25912815  0.27903148  1
  Te  Te109  1  0.41515884  0.25471849  0.60451774  1
  Te  Te110  1  0.40310942  0.25429876  0.90554910  1
  Te  Te111  1  0.43068784  0.57106534  0.22975717  1
  Te  Te112  1  0.39319985  0.59584625  0.57882635  1
  Te  Te113  1  0.41439557  0.56924749  0.90529573  1
  Te  Te114  1  0.40011655  0.91694191  0.24873085  1
  Te  Te115  1  0.39366541  0.89362416  0.56657531  1
  Te  Te116  1  0.47469672  0.91417679  0.86968173  1
  Te  Te117  1  0.76784484  0.25695570  0.23833317  1
  Te  Te118  1  0.73891294  0.23175737  0.57424343  1
  Te  Te119  1  0.76486988  0.24414287  0.90617394  1
  Te  Te120  1  0.74893631  0.56113013  0.24532147  1
  Te  Te121  1  0.76881357  0.58392294  0.62252037  1
  Te  Te122  1  0.75526608  0.58644361  0.90251468  1
  Te  Te123  1  0.76733885  0.93358322  0.24791160  1
  Te  Te124  1  0.74769158  0.93686090  0.60211032  1
  Te  Te125  1  0.71734752  0.89441614  0.87476202  1
  Te  Te126  1  0.26233478  0.23424248  0.09748943  1
  Te  Te127  1  0.26230280  0.23882324  0.44777473  1
  Te  Te128  1  0.25262857  0.26815835  0.75551217  1
  Te  Te129  1  0.26749377  0.60888883  0.06159008  1
  Te  Te130  1  0.20230717  0.53355965  0.43829914  1
  Te  Te131  1  0.25462352  0.57958196  0.76168384  1
  Te  Te132  1  0.27369027  0.92614032  0.05356364  1
  Te  Te133  1  0.27632333  0.90446101  0.44689653  1
  Te  Te134  1  0.23428291  0.91396037  0.75034613  1
  Te  Te135  1  0.58019172  0.24266556  0.06801646  1
  Te  Te136  1  0.58295615  0.22836013  0.42709513  1
  Te  Te137  1  0.59747722  0.26353043  0.73986340  1
  Te  Te138  1  0.60232799  0.61308028  0.05113117  1
  Te  Te139  1  0.57420954  0.57555895  0.41101250  1
  Te  Te140  1  0.58846208  0.59667446  0.74747750  1
  Te  Te141  1  0.56451956  0.90461233  0.07902744  1
  Te  Te142  1  0.54885076  0.91874065  0.43050196  1
  Te  Te143  1  0.55462715  0.95491872  0.73428076  1
  Te  Te144  1  0.94329632  0.27071717  0.07265252  1
  Te  Te145  1  0.92237958  0.25701378  0.41469968  1
  Te  Te146  1  0.93806125  0.26086000  0.74561310  1
  Te  Te147  1  0.91946328  0.59204840  0.09130774  1
  Te  Te148  1  0.90948584  0.61799765  0.42619990  1
  Te  Te149  1  0.87138253  0.58209029  0.76763056  1
  Te  Te150  1  0.88374071  0.90277710  0.04051458  1
  Te  Te151  1  0.93349572  0.89212911  0.44908222  1
  Te  Te152  1  0.92120594  0.92806436  0.75672641  1
  Te  Te153  1  0.22392591  0.06606582  0.24083880  1
  Te  Te154  1  0.24586758  0.07718562  0.59184787  1
  Te  Te155  1  0.26134762  0.06089384  0.89713441  1
  Te  Te156  1  0.25198810  0.43259953  0.25004651  1
  Te  Te157  1  0.21688346  0.42755272  0.55276322  1
  Te  Te158  1  0.22305822  0.40861141  0.95350000  1
  Te  Te159  1  0.23825340  0.74833534  0.24146323  1
  Te  Te160  1  0.25427823  0.70533729  0.57198744  1
  Te  Te161  1  0.27110178  0.74945781  0.91332125  1
  Te  Te162  1  0.58754182  0.09037349  0.25968742  1
  Te  Te163  1  0.54849479  0.05796638  0.61599085  1
  Te  Te164  1  0.54847894  0.08155747  0.92353018  1
  Te  Te165  1  0.59970870  0.39788856  0.25399033  1
  Te  Te166  1  0.58586459  0.42864296  0.58377652  1
  Te  Te167  1  0.57920179  0.42010457  0.90865100  1
  Te  Te168  1  0.58041009  0.77317852  0.25120817  1
  Te  Te169  1  0.59428165  0.74244103  0.60123731  1
  Te  Te170  1  0.57326473  0.79776255  0.88173363  1
  Te  Te171  1  0.92619302  0.10058386  0.25138211  1
  Te  Te172  1  0.91626877  0.08032297  0.58630787  1
  Te  Te173  1  0.91950445  0.09423632  0.92038393  1
  Te  Te174  1  0.93036410  0.40330354  0.25500001  1
  Te  Te175  1  0.91534745  0.44331873  0.58189363  1
  Te  Te176  1  0.94998401  0.41871331  0.92003665  1
  Te  Te177  1  0.89721450  0.75070127  0.25016694  1
  Te  Te178  1  0.92193565  0.78147637  0.57913219  1
  Te  Te179  1  0.91625046  0.77540520  0.87150592  1
