# generated using pymatgen
data_In2Te3
_symmetry_space_group_name_H-M   'P 1'
_cell_length_a   18.81062853
_cell_length_b   18.81049468
_cell_length_c   18.80320527
_cell_angle_alpha   89.99200740
_cell_angle_beta   90.00615342
_cell_angle_gamma   89.96292004
_symmetry_Int_Tables_number   1
_chemical_formula_structural   In2Te3
_chemical_formula_sum   'In72 Te108'
_cell_volume   6653.27253511
_cell_formula_units_Z   36
loop_
 _symmetry_equiv_pos_site_id
 _symmetry_equiv_pos_as_xyz
  1  'x, y, z'
loop_
 _atom_site_type_symbol
 _atom_site_label
 _atom_site_symmetry_multiplicity
 _atom_site_fract_x
 _atom_site_fract_y
 _atom_site_fract_z
 _atom_site_occupancy
  In  In0  1  0.01424653  0.17301212  0.48584446  1
  In  In1  1  0.69179838  0.18373966  0.17609132  1
  In  In2  1  0.65666643  0.65901874  0.02268324  1
  In  In3  1  0.03199693  0.35662217  0.30828720  1
  In  In4  1  0.31541404  0.67128372  0.01536907  1
  In  In5  1  0.49024616  -0.02507519  0.17969261  1
  In  In6  1  0.50233218  -0.01973886  0.50262276  1
  In  In7  1  0.85756926  0.18966307  0.66154950  1
  In  In8  1  0.67392150  -0.01282971  0.65578306  1
  In  In9  1  0.31032714  0.17949286  0.16423445  1
  In  In10  1  0.67762657  0.00876652  0.34701840  1
  In  In11  1  0.67392248  0.50157364  0.17268925  1
  In  In12  1  0.34671911  0.67374781  0.65931801  1
  In  In13  1  0.84837139  0.02690180  0.84816975  1
  In  In14  1  0.48451370  0.32968231  0.83183688  1
  In  In15  1  0.84730804  0.35797898  0.48717785  1
  In  In16  1  0.49174640  0.48764356  0.33334002  1
  In  In17  1  0.16583905  0.64767044  0.47080883  1
  In  In18  1  0.87902520  0.19613533  0.00965575  1
  In  In19  1  0.00444635  0.83938276  0.48993522  1
  In  In20  1  0.66134720  0.45955439  0.51298184  1
  In  In21  1  0.31948482  0.48655734  0.84227782  1
  In  In22  1  0.32676839  0.66771838  0.31764649  1
  In  In23  1  0.16202204  0.66449074  0.85743878  1
  In  In24  1  0.46115666  0.00707522  0.83505582  1
  In  In25  1  0.66747991  0.00543567  0.03185988  1
  In  In26  1  0.00055624  0.66349800  0.68801020  1
  In  In27  1  0.85279134  0.50666030  0.65776381  1
  In  In28  1  0.86700072  0.63403860  0.45873218  1
  In  In29  1  0.66335726  0.32560246  -0.02074017  1
  In  In30  1  0.50634542  0.17830307  0.34113589  1
  In  In31  1  0.48364632  0.35056103  0.15723313  1
  In  In32  1  0.17049111  0.33366123  0.83370073  1
  In  In33  1  0.85150166  0.31982528  0.17616113  1
  In  In34  1  0.65715915  0.83621712  0.50474387  1
  In  In35  1  0.16921983  0.01708833  0.18221050  1
  In  In36  1  0.66299065  0.63483376  0.67967032  1
  In  In37  1  0.47268702  0.81760445  0.66450992  1
  In  In38  1  0.29764277  0.47707071  0.17079683  1
  In  In39  1  0.46890982  0.65069521  0.48147775  1
  In  In40  1  0.13491348  0.01964310  0.48182258  1
  In  In41  1  0.48138210  0.17616236  -0.02306456  1
  In  In42  1  0.32379169  0.49574066  0.49415444  1
  In  In43  1  0.65387344  0.82294869  0.16833795  1
  In  In44  1  0.85827354  0.34606781  0.84800010  1
  In  In45  1  0.15338190  0.16986423  0.00498109  1
  In  In46  1  -0.00124335  0.82491189  0.15920428  1
  In  In47  1  0.48834214  0.18142510  0.66849753  1
  In  In48  1  0.66401456  0.47230417  0.84407722  1
  In  In49  1  0.66405350  0.67390280  0.31959754  1
  In  In50  1  0.02099122  0.63759606  0.01631226  1
  In  In51  1  0.48195147  0.66216729  0.81617699  1
  In  In52  1  0.01521239  0.01301353  0.66542817  1
  In  In53  1  0.85641579  0.50002120  -0.00197601  1
  In  In54  1  0.83211731  0.85111436  0.64326695  1
  In  In55  1  0.19108452  -0.01785756  0.81637928  1
  In  In56  1  0.16776650  0.32023870  0.47951405  1
  In  In57  1  0.32453786  0.82112819  0.16894167  1
  In  In58  1  0.67631448  0.17660494  0.47749641  1
  In  In59  1  0.63954442  0.17955371  0.81174528  1
  In  In60  1  0.17773189  0.83005029  0.33126265  1
  In  In61  1  0.65213958  0.82728585  0.83945135  1
  In  In62  1  0.33564894  0.84256327  0.51284547  1
  In  In63  1  0.84790539  0.66265953  0.82136686  1
  In  In64  1  0.17392752  0.18756484  0.67772939  1
  In  In65  1  0.01351186  0.83576806  0.85484370  1
  In  In66  1  0.87665044  0.01413076  0.19294734  1
  In  In67  1  0.85083470  0.83374023  0.31993358  1
  In  In68  1  0.33107458  0.17343994  0.50107670  1
  In  In69  1  0.16160421  0.48593634  0.66264607  1
  In  In70  1  0.82066097  0.83730618  0.02693235  1
  In  In71  1  0.32245653  -0.00186657  0.00517877  1
  Te  Te72  1  0.06896136  0.09523438  0.10423465  1
  Te  Te73  1  0.06446234  0.09194137  0.36713656  1
  Te  Te74  1  0.08974183  0.09522996  0.76551669  1
  Te  Te75  1  0.11913256  0.46885014  0.14840375  1
  Te  Te76  1  0.07898286  0.43358420  0.43330801  1
  Te  Te77  1  0.07151403  0.40406831  0.74524060  1
  Te  Te78  1  0.09355050  0.75470269  0.06834392  1
  Te  Te79  1  0.07033912  0.73898670  0.39522145  1
  Te  Te80  1  0.09730537  0.76127915  0.75148413  1
  Te  Te81  1  0.42047628  0.09020870  0.08928563  1
  Te  Te82  1  0.42131951  0.07665873  0.41738670  1
  Te  Te83  1  0.39250356  0.11198212  0.75766734  1
  Te  Te84  1  0.38170457  0.40726530  0.06882030  1
  Te  Te85  1  0.40199364  0.40090623  0.41140851  1
  Te  Te86  1  0.39823447  0.41106909  0.74286899  1
  Te  Te87  1  0.42130892  0.73349777  0.10011494  1
  Te  Te88  1  0.41143335  0.76520282  0.40329480  1
  Te  Te89  1  0.37724911  0.77087096  0.77726626  1
  Te  Te90  1  0.77924237  0.09596780  0.08369627  1
  Te  Te91  1  0.77622136  0.11073385  0.38782187  1
  Te  Te92  1  0.75245863  0.08732796  0.74017444  1
  Te  Te93  1  0.75490205  0.40295628  0.07287889  1
  Te  Te94  1  0.75865613  0.44541446  0.40330782  1
  Te  Te95  1  0.76574900  0.41445487  0.74655998  1
  Te  Te96  1  0.76024577  0.72711906  0.11164213  1
  Te  Te97  1  0.75492631  0.75518206  0.41910761  1
  Te  Te98  1  0.74823518  0.75699038  0.73939820  1
  Te  Te99  1  0.11306843  0.26819841  0.21200424  1
  Te  Te100  1  0.07550437  0.26419761  0.59068985  1
  Te  Te101  1  0.07114570  0.27129683  0.92878709  1
  Te  Te102  1  0.06210428  0.53579204  0.26516515  1
  Te  Te103  1  0.07803395  0.58628582  0.58141854  1
  Te  Te104  1  0.09044965  0.54708464  0.91888262  1
  Te  Te105  1  0.07789235  0.91581037  0.25569533  1
  Te  Te106  1  0.09665547  0.91040682  0.58836963  1
  Te  Te107  1  0.09975537  0.93274185  0.92218652  1
  Te  Te108  1  0.40977592  0.25840391  0.25318386  1
  Te  Te109  1  0.43028138  0.26740655  0.56186042  1
  Te  Te110  1  0.38023193  0.26198531  0.91457624  1
  Te  Te111  1  0.40868630  0.56872616  0.23614539  1
  Te  Te112  1  0.42381617  0.55952117  0.59278326  1
  Te  Te113  1  0.40549746  0.58366674  0.92219629  1
  Te  Te114  1  0.38228813  0.92136529  0.26231946  1
  Te  Te115  1  0.39797051  0.94633585  0.61174397  1
  Te  Te116  1  0.41359679  0.90770491  0.93108530  1
  Te  Te117  1  0.75894360  0.26378386  0.27890608  1
  Te  Te118  1  0.75825645  0.26327276  0.57454790  1
  Te  Te119  1  0.75783933  0.23134689  0.90649669  1
  Te  Te120  1  0.76020847  0.57066987  0.27269766  1
  Te  Te121  1  0.75878735  0.58998315  0.56987615  1
  Te  Te122  1  0.74410021  0.58691966  0.90944407  1
  Te  Te123  1  0.74913744  0.92555712  0.23160624  1
  Te  Te124  1  0.76368595  0.94191308  0.54107292  1
  Te  Te125  1  0.75019600  0.91978759  0.91158471  1
  Te  Te126  1  0.23242757  0.27531298  0.08015125  1
  Te  Te127  1  0.23462030  0.21755170  0.39408382  1
  Te  Te128  1  0.27707396  0.26188477  0.75499910  1
  Te  Te129  1  0.21863186  0.57865091  0.09015243  1
  Te  Te130  1  0.24261874  0.55461804  0.37880835  1
  Te  Te131  1  0.24486804  0.59040843  0.74273935  1
  Te  Te132  1  0.23025144  0.91235297  0.08911330  1
  Te  Te133  1  0.24643214  0.92940176  0.42383165  1
  Te  Te134  1  0.28706019  0.91001157  0.73237474  1
  Te  Te135  1  0.58336964  0.24006614  0.08091441  1
  Te  Te136  1  0.58547263  0.27641876  0.41780154  1
  Te  Te137  1  0.59550839  0.29242801  0.71950605  1
  Te  Te138  1  0.56887038  0.56224898  0.08872526  1
  Te  Te139  1  0.58816061  0.57782015  0.42417075  1
  Te  Te140  1  0.56419077  0.54858402  0.75291418  1
  Te  Te141  1  0.56548937  0.90041083  0.06792827  1
  Te  Te142  1  0.57621512  0.90333240  0.39314849  1
  Te  Te143  1  0.57136961  0.91878243  0.74606886  1
  Te  Te144  1  0.97035670  0.24453325  0.12015057  1
  Te  Te145  1  0.93496236  0.26969583  0.39876470  1
  Te  Te146  1  0.93826468  0.25049788  0.76756586  1
  Te  Te147  1  0.91311624  0.58623292  0.10272964  1
  Te  Te148  1  0.96879181  0.54268777  0.39616581  1
  Te  Te149  1  0.94196409  0.55322714  0.77653642  1
  Te  Te150  1  0.92819646  0.93303159  0.07314537  1
  Te  Te151  1  0.92429035  0.92878189  0.40504466  1
  Te  Te152  1  0.91708088  0.91808690  0.75184521  1
  Te  Te153  1  0.25504795  0.09648404  0.27598767  1
  Te  Te154  1  0.23292167  0.08679768  0.58047781  1
  Te  Te155  1  0.24838113  0.09209716  0.91344411  1
  Te  Te156  1  0.21486950  0.37088884  0.24995573  1
  Te  Te157  1  0.25345339  0.39386882  0.58335981  1
  Te  Te158  1  0.21074794  0.44136579  0.93480149  1
  Te  Te159  1  0.21585139  0.72302210  0.23032798  1
  Te  Te160  1  0.24039643  0.73933916  0.57125976  1
  Te  Te161  1  0.23636283  0.76684156  0.93236238  1
  Te  Te162  1  0.58606692  0.08128366  0.23952385  1
  Te  Te163  1  0.58497687  0.08774997  0.57925399  1
  Te  Te164  1  0.58994402  0.07401070  0.91753626  1
  Te  Te165  1  0.59037431  0.40141163  0.25371771  1
  Te  Te166  1  0.56654495  0.38985872  0.59768284  1
  Te  Te167  1  0.55389301  0.42104790  0.93639551  1
  Te  Te168  1  0.55681869  0.74013245  0.24252860  1
  Te  Te169  1  0.57729224  0.73482465  0.58774275  1
  Te  Te170  1  0.56683756  0.73560431  0.92193549  1
  Te  Te171  1  0.93950227  0.11651957  0.27548537  1
  Te  Te172  1  0.92002009  0.08434496  0.57011566  1
  Te  Te173  1  0.95017939  0.09482744  0.92805265  1
  Te  Te174  1  0.92174274  0.43691272  0.23872388  1
  Te  Te175  1  0.94197881  0.41340016  0.58751217  1
  Te  Te176  1  0.95018072  0.38997462  0.95971066  1
  Te  Te177  1  0.92554175  0.73001112  0.24764152  1
  Te  Te178  1  0.91711758  0.74035908  0.58101483  1
  Te  Te179  1  0.91041495  0.74915198  0.93060495  1
