# generated using pymatgen
data_In2Te3
_symmetry_space_group_name_H-M   'P 1'
_cell_length_a   18.97483937
_cell_length_b   18.97694261
_cell_length_c   18.95801524
_cell_angle_alpha   90.22390168
_cell_angle_beta   90.03820078
_cell_angle_gamma   89.88548917
_symmetry_Int_Tables_number   1
_chemical_formula_structural   In2Te3
_chemical_formula_sum   'In72 Te108'
_cell_volume   6826.41901734
_cell_formula_units_Z   36
loop_
 _symmetry_equiv_pos_site_id
 _symmetry_equiv_pos_as_xyz
  1  'x, y, z'
loop_
 _atom_site_type_symbol
 _atom_site_label
 _atom_site_symmetry_multiplicity
 _atom_site_fract_x
 _atom_site_fract_y
 _atom_site_fract_z
 _atom_site_occupancy
  In  In0  1  -0.00966633  0.01733998  -0.00886733  1
  In  In1  1  0.84284536  0.83673193  0.35510143  1
  In  In2  1  0.66808100  0.82027383  0.83406748  1
  In  In3  1  0.49450966  0.32437405  0.48749950  1
  In  In4  1  -0.00000427  0.16937602  0.50235919  1
  In  In5  1  0.66521159  0.51402085  0.49506964  1
  In  In6  1  0.03045199  0.17846802  0.82731549  1
  In  In7  1  0.69064012  0.32643314  0.67871362  1
  In  In8  1  0.02561403  0.81517865  0.46732737  1
  In  In9  1  0.84183921  0.49644963  -0.00150831  1
  In  In10  1  0.65440979  -0.01331536  0.66267305  1
  In  In11  1  0.84207739  0.66277230  0.82812511  1
  In  In12  1  0.48900600  0.16622727  0.33902146  1
  In  In13  1  0.15342757  -0.01944788  0.49084531  1
  In  In14  1  0.01131207  0.67146012  0.65529853  1
  In  In15  1  0.67527733  0.36371553  0.01931407  1
  In  In16  1  0.49542128  -0.02819554  0.47899311  1
  In  In17  1  -0.00895035  -0.03259553  0.64640098  1
  In  In18  1  0.31887670  0.16938273  0.51313299  1
  In  In19  1  0.84387757  0.64794361  0.49738954  1
  In  In20  1  0.84215692  0.00878460  0.82930468  1
  In  In21  1  0.48442681  -0.02513042  0.15144733  1
  In  In22  1  0.82761605  0.00371904  0.16708352  1
  In  In23  1  0.66439702  0.19799774  0.14483809  1
  In  In24  1  0.34675858  0.40206715  0.29813430  1
  In  In25  1  -0.00191053  0.33515147  0.65827397  1
  In  In26  1  0.31917396  0.34391984  0.66393646  1
  In  In27  1  0.00651461  0.84188738  0.84220529  1
  In  In28  1  0.19020396  0.34309831  0.87180970  1
  In  In29  1  0.84224482  0.35518786  0.48373664  1
  In  In30  1  0.50275486  0.48826770  0.68118374  1
  In  In31  1  0.63784153  0.35464520  0.29483279  1
  In  In32  1  0.33352368  0.17130883  0.18630782  1
  In  In33  1  0.65403992  0.65223876  0.31119370  1
  In  In34  1  0.13219030  0.15610376  0.67672385  1
  In  In35  1  0.00121174  0.50135995  0.84026583  1
  In  In36  1  0.82385310  0.17644283  0.34251423  1
  In  In37  1  0.81368732  -0.00146098  0.51979871  1
  In  In38  1  0.35043605  0.19812806  0.85689637  1
  In  In39  1  0.15174918  0.15723297  0.01873274  1
  In  In40  1  0.35600834  0.81324256  0.83885088  1
  In  In41  1  0.17421496  0.80665619  0.31035371  1
  In  In42  1  0.63767271  0.65600433  0.02750106  1
  In  In43  1  0.34779315  0.82565807  0.14837829  1
  In  In44  1  0.16379447  0.22952879  0.30021818  1
  In  In45  1  0.83146247  0.66294368  0.18629964  1
  In  In46  1  0.50494453  0.01220421  0.85242414  1
  In  In47  1  0.18992342  -0.03342172  0.83818616  1
  In  In48  1  0.33820844  -0.01091542  0.68982534  1
  In  In49  1  0.62936681  0.82069638  0.18908798  1
  In  In50  1  0.16581979  0.37221578  0.46618184  1
  In  In51  1  0.50344325  0.68467152  0.52959077  1
  In  In52  1  0.17171358  0.35399818  0.13833406  1
  In  In53  1  -0.00954776  0.66130058  0.32858857  1
  In  In54  1  0.15140853  0.51978107  0.67370433  1
  In  In55  1  0.67007125  0.16121050  0.85019169  1
  In  In56  1  0.66723636  0.15612973  0.52257575  1
  In  In57  1  0.51891580  0.65805139  0.84083102  1
  In  In58  1  0.31068446  0.81540247  0.51100874  1
  In  In59  1  0.48283233  0.80983614  0.34061199  1
  In  In60  1  0.62248989  -0.01241733  0.32177287  1
  In  In61  1  -0.01044539  0.50125409  0.16200321  1
  In  In62  1  0.16860407  0.66902063  0.88509972  1
  In  In63  1  0.47354917  0.51202374  0.01961526  1
  In  In64  1  0.81943421  0.82734398  -0.01864620  1
  In  In65  1  0.68497399  0.50043352  0.81427674  1
  In  In66  1  0.31785995  0.00496784  0.01336189  1
  In  In67  1  0.51479405  0.33624675  0.83580607  1
  In  In68  1  0.32731633  0.65693442  0.68242300  1
  In  In69  1  0.21017178  0.64235663  0.13886217  1
  In  In70  1  0.02108931  -0.00650804  0.31429215  1
  In  In71  1  0.84172968  0.21979183  0.02853046  1
  Te  Te72  1  0.05939835  0.08263546  0.10252100  1
  Te  Te73  1  0.09544012  0.09489898  0.41065357  1
  Te  Te74  1  0.07370722  0.03884148  0.75973105  1
  Te  Te75  1  0.07999577  0.44134920  0.05738352  1
  Te  Te76  1  0.07523306  0.42573760  0.36085667  1
  Te  Te77  1  0.09780308  0.40070989  0.75974533  1
  Te  Te78  1  0.13928821  0.72104707  0.03052455  1
  Te  Te79  1  0.11289627  0.70737225  0.40877548  1
  Te  Te80  1  0.08712167  0.73628219  0.76984624  1
  Te  Te81  1  0.41798677  0.09299334  0.08511519  1
  Te  Te82  1  0.39914557  0.07774510  0.42104420  1
  Te  Te83  1  0.41671074  0.09641366  0.76119188  1
  Te  Te84  1  0.37083013  0.43548187  0.10245524  1
  Te  Te85  1  0.40612931  0.42892874  0.43711345  1
  Te  Te86  1  0.40162231  0.41720673  0.76811097  1
  Te  Te87  1  0.45513671  0.74247166  0.09500853  1
  Te  Te88  1  0.39643234  0.72163969  0.42553894  1
  Te  Te89  1  0.44143625  0.74136896  0.73803322  1
  Te  Te90  1  0.75771188  0.10028868  0.07394603  1
  Te  Te91  1  0.73381216  0.06656820  0.40832544  1
  Te  Te92  1  0.74390381  0.08280192  0.74023813  1
  Te  Te93  1  0.76626640  0.43660421  0.11128196  1
  Te  Te94  1  0.73242858  0.41755218  0.39973375  1
  Te  Te95  1  0.78318290  0.41448774  0.74886969  1
  Te  Te96  1  0.74016213  0.75496738  0.09549882  1
  Te  Te97  1  0.75253079  0.72694393  0.40243162  1
  Te  Te98  1  0.75708596  0.74716418  0.74458227  1
  Te  Te99  1  0.05837428  0.27122038  0.20173935  1
  Te  Te100  1  0.10845141  0.26213160  0.56540670  1
  Te  Te101  1  0.07875392  0.26619581  0.94026251  1
  Te  Te102  1  0.07629252  0.61673801  0.21151187  1
  Te  Te103  1  0.05779362  0.56146521  0.56622809  1
  Te  Te104  1  0.08939063  0.55431997  0.94764737  1
  Te  Te105  1  0.08185530  0.89000263  0.23088685  1
  Te  Te106  1  0.09886574  0.87933496  0.58796055  1
  Te  Te107  1  0.09438303  0.91508312  0.94256686  1
  Te  Te108  1  0.42354732  0.27145241  0.25511973  1
  Te  Te109  1  0.41831717  0.24919902  0.59554403  1
  Te  Te110  1  0.44678655  0.26388319  0.94473436  1
  Te  Te111  1  0.40578447  0.52644873  0.22758814  1
  Te  Te112  1  0.41711710  0.57230264  0.59118378  1
  Te  Te113  1  0.40976499  0.59469040  0.91537905  1
  Te  Te114  1  0.40966291  0.91822909  0.26632926  1
  Te  Te115  1  0.41029028  0.90435293  0.58477659  1
  Te  Te116  1  0.41398607  0.92045847  0.93151643  1
  Te  Te117  1  0.75638293  0.26889417  0.24328418  1
  Te  Te118  1  0.77190394  0.25073284  0.57386786  1
  Te  Te119  1  0.74712887  0.27291715  0.92133226  1
  Te  Te120  1  0.73844428  0.55790013  0.23258153  1
  Te  Te121  1  0.75441430  0.57882948  0.58998689  1
  Te  Te122  1  0.73956064  0.59932239  0.92722713  1
  Te  Te123  1  0.74821054  0.91089460  0.25952131  1
  Te  Te124  1  0.73630443  0.89047217  0.58267008  1
  Te  Te125  1  0.73946454  0.93457900  0.91146253  1
  Te  Te126  1  0.26004736  0.24539267  0.07567853  1
  Te  Te127  1  0.26351195  0.26681261  0.41145117  1
  Te  Te128  1  0.24208229  0.24373263  0.75052173  1
  Te  Te129  1  0.28508951  0.55097463  0.04311573  1
  Te  Te130  1  0.28091702  0.52463330  0.35959010  1
  Te  Te131  1  0.24197599  0.57868209  0.77915493  1
  Te  Te132  1  0.24927805  0.92981880  0.11719402  1
  Te  Te133  1  0.24818878  0.90436046  0.40309165  1
  Te  Te134  1  0.25501101  0.87257406  0.74032641  1
  Te  Te135  1  0.56760084  0.29457489  0.09137676  1
  Te  Te136  1  0.60361152  0.24143399  0.41070729  1
  Te  Te137  1  0.58812811  0.23887027  0.74561423  1
  Te  Te138  1  0.58616538  0.54494498  0.11284455  1
  Te  Te139  1  0.56404960  0.59359953  0.41782049  1
  Te  Te140  1  0.60083216  0.59355638  0.72913098  1
  Te  Te141  1  0.60628990  0.92492462  0.09042634  1
  Te  Te142  1  0.59878823  0.87018970  0.42266463  1
  Te  Te143  1  0.56840718  0.90983164  0.75962669  1
  Te  Te144  1  0.92488989  0.29052809  0.12304866  1
  Te  Te145  1  0.93412073  0.26170080  0.40261969  1
  Te  Te146  1  0.92833491  0.23638204  0.73994076  1
  Te  Te147  1  0.91549598  0.60608197  0.07434442  1
  Te  Te148  1  0.89710156  0.56180384  0.38680741  1
  Te  Te149  1  0.92268975  0.57521057  0.73458025  1
  Te  Te150  1  0.90587424  0.91646944  0.07020840  1
  Te  Te151  1  0.93192940  0.93894691  0.43129502  1
  Te  Te152  1  0.90161851  0.89650712  0.74583716  1
  Te  Te153  1  0.22750546  0.10336683  0.25958362  1
  Te  Te154  1  0.23904938  0.06443112  0.59367333  1
  Te  Te155  1  0.24235449  0.09319618  0.90336277  1
  Te  Te156  1  0.19429746  0.45091422  0.25792166  1
  Te  Te157  1  0.24482851  0.44350622  0.57892559  1
  Te  Te158  1  0.28156420  0.41993699  0.95741411  1
  Te  Te159  1  0.28304104  0.72471042  0.24343004  1
  Te  Te160  1  0.23731530  0.70810140  0.57817239  1
  Te  Te161  1  0.26822489  0.76543052  0.94884958  1
  Te  Te162  1  0.57870007  0.10045551  0.23270610  1
  Te  Te163  1  0.55767627  0.07095658  0.57924252  1
  Te  Te164  1  0.57603634  0.10193187  0.94393466  1
  Te  Te165  1  0.54583697  0.45999078  0.24983010  1
  Te  Te166  1  0.59051211  0.40357374  0.58660851  1
  Te  Te167  1  0.58522740  0.44626840  0.91426725  1
  Te  Te168  1  0.52769352  0.71160132  0.22627514  1
  Te  Te169  1  0.59811528  0.78974361  0.56281083  1
  Te  Te170  1  0.57344468  0.76164196  0.93847453  1
  Te  Te171  1  0.91562878  0.08872812  0.25667477  1
  Te  Te172  1  0.91306923  0.08700556  0.59509022  1
  Te  Te173  1  0.90766005  0.11810340  0.91330695  1
  Te  Te174  1  0.93694478  0.44098675  0.28689987  1
  Te  Te175  1  0.94452971  0.43106369  0.56017899  1
  Te  Te176  1  0.91206213  0.40604997  0.90711502  1
  Te  Te177  1  0.92262413  0.77090616  0.24499114  1
  Te  Te178  1  0.92428697  0.75785002  0.56535801  1
  Te  Te179  1  0.93044921  0.74027200  0.92471214  1
