# generated using pymatgen
data_In2Te3
_symmetry_space_group_name_H-M   'P 1'
_cell_length_a   18.77438036
_cell_length_b   18.76757519
_cell_length_c   18.77885871
_cell_angle_alpha   89.98214234
_cell_angle_beta   90.00957713
_cell_angle_gamma   89.94067937
_symmetry_Int_Tables_number   1
_chemical_formula_structural   In2Te3
_chemical_formula_sum   'In72 Te108'
_cell_volume   6616.71930314
_cell_formula_units_Z   36
loop_
 _symmetry_equiv_pos_site_id
 _symmetry_equiv_pos_as_xyz
  1  'x, y, z'
loop_
 _atom_site_type_symbol
 _atom_site_label
 _atom_site_symmetry_multiplicity
 _atom_site_fract_x
 _atom_site_fract_y
 _atom_site_fract_z
 _atom_site_occupancy
  In  In0  1  0.83612036  0.64742876  0.15610601  1
  In  In1  1  0.16924156  0.64738305  0.80620207  1
  In  In2  1  0.83490355  0.49595631  0.66645763  1
  In  In3  1  -0.01033399  0.68849168  -0.00780318  1
  In  In4  1  0.18453159  0.17123769  0.66607733  1
  In  In5  1  0.34631555  0.16839373  0.82952661  1
  In  In6  1  0.68041000  0.17169379  0.16042290  1
  In  In7  1  -0.01844182  0.47359217  0.85263157  1
  In  In8  1  0.32564913  0.33220260  -0.00991938  1
  In  In9  1  0.32569758  0.01342828  0.36124751  1
  In  In10  1  0.14222893  0.22940766  -0.01355907  1
  In  In11  1  -0.02192203  0.32837997  0.31727834  1
  In  In12  1  -0.00748559  -0.00168651  0.68480196  1
  In  In13  1  0.65659280  0.00071939  0.32580434  1
  In  In14  1  0.46756088  -0.01324703  0.53013109  1
  In  In15  1  0.33918563  0.50996953  0.51740725  1
  In  In16  1  -0.01856938  0.49995597  0.51426560  1
  In  In17  1  0.52463543  0.67402818  0.54209922  1
  In  In18  1  0.83648740  0.82195612  0.68989606  1
  In  In19  1  0.33632042  0.83650819  0.82164545  1
  In  In20  1  0.51839456  0.48405589  -0.00295723  1
  In  In21  1  -0.00532910  0.17418774  0.15321463  1
  In  In22  1  0.19324327  0.48359683  0.69357966  1
  In  In23  1  0.49869521  0.84250030  0.35327655  1
  In  In24  1  0.16775933  -0.00216520  0.84145740  1
  In  In25  1  0.18834952  0.68795914  0.52240969  1
  In  In26  1  0.50698809  0.65853608  0.82013522  1
  In  In27  1  0.51623777  0.16845141  -0.01812562  1
  In  In28  1  0.83602787  0.84589868  -0.01340599  1
  In  In29  1  -0.00562913  0.84157300  0.50372506  1
  In  In30  1  0.68086741  0.66122119  0.31743275  1
  In  In31  1  0.48757785  0.49415594  0.33131317  1
  In  In32  1  0.33472043  0.64135127  -0.00399677  1
  In  In33  1  0.84572010  0.19443126  0.68772411  1
  In  In34  1  0.49882814  0.63458685  0.17776910  1
  In  In35  1  0.81346384  0.82640949  0.33383000  1
  In  In36  1  0.82770120  0.17625843  0.00005329  1
  In  In37  1  0.17545377  0.34538111  0.50608170  1
  In  In38  1  0.80600254  0.01347281  0.51785589  1
  In  In39  1  -0.01288343  0.47762572  0.13722364  1
  In  In40  1  0.48743283  0.32409678  0.16569478  1
  In  In41  1  -0.00522760  0.65810457  0.33436728  1
  In  In42  1  0.67501959  0.16438161  0.82773072  1
  In  In43  1  0.51324164  0.01752965  0.15516960  1
  In  In44  1  0.50138988  0.83117247  -0.01374484  1
  In  In45  1  0.67504352  0.51163351  0.85161331  1
  In  In46  1  0.67918709  0.32976809  0.33552743  1
  In  In47  1  0.01511143  0.18304582  0.48354717  1
  In  In48  1  -0.01412912  0.01843027  0.30469948  1
  In  In49  1  0.14854016  0.82463579  0.00438098  1
  In  In50  1  0.66252162  0.17502755  0.48904484  1
  In  In51  1  0.16066999  0.17402166  0.33112772  1
  In  In52  1  0.35048601  0.00458948  0.00144745  1
  In  In53  1  0.68763864  0.47068071  0.12058077  1
  In  In54  1  0.17047319  0.48966668  0.31383327  1
  In  In55  1  0.15525022  0.01348078  0.18487232  1
  In  In56  1  0.65036230  0.48212608  0.50741197  1
  In  In57  1  0.67495088  0.83792678  0.83156229  1
  In  In58  1  0.67833186  0.83423820  0.15675401  1
  In  In59  1  0.47999501  0.18046185  0.66217436  1
  In  In60  1  0.32020706  0.33737817  0.33605124  1
  In  In61  1  0.20144671  0.01498159  0.51937233  1
  In  In62  1  0.18586237  0.82300183  0.68334006  1
  In  In63  1  0.17368953  0.48791354  0.00365121  1
  In  In64  1  0.17486034  0.86181482  0.32535731  1
  In  In65  1  0.81764184  0.65238857  0.50222318  1
  In  In66  1  0.32739076  0.82839741  0.18044952  1
  In  In67  1  0.00409460  0.63590661  0.68949116  1
  In  In68  1  0.66853465  0.34179921  0.66929400  1
  In  In69  1  0.65956237  -0.00579721  0.69066427  1
  In  In70  1  0.34683411  0.67663490  0.32583033  1
  In  In71  1  -0.03305464  0.01403278  -0.00486793  1
  Te  Te72  1  0.09017873  0.08663354  0.06782518  1
  Te  Te73  1  0.08933020  0.05730819  0.41307184  1
  Te  Te74  1  0.08398891  0.09489395  0.75791541  1
  Te  Te75  1  0.08126021  0.38679370  0.06358912  1
  Te  Te76  1  0.07637991  0.41597093  0.41330553  1
  Te  Te77  1  0.07516464  0.41413792  0.75199256  1
  Te  Te78  1  0.08102565  0.73443104  0.09859736  1
  Te  Te79  1  0.08603186  0.75161761  0.41716662  1
  Te  Te80  1  0.07196671  0.75635962  0.75923148  1
  Te  Te81  1  0.41583733  0.11288131  0.08599687  1
  Te  Te82  1  0.43215709  0.08784778  0.42879624  1
  Te  Te83  1  0.42759104  0.07368272  0.75057148  1
  Te  Te84  1  0.40682141  0.42447650  0.08244934  1
  Te  Te85  1  0.41820868  0.40753763  0.43361453  1
  Te  Te86  1  0.32723846  0.43912374  0.75246630  1
  Te  Te87  1  0.41774596  0.74702976  0.08685415  1
  Te  Te88  1  0.42466350  0.74030589  0.43744770  1
  Te  Te89  1  0.44477933  0.77072734  0.73870430  1
  Te  Te90  1  0.74804820  0.07398653  0.07139806  1
  Te  Te91  1  0.75636133  0.09344647  0.39887781  1
  Te  Te92  1  0.77460953  0.07509286  0.75186576  1
  Te  Te93  1  0.76796381  0.38657460  0.02706953  1
  Te  Te94  1  0.75526575  0.41860455  0.42698103  1
  Te  Te95  1  0.76294670  0.40817087  0.76720004  1
  Te  Te96  1  0.75093130  0.73823414  0.06771113  1
  Te  Te97  1  0.72305875  0.75422374  0.43383357  1
  Te  Te98  1  0.74441493  0.72905088  0.75688795  1
  Te  Te99  1  0.08987614  0.26500882  0.23436612  1
  Te  Te100  1  0.08048158  0.26300788  0.59485237  1
  Te  Te101  1  0.06369696  0.28718738  0.87481537  1
  Te  Te102  1  0.06766737  0.56961753  0.23360048  1
  Te  Te103  1  0.09818123  0.57618118  0.58202940  1
  Te  Te104  1  0.08274083  0.58283562  0.91394890  1
  Te  Te105  1  0.05941461  0.90423997  0.23331057  1
  Te  Te106  1  0.09532147  0.91653297  0.59066794  1
  Te  Te107  1  0.06467697  0.91675959  0.91769396  1
  Te  Te108  1  0.41803702  0.24603220  0.26960226  1
  Te  Te109  1  0.41316476  0.28203193  0.57962234  1
  Te  Te110  1  0.43440477  0.27174693  0.90189764  1
  Te  Te111  1  0.38328874  0.55666810  0.23756921  1
  Te  Te112  1  0.44621900  0.56432985  0.60750298  1
  Te  Te113  1  0.42097960  0.56058350  0.90348923  1
  Te  Te114  1  0.42158196  0.92776575  0.24880882  1
  Te  Te115  1  0.39602440  0.87882623  0.59864308  1
  Te  Te116  1  0.43210395  0.93349522  0.89611569  1
  Te  Te117  1  0.76866027  0.26668892  0.23467172  1
  Te  Te118  1  0.75816447  0.25580826  0.57952897  1
  Te  Te119  1  0.73588308  0.26797083  0.91980417  1
  Te  Te120  1  0.75065137  0.55256093  0.24011286  1
  Te  Te121  1  0.72646554  0.58087709  0.59939173  1
  Te  Te122  1  0.76172888  0.56903539  0.95703955  1
  Te  Te123  1  0.76164914  0.93319201  0.23697469  1
  Te  Te124  1  0.74137730  0.89727423  0.59238002  1
  Te  Te125  1  0.74163950  0.93935518  0.91821018  1
  Te  Te126  1  0.25082255  0.24534309  0.08442654  1
  Te  Te127  1  0.25215076  0.23432337  0.43448852  1
  Te  Te128  1  0.24036651  0.25599908  0.77444433  1
  Te  Te129  1  0.23724465  0.58920282  0.09213282  1
  Te  Te130  1  0.24718838  0.58101577  0.41470833  1
  Te  Te131  1  0.28607643  0.60284879  0.72667666  1
  Te  Te132  1  0.24974186  0.92161070  0.08570304  1
  Te  Te133  1  0.26622007  0.89737487  0.44040582  1
  Te  Te134  1  0.26437622  0.94366047  0.73699429  1
  Te  Te135  1  0.59284285  0.26363691  0.07343879  1
  Te  Te136  1  0.57300470  0.26510389  0.41512484  1
  Te  Te137  1  0.57563913  0.25590488  0.75506300  1
  Te  Te138  1  0.59944806  0.58962184  0.07477280  1
  Te  Te139  1  0.57675899  0.59170156  0.40814883  1
  Te  Te140  1  0.58546216  0.55968125  0.74205348  1
  Te  Te141  1  0.59412817  0.92467610  0.06614295  1
  Te  Te142  1  0.58606927  0.92936615  0.43985033  1
  Te  Te143  1  0.56592993  0.88742634  0.73840007  1
  Te  Te144  1  0.92392644  0.27555265  0.06545642  1
  Te  Te145  1  0.90286520  0.24661288  0.41439002  1
  Te  Te146  1  0.92934708  0.24784284  0.80000238  1
  Te  Te147  1  0.89640870  0.56670611  0.03983861  1
  Te  Te148  1  0.89622037  0.56448049  0.40386918  1
  Te  Te149  1  0.89690799  0.58080484  0.78018206  1
  Te  Te150  1  0.91787480  0.91432456  0.09084257  1
  Te  Te151  1  0.90226795  0.92464846  0.41580243  1
  Te  Te152  1  0.90873404  0.91843166  0.77568361  1
  Te  Te153  1  0.26506032  0.09710157  0.24736481  1
  Te  Te154  1  0.29485065  0.10452706  0.59007944  1
  Te  Te155  1  0.24771351  0.09376616  0.92970041  1
  Te  Te156  1  0.24096016  0.39591275  0.22502375  1
  Te  Te157  1  0.28917869  0.37512864  0.60500338  1
  Te  Te158  1  0.24851947  0.41898889  0.89139125  1
  Te  Te159  1  0.22770368  0.73730860  0.25002223  1
  Te  Te160  1  0.29680863  0.75489432  0.60368671  1
  Te  Te161  1  0.24997204  0.74818971  0.91389491  1
  Te  Te162  1  0.57566333  0.11074101  0.25788220  1
  Te  Te163  1  0.58797854  0.08549039  0.59001016  1
  Te  Te164  1  0.59374624  0.06719846  0.90690440  1
  Te  Te165  1  0.58370005  0.42641192  0.23421904  1
  Te  Te166  1  0.55560355  0.40939908  0.59704711  1
  Te  Te167  1  0.58850334  0.39882849  0.89969530  1
  Te  Te168  1  0.57485585  0.75909555  0.24574637  1
  Te  Te169  1  0.62167668  0.77463241  0.58442524  1
  Te  Te170  1  0.59414248  0.73265411  0.92080524  1
  Te  Te171  1  0.89203220  0.10927751  0.23802923  1
  Te  Te172  1  0.92347446  0.08979234  0.58088101  1
  Te  Te173  1  0.92626356  0.12041978  0.89731262  1
  Te  Te174  1  0.89205596  0.41368810  0.23191826  1
  Te  Te175  1  0.92025526  0.39595613  0.59762521  1
  Te  Te176  1  0.90281950  0.38406823  0.94590019  1
  Te  Te177  1  0.91005079  0.74895677  0.24446604  1
  Te  Te178  1  0.92669876  0.72837216  0.58230618  1
  Te  Te179  1  0.90896219  0.75778218  0.89024493  1
