# generated using pymatgen
data_In2Te3
_symmetry_space_group_name_H-M   'P 1'
_cell_length_a   18.98632437
_cell_length_b   18.97518229
_cell_length_c   18.98996482
_cell_angle_alpha   89.94969213
_cell_angle_beta   89.95378520
_cell_angle_gamma   90.03207155
_symmetry_Int_Tables_number   1
_chemical_formula_structural   In2Te3
_chemical_formula_sum   'In72 Te108'
_cell_volume   6841.48905401
_cell_formula_units_Z   36
loop_
 _symmetry_equiv_pos_site_id
 _symmetry_equiv_pos_as_xyz
  1  'x, y, z'
loop_
 _atom_site_type_symbol
 _atom_site_label
 _atom_site_symmetry_multiplicity
 _atom_site_fract_x
 _atom_site_fract_y
 _atom_site_fract_z
 _atom_site_occupancy
  In  In0  1  0.02883983  -0.01916570  0.31310527  1
  In  In1  1  -0.03406975  0.65262549  0.36315568  1
  In  In2  1  0.34696046  0.64445537  0.01139009  1
  In  In3  1  0.81642168  0.50227840  0.63567358  1
  In  In4  1  0.17893300  0.34299332  0.14894158  1
  In  In5  1  0.32090117  0.80364242  0.83066357  1
  In  In6  1  0.66793775  0.04073846  0.08583017  1
  In  In7  1  0.32130360  0.83834039  0.49980421  1
  In  In8  1  0.32102955  0.67062933  0.32999494  1
  In  In9  1  0.83172705  0.63356512  0.82578277  1
  In  In10  1  0.83711033  0.01640531  0.18598300  1
  In  In11  1  0.67513031  0.47524245  0.81881076  1
  In  In12  1  0.16228404  0.82460795  0.66908208  1
  In  In13  1  0.16445003  0.66821372  0.49437846  1
  In  In14  1  0.82997595  0.81879789  0.36006815  1
  In  In15  1  0.48852541  -0.00695229  0.48333809  1
  In  In16  1  0.31291046  0.16824563  0.82761389  1
  In  In17  1  0.16485074  0.85906006  0.00129182  1
  In  In18  1  0.83356965  0.83770220  -0.00024759  1
  In  In19  1  0.82321023  0.16239473  0.33375935  1
  In  In20  1  0.52465475  0.14734006  0.32193694  1
  In  In21  1  0.36015831  0.36691051  0.02129521  1
  In  In22  1  -0.02146713  0.30911783  0.03169008  1
  In  In23  1  0.35168735  0.18630791  0.19176140  1
  In  In24  1  0.67755636  -0.02534254  0.65289146  1
  In  In25  1  0.84374525  0.49791229  -0.00909026  1
  In  In26  1  0.01039036  0.84356939  0.50075719  1
  In  In27  1  0.16940481  0.48938135  0.30408357  1
  In  In28  1  -0.02136368  0.49420377  0.18700319  1
  In  In29  1  0.68837547  0.83096659  0.83476964  1
  In  In30  1  0.67445003  0.15441315  0.49901054  1
  In  In31  1  0.64991894  0.52047330  0.18866574  1
  In  In32  1  0.51913891  0.32382835  0.49924096  1
  In  In33  1  0.67476999  0.50883559  0.48458335  1
  In  In34  1  0.50751270  0.19873397  0.04374334  1
  In  In35  1  0.65666427  0.66170377  0.05258122  1
  In  In36  1  0.16851295  0.68283443  0.15185730  1
  In  In37  1  0.16702644  0.32341836  0.49355385  1
  In  In38  1  0.28528863  0.03417281  0.61062887  1
  In  In39  1  0.00803034  0.67840291  -0.02111471  1
  In  In40  1  0.82696939  0.68282260  0.18079945  1
  In  In41  1  0.82948784  0.17102368  0.65877182  1
  In  In42  1  0.50192121  0.49454225  0.66294794  1
  In  In43  1  0.49582953  0.17352419  0.68209095  1
  In  In44  1  0.50398486  0.50135587  0.34834742  1
  In  In45  1  -0.01071095  0.32550543  0.33504987  1
  In  In46  1  0.48656248  0.67684120  0.85786513  1
  In  In47  1  0.33491275  -0.00650002  0.01045161  1
  In  In48  1  -0.02023839  0.14570495  0.48723194  1
  In  In49  1  0.84297838  0.83795062  0.63350019  1
  In  In50  1  0.19045365  0.49198869  -0.00853467  1
  In  In51  1  0.65278998  0.16782199  0.85330223  1
  In  In52  1  -0.00595885  0.01438941  0.66323313  1
  In  In53  1  0.84490486  0.01269901  0.84400680  1
  In  In54  1  0.32282975  0.31648655  0.66280294  1
  In  In55  1  -0.00950472  0.47915268  0.81027377  1
  In  In56  1  0.33008943  -0.00615337  0.33734374  1
  In  In57  1  0.15961277  0.51841433  0.66499288  1
  In  In58  1  0.51987233  -0.00252405  0.84401936  1
  In  In59  1  0.14028745  0.00331443  0.81335050  1
  In  In60  1  0.50618426  0.32149877  0.83533293  1
  In  In61  1  0.16595411  0.66809852  0.81406786  1
  In  In62  1  0.69089258  0.32546032  0.01188023  1
  In  In63  1  0.50474080  0.83817426  0.33137208  1
  In  In64  1  0.14603631  0.16358458  0.02002311  1
  In  In65  1  0.15934639  0.18242785  0.33554044  1
  In  In66  1  -0.01679842  0.34254166  0.64861503  1
  In  In67  1  -0.00633995  -0.00106403  0.00350555  1
  In  In68  1  0.51563164  0.65320442  0.51796316  1
  In  In69  1  0.49337225  0.67336237  0.18304816  1
  In  In70  1  0.51290737  0.84991454  0.02809981  1
  In  In71  1  0.65598252  0.66415968  0.63805115  1
  Te  Te72  1  0.07567655  0.06850976  0.10582299  1
  Te  Te73  1  0.09894131  0.07370524  0.42455728  1
  Te  Te74  1  0.06177466  0.11115609  0.75210622  1
  Te  Te75  1  0.07238558  0.43586475  0.08142817  1
  Te  Te76  1  0.08368492  0.41919562  0.40724720  1
  Te  Te77  1  0.09450754  0.40010567  0.73737436  1
  Te  Te78  1  0.06677372  0.77202957  0.08099608  1
  Te  Te79  1  0.07809005  0.75028316  0.40173053  1
  Te  Te80  1  0.06639858  0.75287858  0.75254373  1
  Te  Te81  1  0.41902597  0.08514548  0.09592650  1
  Te  Te82  1  0.40867381  0.09900422  0.41332112  1
  Te  Te83  1  0.41644175  0.07333289  0.76314102  1
  Te  Te84  1  0.47226573  0.42274128  0.08976940  1
  Te  Te85  1  0.42755990  0.43096330  0.45429258  1
  Te  Te86  1  0.41510881  0.40384351  0.74812898  1
  Te  Te87  1  0.40831692  0.75961588  0.09078855  1
  Te  Te88  1  0.41470273  0.74423501  0.42562737  1
  Te  Te89  1  0.42104958  0.74159146  0.74496639  1
  Te  Te90  1  0.80158775  0.10406276  0.06652187  1
  Te  Te91  1  0.73974794  0.06186051  0.40374308  1
  Te  Te92  1  0.73271586  0.07485564  0.75423267  1
  Te  Te93  1  0.74424353  0.44489583  0.08958651  1
  Te  Te94  1  0.77096420  0.45963708  0.38276255  1
  Te  Te95  1  0.78186200  0.41089142  0.74529985  1
  Te  Te96  1  0.73781011  0.77838264  0.10416550  1
  Te  Te97  1  0.74982353  0.70343215  0.40539845  1
  Te  Te98  1  0.75529238  0.73709112  0.73704693  1
  Te  Te99  1  0.08247671  0.26108297  0.22984806  1
  Te  Te100  1  0.06834722  0.23712582  0.57153205  1
  Te  Te101  1  0.08298768  0.26599719  0.93801529  1
  Te  Te102  1  0.07289448  0.59729024  0.24654196  1
  Te  Te103  1  0.07004843  0.59282168  0.57642748  1
  Te  Te104  1  0.07607111  0.56311928  0.90721588  1
  Te  Te105  1  0.12436255  0.92365538  0.21841279  1
  Te  Te106  1  0.09696981  0.93294547  0.58625775  1
  Te  Te107  1  0.06280406  0.90820971  0.90133487  1
  Te  Te108  1  0.45097453  0.26197337  0.26631873  1
  Te  Te109  1  0.41496663  0.23688155  0.57204205  1
  Te  Te110  1  0.42537749  0.22258463  0.91502876  1
  Te  Te111  1  0.40685920  0.57238585  0.25330644  1
  Te  Te112  1  0.41115850  0.56407019  0.57003372  1
  Te  Te113  1  0.40372016  0.56548284  0.90288576  1
  Te  Te114  1  0.41415181  0.91558595  0.24667449  1
  Te  Te115  1  0.39941916  0.93205151  0.58913756  1
  Te  Te116  1  0.41620368  0.90149779  0.91343802  1
  Te  Te117  1  0.75561033  0.22513320  0.21649774  1
  Te  Te118  1  0.74847008  0.25693026  0.57320748  1
  Te  Te119  1  0.75789203  0.25451911  0.90313080  1
  Te  Te120  1  0.76610858  0.57838412  0.26734106  1
  Te  Te121  1  0.76707010  0.62730802  0.53939974  1
  Te  Te122  1  0.73400133  0.59409075  0.93505846  1
  Te  Te123  1  0.76515997  0.92750376  0.28172299  1
  Te  Te124  1  0.73086433  0.88346318  0.55100504  1
  Te  Te125  1  0.74199513  0.93616111  0.92905005  1
  Te  Te126  1  0.27031669  0.24535538  0.07104087  1
  Te  Te127  1  0.25712630  0.28252639  0.38364882  1
  Te  Te128  1  0.22539811  0.22629554  0.72751056  1
  Te  Te129  1  0.25655869  0.56695965  0.10496308  1
  Te  Te130  1  0.24398533  0.56925169  0.41112933  1
  Te  Te131  1  0.26028921  0.57578811  0.75591290  1
  Te  Te132  1  0.23658435  0.93370063  0.10927265  1
  Te  Te133  1  0.23247629  0.91939958  0.41864416  1
  Te  Te134  1  0.25121932  0.91720074  0.75569455  1
  Te  Te135  1  0.62113954  0.25163674  0.12262810  1
  Te  Te136  1  0.60887408  0.25141059  0.40217548  1
  Te  Te137  1  0.60479117  0.26028747  0.73891480  1
  Te  Te138  1  0.54279131  0.56178651  0.07610448  1
  Te  Te139  1  0.59764666  0.61144206  0.39850756  1
  Te  Te140  1  0.59133017  0.58353387  0.75450210  1
  Te  Te141  1  0.57637672  0.93060567  0.13484381  1
  Te  Te142  1  0.59170009  0.93827210  0.39672320  1
  Te  Te143  1  0.58303545  0.89819096  0.74931054  1
  Te  Te144  1  0.86746527  0.24660603  0.11023800  1
  Te  Te145  1  0.89348480  0.25703036  0.43183905  1
  Te  Te146  1  0.93046252  0.23906343  0.74050712  1
  Te  Te147  1  0.91500380  0.60350787  0.07676575  1
  Te  Te148  1  0.90808526  0.52510509  0.41191702  1
  Te  Te149  1  0.92271768  0.57912272  0.72033185  1
  Te  Te150  1  0.91437168  0.91214670  0.10095042  1
  Te  Te151  1  0.92542862  0.92911292  0.41161316  1
  Te  Te152  1  0.90959781  0.91729629  0.74494940  1
  Te  Te153  1  0.24873836  0.09438636  0.25080726  1
  Te  Te154  1  0.20213467  0.13162937  0.54539919  1
  Te  Te155  1  0.23607206  0.06955919  0.92131460  1
  Te  Te156  1  0.27179139  0.39720690  0.24992979  1
  Te  Te157  1  0.24409765  0.41723850  0.58272312  1
  Te  Te158  1  0.26240158  0.39059271  0.91545534  1
  Te  Te159  1  0.24409637  0.76366542  0.24685615  1
  Te  Te160  1  0.25804626  0.73633985  0.59271518  1
  Te  Te161  1  0.23682373  0.73688756  0.94052041  1
  Te  Te162  1  0.60609389  0.07055005  0.22348882  1
  Te  Te163  1  0.57348333  0.07547124  0.59352172  1
  Te  Te164  1  0.58160169  0.07884488  0.95628509  1
  Te  Te165  1  0.59737835  0.41459581  0.27463239  1
  Te  Te166  1  0.60582644  0.41793273  0.58437395  1
  Te  Te167  1  0.59097114  0.40869744  0.92346709  1
  Te  Te168  1  0.59467057  0.74794255  0.25563024  1
  Te  Te169  1  0.58002831  0.77327690  0.57397446  1
  Te  Te170  1  0.59363914  0.75614717  0.93508018  1
  Te  Te171  1  0.94211082  0.09469462  0.26271993  1
  Te  Te172  1  0.88472882  0.06134736  0.57017076  1
  Te  Te173  1  0.93165233  0.10266657  0.91890942  1
  Te  Te174  1  0.89467818  0.38562886  0.23742106  1
  Te  Te175  1  0.91666731  0.43294640  0.54984518  1
  Te  Te176  1  0.91942823  0.39423304  0.91402132  1
  Te  Te177  1  0.92988126  0.75873873  0.25913965  1
  Te  Te178  1  0.93133007  0.74098327  0.56987634  1
  Te  Te179  1  0.90287386  0.75020183  0.89740973  1
