# generated using pymatgen
data_In2Te3
_symmetry_space_group_name_H-M   'P 1'
_cell_length_a   18.75584238
_cell_length_b   18.75266667
_cell_length_c   18.76089727
_cell_angle_alpha   89.99527844
_cell_angle_beta   90.01866915
_cell_angle_gamma   90.04217485
_symmetry_Int_Tables_number   1
_chemical_formula_structural   In2Te3
_chemical_formula_sum   'In72 Te108'
_cell_volume   6598.61927796
_cell_formula_units_Z   36
loop_
 _symmetry_equiv_pos_site_id
 _symmetry_equiv_pos_as_xyz
  1  'x, y, z'
loop_
 _atom_site_type_symbol
 _atom_site_label
 _atom_site_symmetry_multiplicity
 _atom_site_fract_x
 _atom_site_fract_y
 _atom_site_fract_z
 _atom_site_occupancy
  In  In0  1  0.49987502  0.51443288  0.66897709  1
  In  In1  1  -0.00591249  0.49402379  0.20289129  1
  In  In2  1  0.15857770  -0.01693414  0.18119560  1
  In  In3  1  0.17575823  0.82501837  0.67253024  1
  In  In4  1  0.15164546  0.50386054  0.67977290  1
  In  In5  1  0.30763046  0.80589807  0.87192306  1
  In  In6  1  0.52414295  0.82249394  0.65973175  1
  In  In7  1  0.67424212  0.51534264  0.50174656  1
  In  In8  1  0.84861110  0.18459547  0.66565263  1
  In  In9  1  0.00039045  0.34130805  0.66377899  1
  In  In10  1  -0.00933256  0.00718829  0.67741616  1
  In  In11  1  0.48659020  0.65759430  0.83450701  1
  In  In12  1  0.32419207  0.50891580  0.84773311  1
  In  In13  1  0.33921122  0.81328980  0.48374753  1
  In  In14  1  0.50289043  0.19238826  0.70035573  1
  In  In15  1  0.00310422  0.48489013  0.47185635  1
  In  In16  1  0.17173560  0.35031289  0.16167207  1
  In  In17  1  -0.00267480  0.83396836  0.84308934  1
  In  In18  1  0.33191111  0.34710641  0.67409732  1
  In  In19  1  0.83660858  0.48837381  0.00944496  1
  In  In20  1  0.84340436  0.65685699  0.48574235  1
  In  In21  1  0.69417528  0.32686842  0.33777012  1
  In  In22  1  0.84521413  0.00315551  0.84732618  1
  In  In23  1  0.84208948  0.34217517  0.83669939  1
  In  In24  1  0.71100746  0.17798575  0.18812279  1
  In  In25  1  0.32089470  0.01313233  -0.01071606  1
  In  In26  1  0.68277900  0.81606237  0.48837493  1
  In  In27  1  0.65809283  -0.00434636  0.66109596  1
  In  In28  1  0.35008148  -0.02233240  0.30703471  1
  In  In29  1  0.31430778  0.50834502  0.49543460  1
  In  In30  1  0.50011433  0.33909903  0.15833615  1
  In  In31  1  -0.01414993  0.16983731  0.16082824  1
  In  In32  1  0.51917111  0.14855610  0.34019465  1
  In  In33  1  0.84533308  -0.01694102  0.16684214  1
  In  In34  1  0.48806405  0.35208674  0.50516152  1
  In  In35  1  0.31906318  0.80928228  0.12944787  1
  In  In36  1  0.69953545  0.15238184  0.51159334  1
  In  In37  1  0.33052753  0.66272475  0.33218819  1
  In  In38  1  0.01456426  0.65939914  -0.01273110  1
  In  In39  1  0.29457617  0.33185877  0.30009695  1
  In  In40  1  0.67289290  0.35254558  -0.01039128  1
  In  In41  1  0.67625908  0.67223248  0.02138984  1
  In  In42  1  0.49335857  0.83548689  0.01315788  1
  In  In43  1  0.85229961  -0.01024803  0.48215896  1
  In  In44  1  0.66162190  0.48811111  0.82705998  1
  In  In45  1  0.32028018  -0.00852460  0.68542999  1
  In  In46  1  0.15030585  0.02876649  0.48482897  1
  In  In47  1  0.50396337  0.51811723  0.33916843  1
  In  In48  1  0.13889367  0.16955250  0.31899131  1
  In  In49  1  0.53266327  -0.03151682  0.49864792  1
  In  In50  1  0.68905270  0.83058089  0.82694668  1
  In  In51  1  0.66615730  -0.00633271  0.02295793  1
  In  In52  1  0.31178308  0.34739836  -0.01021466  1
  In  In53  1  0.66386880  0.17474589  0.84290529  1
  In  In54  1  0.14995527  0.82418610  0.33511199  1
  In  In55  1  0.00300050  0.82912679  0.48388894  1
  In  In56  1  0.49464884  -0.03032899  0.16844281  1
  In  In57  1  0.69066712  -0.01680083  0.34022991  1
  In  In58  1  0.49974591  0.16926274  -0.00701962  1
  In  In59  1  0.30159439  0.52313847  0.14254122  1
  In  In60  1  0.84820353  0.33176541  0.49377651  1
  In  In61  1  0.68783560  0.52548702  0.16346191  1
  In  In62  1  0.32074457  0.17241481  0.83259925  1
  In  In63  1  -0.00874180  -0.00623571  0.00520195  1
  In  In64  1  0.01399964  0.32440127  -0.00720986  1
  In  In65  1  0.14355107  0.17569757  0.67647353  1
  In  In66  1  0.84215793  0.67321223  0.81848281  1
  In  In67  1  0.31369591  0.17621137  0.46215750  1
  In  In68  1  0.34431072  0.66031913  0.64545405  1
  In  In69  1  0.31706480  0.20065320  0.15119202  1
  In  In70  1  0.85081928  0.68632359  0.19739650  1
  In  In71  1  -0.01077616  0.65706896  0.66424212  1
  Te  Te72  1  0.09121092  0.08398147  0.09066811  1
  Te  Te73  1  0.04757219  0.07056897  0.38532822  1
  Te  Te74  1  0.08324574  0.07640232  0.76846705  1
  Te  Te75  1  0.07336232  0.43609993  0.08321139  1
  Te  Te76  1  0.09782153  0.39384513  0.40546168  1
  Te  Te77  1  0.07922075  0.41119925  0.76880606  1
  Te  Te78  1  0.10242645  0.73061769  0.08552427  1
  Te  Te79  1  0.06690851  0.71806541  0.40438418  1
  Te  Te80  1  0.08263888  0.73927314  0.75672536  1
  Te  Te81  1  0.41501000  0.08523948  0.09439659  1
  Te  Te82  1  0.42020873  0.06597747  0.42346053  1
  Te  Te83  1  0.42109750  0.07864406  0.76317110  1
  Te  Te84  1  0.40746181  0.42904045  0.07793804  1
  Te  Te85  1  0.39575708  0.41147242  0.39789890  1
  Te  Te86  1  0.42497919  0.42420425  0.76633466  1
  Te  Te87  1  0.41575651  0.71671431  0.06232158  1
  Te  Te88  1  0.44192503  0.73196579  0.41168653  1
  Te  Te89  1  0.40238057  0.76186044  0.74797891  1
  Te  Te90  1  0.77118396  0.08958365  0.07855491  1
  Te  Te91  1  0.77647849  0.09773507  0.39533338  1
  Te  Te92  1  0.75119737  0.08606382  0.74297839  1
  Te  Te93  1  0.75733336  0.40206315  0.10749836  1
  Te  Te94  1  0.77011638  0.43738832  0.40947544  1
  Te  Te95  1  0.76525047  0.42613652  0.74293920  1
  Te  Te96  1  0.75922209  0.76225391  0.10548267  1
  Te  Te97  1  0.76642790  0.74477509  0.38897591  1
  Te  Te98  1  0.74976339  0.74322308  0.72531652  1
  Te  Te99  1  0.06413325  0.27852926  0.24444956  1
  Te  Te100  1  0.06297654  0.24212953  0.57215523  1
  Te  Te101  1  0.11247955  0.23691012  0.92499945  1
  Te  Te102  1  0.10044864  0.56816288  0.27449273  1
  Te  Te103  1  0.08132797  0.58166452  0.57010742  1
  Te  Te104  1  0.12584127  0.58334520  0.91719677  1
  Te  Te105  1  0.05107390  0.89713450  0.24385373  1
  Te  Te106  1  0.08972405  0.91994081  0.58460288  1
  Te  Te107  1  0.08940724  0.91316924  0.92604589  1
  Te  Te108  1  0.42517328  0.24304581  0.26197233  1
  Te  Te109  1  0.40329920  0.24641092  0.58066330  1
  Te  Te110  1  0.41660135  0.26514071  0.91080566  1
  Te  Te111  1  0.41478059  0.58171663  0.23293811  1
  Te  Te112  1  0.43623040  0.58502792  0.54958393  1
  Te  Te113  1  0.39581221  0.60271300  0.94023616  1
  Te  Te114  1  0.42229121  0.85142830  0.24582834  1
  Te  Te115  1  0.40875084  0.91194971  0.58695426  1
  Te  Te116  1  0.41053280  0.91531988  0.91286678  1
  Te  Te117  1  0.81625068  0.26545406  0.26389725  1
  Te  Te118  1  0.74429486  0.27039328  0.59472290  1
  Te  Te119  1  0.76532887  0.24645546  0.93105300  1
  Te  Te120  1  0.75068559  0.60206026  0.27326274  1
  Te  Te121  1  0.76358283  0.59154676  0.59308211  1
  Te  Te122  1  0.75208218  0.58259215  0.92200024  1
  Te  Te123  1  0.75067788  0.89179831  0.24092349  1
  Te  Te124  1  0.75715093  0.91565236  0.57880099  1
  Te  Te125  1  0.76173779  0.91027756  0.93565452  1
  Te  Te126  1  0.20845859  0.24156396  0.04756009  1
  Te  Te127  1  0.20446816  0.27782146  0.42032865  1
  Te  Te128  1  0.23047343  0.27284905  0.76047303  1
  Te  Te129  1  0.20354116  0.61135914  0.06702787  1
  Te  Te130  1  0.22435943  0.59284036  0.41199930  1
  Te  Te131  1  0.24990885  0.59984971  0.74870790  1
  Te  Te132  1  0.22979741  0.91323031  0.06347920  1
  Te  Te133  1  0.24423199  0.92199800  0.41756762  1
  Te  Te134  1  0.23437429  0.91239131  0.78363268  1
  Te  Te135  1  0.59537380  0.23777596  0.09167182  1
  Te  Te136  1  0.58782807  0.25266735  0.42815401  1
  Te  Te137  1  0.59819042  0.28226350  0.76552804  1
  Te  Te138  1  0.57640865  0.58786821  0.09125278  1
  Te  Te139  1  0.60937456  0.60305804  0.39765880  1
  Te  Te140  1  0.59711662  0.60354138  0.74450332  1
  Te  Te141  1  0.60501169  0.88069014  0.10737293  1
  Te  Te142  1  0.57441174  0.88560184  0.37791135  1
  Te  Te143  1  0.57750326  0.91958060  0.76452297  1
  Te  Te144  1  0.90749771  0.26121770  0.07399655  1
  Te  Te145  1  0.92136723  0.26505399  0.38447521  1
  Te  Te146  1  0.93829618  0.24126385  0.77179075  1
  Te  Te147  1  0.91662302  0.58823588  0.09513392  1
  Te  Te148  1  0.94308722  0.59623531  0.38921082  1
  Te  Te149  1  0.93317914  0.56788519  0.76920585  1
  Te  Te150  1  0.93258837  0.88790499  0.09182370  1
  Te  Te151  1  0.89950838  0.88312647  0.38748383  1
  Te  Te152  1  0.90093717  0.90418272  0.74458809  1
  Te  Te153  1  0.25473445  0.09235825  0.25385469  1
  Te  Te154  1  0.25097464  0.08919655  0.58785606  1
  Te  Te155  1  0.22155758  0.09251174  0.91114199  1
  Te  Te156  1  0.21631457  0.46525642  0.26360091  1
  Te  Te157  1  0.23137008  0.41337258  0.58168070  1
  Te  Te158  1  0.21384552  0.43720157  0.92084395  1
  Te  Te159  1  0.23510195  0.74138766  0.23875996  1
  Te  Te160  1  0.23541050  0.73425584  0.56498107  1
  Te  Te161  1  0.20628292  0.72172908  0.94789644  1
  Te  Te162  1  0.59996897  0.07145628  0.23655859  1
  Te  Te163  1  0.56983747  0.09866355  0.58782440  1
  Te  Te164  1  0.58305845  0.06661438  0.91642948  1
  Te  Te165  1  0.59008933  0.41172638  0.25930252  1
  Te  Te166  1  0.59185628  0.41826650  0.59297114  1
  Te  Te167  1  0.56859208  0.43634094  0.93033500  1
  Te  Te168  1  0.54139768  0.75956752  0.28527364  1
  Te  Te169  1  0.59068095  0.73089146  0.56754851  1
  Te  Te170  1  0.58384563  0.75253667  0.91171657  1
  Te  Te171  1  0.93297027  0.06698952  0.25679783  1
  Te  Te172  1  0.92620261  0.09429030  0.56912983  1
  Te  Te173  1  0.93139891  0.09869063  0.91713950  1
  Te  Te174  1  0.90929437  0.39407931  0.27517105  1
  Te  Te175  1  0.91045180  0.43717415  0.58598684  1
  Te  Te176  1  0.93867696  0.43686875  0.91054301  1
  Te  Te177  1  0.95024847  0.77610647  0.26455435  1
  Te  Te178  1  0.91152755  0.76045206  0.58421686  1
  Te  Te179  1  0.90450690  0.75185487  0.93359955  1
