# generated using pymatgen
data_In2Te3
_symmetry_space_group_name_H-M   'P 1'
_cell_length_a   18.92273343
_cell_length_b   18.92638240
_cell_length_c   18.93249236
_cell_angle_alpha   90.09917242
_cell_angle_beta   90.07934636
_cell_angle_gamma   89.99403156
_symmetry_Int_Tables_number   1
_chemical_formula_structural   In2Te3
_chemical_formula_sum   'In72 Te108'
_cell_volume   6780.44508868
_cell_formula_units_Z   36
loop_
 _symmetry_equiv_pos_site_id
 _symmetry_equiv_pos_as_xyz
  1  'x, y, z'
loop_
 _atom_site_type_symbol
 _atom_site_label
 _atom_site_symmetry_multiplicity
 _atom_site_fract_x
 _atom_site_fract_y
 _atom_site_fract_z
 _atom_site_occupancy
  In  In0  1  0.66595036  0.00003744  0.64791249  1
  In  In1  1  0.17073690  0.66630060  0.51180162  1
  In  In2  1  0.63511563  -0.00509211  0.00950109  1
  In  In3  1  0.85387870  -0.00869540  0.84710399  1
  In  In4  1  0.17320644  0.17658351  0.32420736  1
  In  In5  1  0.85791524  0.82296004  0.32127005  1
  In  In6  1  0.64576218  0.33340565  -0.00043769  1
  In  In7  1  0.66828458  0.16693317  0.83795727  1
  In  In8  1  0.81054603  -0.01863675  0.49544523  1
  In  In9  1  -0.01367321  0.35713349  0.34161424  1
  In  In10  1  0.32450566  0.64196926  0.00092531  1
  In  In11  1  0.82370162  0.51432858  0.33298801  1
  In  In12  1  0.33346607  0.50378707  0.48642752  1
  In  In13  1  0.50713526  0.51062649  0.65686268  1
  In  In14  1  0.32143180  0.18937237  0.82269421  1
  In  In15  1  0.15379427  0.81289942  0.01159129  1
  In  In16  1  0.48334447  0.16947730  0.32082822  1
  In  In17  1  0.01628929  -0.00843339  0.64911953  1
  In  In18  1  0.47590704  0.35152396  0.49942748  1
  In  In19  1  0.82859277  0.16579075  -0.00453581  1
  In  In20  1  0.52089240  0.82744795  0.33090101  1
  In  In21  1  0.71103063  0.79671745  0.81307618  1
  In  In22  1  0.32845050  0.83682001  0.16221050  1
  In  In23  1  -0.01558885  0.64779159  0.66385936  1
  In  In24  1  0.52759679  0.33639346  0.81558937  1
  In  In25  1  0.48585693  -0.01376649  0.82150117  1
  In  In26  1  0.33045787  0.50645246  0.17236024  1
  In  In27  1  -0.01366514  0.18214227  0.48861449  1
  In  In28  1  0.83926809  0.18907625  0.67177433  1
  In  In29  1  0.68296092  0.50561667  0.82161416  1
  In  In30  1  0.83157394  0.49506003  0.64560988  1
  In  In31  1  0.48118028  0.18617545  0.03259415  1
  In  In32  1  0.14458315  0.33803786  0.48628932  1
  In  In33  1  0.05189645  0.34822319  -0.01321355  1
  In  In34  1  0.19080190  0.17506311  0.68838574  1
  In  In35  1  0.68396732  0.34799240  0.34386532  1
  In  In36  1  0.82991210  0.82144152  0.00997870  1
  In  In37  1  0.64995119  0.50893919  0.16163680  1
  In  In38  1  0.14837019  0.82319033  0.65985331  1
  In  In39  1  0.00029682  0.36254549  0.67621342  1
  In  In40  1  0.86696601  0.49190020  0.00930799  1
  In  In41  1  0.51114685  0.80915286  0.66449435  1
  In  In42  1  0.17729526  0.35965736  0.16725712  1
  In  In43  1  0.48984240  0.34203723  0.18508651  1
  In  In44  1  0.64303075  0.63478946  0.36238690  1
  In  In45  1  0.67324926  0.66840389  0.01642389  1
  In  In46  1  0.31355885  0.30866130  0.67920732  1
  In  In47  1  0.03224227  0.63715919  0.30762635  1
  In  In48  1  0.00926217  0.63368909  -0.02354158  1
  In  In49  1  0.31137440  0.34720254  0.00128628  1
  In  In50  1  0.17714706  0.01912776  0.84187028  1
  In  In51  1  0.81378841  -0.01504535  0.17292824  1
  In  In52  1  0.32068710  0.49890026  0.84233654  1
  In  In53  1  0.50789152  0.82805642  -0.00472952  1
  In  In54  1  -0.00561090  0.01884316  0.00746991  1
  In  In55  1  0.32385845  0.85079690  0.49174372  1
  In  In56  1  0.84430524  0.67155249  0.50916139  1
  In  In57  1  0.35246604  0.82145418  0.84203373  1
  In  In58  1  0.17260617  0.50166774  0.68798035  1
  In  In59  1  0.33814265  0.15799865  0.50385536  1
  In  In60  1  0.65296349  0.35027416  0.64169584  1
  In  In61  1  0.83511553  0.32219180  0.17983427  1
  In  In62  1  0.16743700  0.83087817  0.33857384  1
  In  In63  1  0.34192496  0.67863955  0.32365007  1
  In  In64  1  0.33882051  -0.01934893  0.66443360  1
  In  In65  1  0.65284424  0.82716509  0.49562979  1
  In  In66  1  0.16369469  0.00661716  0.18878432  1
  In  In67  1  -0.01088339  0.15531920  0.16734830  1
  In  In68  1  0.00808148  0.81911603  0.82310043  1
  In  In69  1  0.65706884  0.15968633  0.50556314  1
  In  In70  1  -0.00128538  -0.00220368  0.33571506  1
  In  In71  1  0.49148427  -0.00036796  0.17441721  1
  Te  Te72  1  0.09928458  0.09783486  0.08126270  1
  Te  Te73  1  0.08549158  0.09195355  0.41699141  1
  Te  Te74  1  0.07946740  0.08816031  0.74902155  1
  Te  Te75  1  0.07148016  0.44425039  0.10112730  1
  Te  Te76  1  0.09265656  0.44133195  0.39807934  1
  Te  Te77  1  0.06195419  0.45582462  0.78017304  1
  Te  Te78  1  0.05233231  0.73369003  0.08018654  1
  Te  Te79  1  0.07719430  0.73837856  0.41679871  1
  Te  Te80  1  0.09337192  0.71757989  0.75270565  1
  Te  Te81  1  0.40491388  0.07134890  0.07822117  1
  Te  Te82  1  0.42716162  0.07737468  0.42143035  1
  Te  Te83  1  0.41010459  0.08960669  0.74266072  1
  Te  Te84  1  0.41843496  0.42341256  0.07776858  1
  Te  Te85  1  0.39993429  0.41387380  0.38833613  1
  Te  Te86  1  0.42040988  0.40908105  0.73478387  1
  Te  Te87  1  0.41227042  0.74450315  0.07735079  1
  Te  Te88  1  0.42288371  0.75654423  0.42571835  1
  Te  Te89  1  0.42657024  0.73034643  0.75568667  1
  Te  Te90  1  0.73798873  0.08277781  0.08173144  1
  Te  Te91  1  0.73488543  0.07505038  0.41330362  1
  Te  Te92  1  0.75970624  0.07649024  0.75363915  1
  Te  Te93  1  0.74790641  0.41313013  0.08261503  1
  Te  Te94  1  0.75544275  0.43707300  0.43694267  1
  Te  Te95  1  0.75445735  0.39855057  0.74238906  1
  Te  Te96  1  0.73614839  0.76679831  0.10746780  1
  Te  Te97  1  0.74873845  0.74234181  0.40558448  1
  Te  Te98  1  0.78928719  0.69512877  0.74171964  1
  Te  Te99  1  0.06747487  0.25686151  0.24946350  1
  Te  Te100  1  0.08895051  0.24011995  0.58878289  1
  Te  Te101  1  0.12810022  0.24595651  0.91661321  1
  Te  Te102  1  0.10689121  0.55932617  0.20395162  1
  Te  Te103  1  0.08325739  0.56482582  0.58163107  1
  Te  Te104  1  0.10689026  0.55363420  0.89758823  1
  Te  Te105  1  0.06958347  0.90165367  0.24259395  1
  Te  Te106  1  0.10189743  0.91636292  0.55769163  1
  Te  Te107  1  0.07582804  0.92093822  0.91566097  1
  Te  Te108  1  0.39264084  0.23908193  0.22577900  1
  Te  Te109  1  0.42347559  0.24584055  0.59496466  1
  Te  Te110  1  0.42634991  0.26804341  0.90858197  1
  Te  Te111  1  0.43243174  0.59424724  0.24019725  1
  Te  Te112  1  0.42308771  0.59592949  0.56341597  1
  Te  Te113  1  0.42204065  0.58112177  0.90986893  1
  Te  Te114  1  0.40868789  0.91018283  0.26655540  1
  Te  Te115  1  0.43980879  0.91045125  0.57683166  1
  Te  Te116  1  0.40766127  0.92663213  0.93680889  1
  Te  Te117  1  0.74602241  0.24219800  0.26222794  1
  Te  Te118  1  0.75406735  0.25976934  0.56989948  1
  Te  Te119  1  0.75268545  0.26832283  0.91170725  1
  Te  Te120  1  0.73896179  0.60089134  0.24337614  1
  Te  Te121  1  0.74163677  0.60636219  0.59769335  1
  Te  Te122  1  0.75964906  0.57391484  0.93387806  1
  Te  Te123  1  0.74219169  0.90165714  0.27070318  1
  Te  Te124  1  0.75210391  0.88713882  0.59932772  1
  Te  Te125  1  0.74204057  0.92230332  0.92260701  1
  Te  Te126  1  0.25021599  0.25412444  0.09585490  1
  Te  Te127  1  0.25657841  0.25799277  0.42208993  1
  Te  Te128  1  0.20532808  0.29577159  0.79331218  1
  Te  Te129  1  0.22606066  0.59155260  0.10448498  1
  Te  Te130  1  0.24361617  0.59149448  0.40069042  1
  Te  Te131  1  0.27917033  0.59003638  0.73461307  1
  Te  Te132  1  0.23421288  0.92161328  0.07944909  1
  Te  Te133  1  0.24453124  0.93696560  0.40404430  1
  Te  Te134  1  0.24420601  0.90671402  0.76101640  1
  Te  Te135  1  0.59278141  0.24881264  0.11205514  1
  Te  Te136  1  0.57297434  0.26180003  0.41970853  1
  Te  Te137  1  0.59298751  0.23424641  0.72530324  1
  Te  Te138  1  0.56385247  0.58834920  0.07419622  1
  Te  Te139  1  0.53758675  0.59278148  0.45727860  1
  Te  Te140  1  0.59025702  0.59161163  0.74654212  1
  Te  Te141  1  0.58574709  0.89231043  0.10809725  1
  Te  Te142  1  0.60755560  0.92819015  0.39769159  1
  Te  Te143  1  0.59636330  0.90803865  0.75623036  1
  Te  Te144  1  0.92444000  0.25778098  0.07224571  1
  Te  Te145  1  0.89730642  0.25475183  0.39912580  1
  Te  Te146  1  0.93570507  0.25822590  0.75684682  1
  Te  Te147  1  0.91210654  0.60883092  0.08781745  1
  Te  Te148  1  0.92814545  0.58906116  0.41349807  1
  Te  Te149  1  0.89117959  0.57797249  0.75846526  1
  Te  Te150  1  0.92079612  0.91652539  0.08950367  1
  Te  Te151  1  0.92521997  0.90542694  0.43076882  1
  Te  Te152  1  0.92052542  0.90953445  0.73826083  1
  Te  Te153  1  0.26668235  0.08569530  0.25632412  1
  Te  Te154  1  0.24437551  0.07219849  0.58874082  1
  Te  Te155  1  0.26986838  0.09668453  0.92392465  1
  Te  Te156  1  0.27128778  0.41107500  0.26967169  1
  Te  Te157  1  0.25054934  0.41122117  0.58304783  1
  Te  Te158  1  0.21927507  0.45323009  0.94500509  1
  Te  Te159  1  0.23499296  0.74269304  0.23514620  1
  Te  Te160  1  0.26547508  0.75295632  0.59275961  1
  Te  Te161  1  0.24486252  0.74065557  0.91500113  1
  Te  Te162  1  0.58173576  0.09137647  0.24346624  1
  Te  Te163  1  0.56211078  0.07773518  0.58289971  1
  Te  Te164  1  0.56144641  0.09416738  0.91735234  1
  Te  Te165  1  0.57916238  0.43136424  0.27107617  1
  Te  Te166  1  0.59074195  0.44549768  0.54081048  1
  Te  Te167  1  0.57726983  0.43801186  0.91595923  1
  Te  Te168  1  0.55563990  0.70169449  0.25816450  1
  Te  Te169  1  0.61167077  0.72420297  0.59479502  1
  Te  Te170  1  0.60025571  0.74868973  0.90453168  1
  Te  Te171  1  0.89694403  0.08094102  0.25997953  1
  Te  Te172  1  0.90624054  0.07866666  0.57924659  1
  Te  Te173  1  0.93384492  0.10895792  0.90092366  1
  Te  Te174  1  0.91298658  0.43869980  0.23574591  1
  Te  Te175  1  0.92302523  0.41415234  0.56385300  1
  Te  Te176  1  0.94156367  0.41155020  0.91040243  1
  Te  Te177  1  0.93325872  0.72465738  0.24014849  1
  Te  Te178  1  0.93338875  0.76013089  0.58539466  1
  Te  Te179  1  0.91413344  0.74210379  0.91265946  1
