# generated using pymatgen
data_In2Te3
_symmetry_space_group_name_H-M   'P 1'
_cell_length_a   19.08924079
_cell_length_b   19.03760611
_cell_length_c   19.06445790
_cell_angle_alpha   90.28390357
_cell_angle_beta   90.29029580
_cell_angle_gamma   89.95844355
_symmetry_Int_Tables_number   1
_chemical_formula_structural   In2Te3
_chemical_formula_sum   'In72 Te108'
_cell_volume   6928.10468505
_cell_formula_units_Z   36
loop_
 _symmetry_equiv_pos_site_id
 _symmetry_equiv_pos_as_xyz
  1  'x, y, z'
loop_
 _atom_site_type_symbol
 _atom_site_label
 _atom_site_symmetry_multiplicity
 _atom_site_fract_x
 _atom_site_fract_y
 _atom_site_fract_z
 _atom_site_occupancy
  In  In0  1  0.83398065  0.33029106  0.81910875  1
  In  In1  1  0.66822091  0.86065962  0.81411309  1
  In  In2  1  0.17046242  0.01479703  0.16071917  1
  In  In3  1  0.82734512  0.85047928  0.35190013  1
  In  In4  1  -0.00034339  0.83627848  0.12675012  1
  In  In5  1  0.15820984  0.84410952  0.33064573  1
  In  In6  1  0.34586758  0.83275757  0.51179415  1
  In  In7  1  0.14264436  0.66952367  0.50847657  1
  In  In8  1  0.51774907  0.15912449  0.65113142  1
  In  In9  1  0.81771456  0.31994103  0.48843581  1
  In  In10  1  0.32768583  0.81380269  0.83699030  1
  In  In11  1  0.32645186  0.31158915  0.36630392  1
  In  In12  1  0.15819259  0.13801978  -0.01526823  1
  In  In13  1  0.65443366  0.49039186  0.84076187  1
  In  In14  1  0.19338026  0.33857541  0.82597080  1
  In  In15  1  0.18720658  0.48744252  0.35295956  1
  In  In16  1  0.48656764  0.35621855  0.82502216  1
  In  In17  1  0.17040819  0.53893982  -0.02329281  1
  In  In18  1  -0.02161228  0.34920049  -0.01437350  1
  In  In19  1  0.34137977  0.73814791  0.29371856  1
  In  In20  1  0.15579424  -0.00305921  0.81648208  1
  In  In21  1  0.13034013  0.33262228  0.15662100  1
  In  In22  1  0.31895816  0.49127457  0.52006645  1
  In  In23  1  0.51780636  0.32850031  0.48521019  1
  In  In24  1  -0.00567547  -0.01798303  -0.01924812  1
  In  In25  1  0.67367917  0.32438723  0.64642144  1
  In  In26  1  0.36447464  0.47376243  0.18333913  1
  In  In27  1  0.02787744  0.33179328  0.34591863  1
  In  In28  1  0.66489664  0.16843151  0.85667296  1
  In  In29  1  0.81355783  0.50332525  0.34616134  1
  In  In30  1  -0.02379004  -0.00152675  0.34807049  1
  In  In31  1  0.67114091  0.82475126  0.49755835  1
  In  In32  1  0.33148027  0.15093826  0.17931517  1
  In  In33  1  -0.01663686  0.17220494  0.20313577  1
  In  In34  1  0.65581464  0.65377482  0.00896667  1
  In  In35  1  0.17530179  0.00204873  0.52601370  1
  In  In36  1  0.51851271  0.51542093  0.33658986  1
  In  In37  1  0.35508594  0.16197656  0.51201477  1
  In  In38  1  0.66621838  0.01222089  0.33067873  1
  In  In39  1  0.51220787  0.14850442  0.35695253  1
  In  In40  1  0.49250740  0.68383955  0.16258249  1
  In  In41  1  -0.00007300  0.19853405  0.81646639  1
  In  In42  1  0.02411167  0.67708777  0.31898885  1
  In  In43  1  0.15814581  0.64140526  0.16232491  1
  In  In44  1  0.49900518  0.65926920  0.49720746  1
  In  In45  1  0.82814464  0.15048059  0.02067237  1
  In  In46  1  0.65428846  0.00689954  0.65146107  1
  In  In47  1  0.50690462  0.83263524  -0.00778370  1
  In  In48  1  -0.03878526  0.48240265  0.16499670  1
  In  In49  1  0.33191137  0.31118623  0.00037362  1
  In  In50  1  -0.00708120  0.51839896  0.51653223  1
  In  In51  1  0.82368996  0.66377738  0.18055136  1
  In  In52  1  0.83711917  0.70176605  0.51862426  1
  In  In53  1  0.81869063  0.48670919  -0.00385601  1
  In  In54  1  0.49943771  0.17825719  0.00492315  1
  In  In55  1  0.00465018  0.02055081  0.65983909  1
  In  In56  1  0.85281157  0.82937739  0.68690512  1
  In  In57  1  0.65092048  0.00899562  0.02594832  1
  In  In58  1  0.32401124  0.01199176  -0.02256079  1
  In  In59  1  0.18278610  0.48690857  0.67200146  1
  In  In60  1  0.67233057  0.65501592  0.64867315  1
  In  In61  1  0.53475219  0.31536642  0.18910077  1
  In  In62  1  0.35692623  -0.01701459  0.66706515  1
  In  In63  1  0.35314193  0.66374324  -0.01133585  1
  In  In64  1  0.48630095  0.64833239  0.82847799  1
  In  In65  1  0.79555068  0.31306643  0.18556984  1
  In  In66  1  0.81368254  0.00727920  0.84271546  1
  In  In67  1  0.00019764  0.32075787  0.64561772  1
  In  In68  1  0.33603711  0.65425081  0.66094125  1
  In  In69  1  0.02485683  0.69205223  -0.08196272  1
  In  In70  1  0.66272076  0.81265988  0.16779434  1
  In  In71  1  -0.00303627  0.14557290  0.50526892  1
  Te  Te72  1  0.05724345  0.09588909  0.08789868  1
  Te  Te73  1  0.09046153  0.06783159  0.41439492  1
  Te  Te74  1  0.09750855  0.11612980  0.74043209  1
  Te  Te75  1  0.07705075  0.44258640  0.06301309  1
  Te  Te76  1  0.09157141  0.42199885  0.44844282  1
  Te  Te77  1  0.08043405  0.40160098  0.74672904  1
  Te  Te78  1  0.07307829  0.72020990  0.06586147  1
  Te  Te79  1  0.06628731  0.77290726  0.42747025  1
  Te  Te80  1  0.03960878  0.79664339  0.80892272  1
  Te  Te81  1  0.41555866  0.07665341  0.07937547  1
  Te  Te82  1  0.42255780  0.05805916  0.43100595  1
  Te  Te83  1  0.44332554  0.07524508  0.74429752  1
  Te  Te84  1  0.43328984  0.37964534  0.08914981  1
  Te  Te85  1  0.41237643  0.42645147  0.41110555  1
  Te  Te86  1  0.38212971  0.42983951  0.75062876  1
  Te  Te87  1  0.40091919  0.77270016  0.08082925  1
  Te  Te88  1  0.44670873  0.77215009  0.40610985  1
  Te  Te89  1  0.42332349  0.75183954  0.73785683  1
  Te  Te90  1  0.72461420  0.10476361  0.11225111  1
  Te  Te91  1  0.77310169  0.10899160  0.36613734  1
  Te  Te92  1  0.73872076  0.09456559  0.74794264  1
  Te  Te93  1  0.74063118  0.41233030  0.09349322  1
  Te  Te94  1  0.72773978  0.41987171  0.42802320  1
  Te  Te95  1  0.74600377  0.42196181  0.74012220  1
  Te  Te96  1  0.75793241  0.74623335  0.07145604  1
  Te  Te97  1  0.74792559  0.73388408  0.40140237  1
  Te  Te98  1  0.74231688  0.74717680  0.75029417  1
  Te  Te99  1  0.10738494  0.23031479  0.26713103  1
  Te  Te100  1  0.09192753  0.22809979  0.58208679  1
  Te  Te101  1  0.09283940  0.26835354  0.92657503  1
  Te  Te102  1  0.08026541  0.54687871  0.25363814  1
  Te  Te103  1  0.08000078  0.58863959  0.61821315  1
  Te  Te104  1  0.08908304  0.57089503  0.86142730  1
  Te  Te105  1  0.06501367  0.92488914  0.23979481  1
  Te  Te106  1  0.08768080  0.91563139  0.60183519  1
  Te  Te107  1  0.11631564  0.91479533  0.93463440  1
  Te  Te108  1  0.41579591  0.24670536  0.26379313  1
  Te  Te109  1  0.43112082  0.26748366  0.59062147  1
  Te  Te110  1  0.41402402  0.24059429  0.89732252  1
  Te  Te111  1  0.40008225  0.59519481  0.26779502  1
  Te  Te112  1  0.43199395  0.56166324  0.59036903  1
  Te  Te113  1  0.44340589  0.56007190  0.93812122  1
  Te  Te114  1  0.41539528  0.86056115  0.28575318  1
  Te  Te115  1  0.43776646  0.94400429  0.54851458  1
  Te  Te116  1  0.41626443  0.91560216  0.90448133  1
  Te  Te117  1  0.72861402  0.23802478  0.29167842  1
  Te  Te118  1  0.73253223  0.22072272  0.55803145  1
  Te  Te119  1  0.76453665  0.25571672  0.92957085  1
  Te  Te120  1  0.73829649  0.55622278  0.23052562  1
  Te  Te121  1  0.78547771  0.58595022  0.58815702  1
  Te  Te122  1  0.74849290  0.58879267  0.90955085  1
  Te  Te123  1  0.74899027  0.91232216  0.24207519  1
  Te  Te124  1  0.75032354  0.90436128  0.59884102  1
  Te  Te125  1  0.73636939  0.91992370  0.93585781  1
  Te  Te126  1  0.23749261  0.22977274  0.08695112  1
  Te  Te127  1  0.24207107  0.21945124  0.43616377  1
  Te  Te128  1  0.29837714  0.30790201  0.72903253  1
  Te  Te129  1  0.26998137  0.56431979  0.09758730  1
  Te  Te130  1  0.25170817  0.59890100  0.43172103  1
  Te  Te131  1  0.28001678  0.55952959  0.75960232  1
  Te  Te132  1  0.23139308  0.92891561  0.05691144  1
  Te  Te133  1  0.25170722  0.91454656  0.42496680  1
  Te  Te134  1  0.25047453  0.90480152  0.74379877  1
  Te  Te135  1  0.60658246  0.22876382  0.09344507  1
  Te  Te136  1  0.60518355  0.26297864  0.38466319  1
  Te  Te137  1  0.58931858  0.25713353  0.75851588  1
  Te  Te138  1  0.54666501  0.57924637  0.07239972  1
  Te  Te139  1  0.60543543  0.58271435  0.43287825  1
  Te  Te140  1  0.57931479  0.57216757  0.73882385  1
  Te  Te141  1  0.56694258  0.91232323  0.10522187  1
  Te  Te142  1  0.59621066  0.92793277  0.42763716  1
  Te  Te143  1  0.56554858  0.93709848  0.74527920  1
  Te  Te144  1  0.91816174  0.26247802  0.09316916  1
  Te  Te145  1  0.92716505  0.24459640  0.41428599  1
  Te  Te146  1  0.89429862  0.23700650  0.71717226  1
  Te  Te147  1  0.90590836  0.58670859  0.07609803  1
  Te  Te148  1  0.92906140  0.58990704  0.39963417  1
  Te  Te149  1  0.93341392  0.68444099  0.79278305  1
  Te  Te150  1  0.90019616  0.93030196  0.07713999  1
  Te  Te151  1  0.89711854  0.93184909  0.45192518  1
  Te  Te152  1  0.92257687  0.94374601  0.76402949  1
  Te  Te153  1  0.27131566  0.04691599  0.26071859  1
  Te  Te154  1  0.26567082  0.08917072  0.61046933  1
  Te  Te155  1  0.25475619  0.10194893  0.87758847  1
  Te  Te156  1  0.24723777  0.39790374  0.24535118  1
  Te  Te157  1  0.23872300  0.38519530  0.58019051  1
  Te  Te158  1  0.26111861  0.42412701  0.93137299  1
  Te  Te159  1  0.21880603  0.77043558  0.21219715  1
  Te  Te160  1  0.24500953  0.75028618  0.58892344  1
  Te  Te161  1  0.24388186  0.72225905  0.91323835  1
  Te  Te162  1  0.56188969  0.07050779  0.24534706  1
  Te  Te163  1  0.61286217  0.10806315  0.55028609  1
  Te  Te164  1  0.56791274  0.07249770  0.91800199  1
  Te  Te165  1  0.59603576  0.44111174  0.23635102  1
  Te  Te166  1  0.59475086  0.42081275  0.56899974  1
  Te  Te167  1  0.58548492  0.39529029  0.92474506  1
  Te  Te168  1  0.59786561  0.71864157  0.25646452  1
  Te  Te169  1  0.57480667  0.75348161  0.58934179  1
  Te  Te170  1  0.58741125  0.74588974  0.90009137  1
  Te  Te171  1  0.88521625  0.07809830  0.25871288  1
  Te  Te172  1  0.89481920  0.06401942  0.57126175  1
  Te  Te173  1  0.92552345  0.10582566  0.90829086  1
  Te  Te174  1  0.90745714  0.39172258  0.27161237  1
  Te  Te175  1  0.90410063  0.41399930  0.57692444  1
  Te  Te176  1  0.91564899  0.44038612  0.88566338  1
  Te  Te177  1  0.92284735  0.76132972  0.24536741  1
  Te  Te178  1  0.94546738  0.75819955  0.59778176  1
  Te  Te179  1  0.91232849  0.79322437  0.89889502  1
