# generated using pymatgen
data_In2Te3
_symmetry_space_group_name_H-M   'P 1'
_cell_length_a   19.02791476
_cell_length_b   19.01176196
_cell_length_c   19.04637219
_cell_angle_alpha   89.91534299
_cell_angle_beta   89.90939083
_cell_angle_gamma   89.88271646
_symmetry_Int_Tables_number   1
_chemical_formula_structural   In2Te3
_chemical_formula_sum   'In72 Te108'
_cell_volume   6890.07432696
_cell_formula_units_Z   36
loop_
 _symmetry_equiv_pos_site_id
 _symmetry_equiv_pos_as_xyz
  1  'x, y, z'
loop_
 _atom_site_type_symbol
 _atom_site_label
 _atom_site_symmetry_multiplicity
 _atom_site_fract_x
 _atom_site_fract_y
 _atom_site_fract_z
 _atom_site_occupancy
  In  In0  1  0.69019946  0.67443409  0.00987601  1
  In  In1  1  0.84969427  0.66643126  0.17755761  1
  In  In2  1  0.17224055  0.80884904  0.66860127  1
  In  In3  1  0.65346935  0.00613531  -0.00409669  1
  In  In4  1  0.52042205  0.32899835  0.20169914  1
  In  In5  1  0.35976277  0.01186819  0.34294132  1
  In  In6  1  0.50287668  0.16701068  0.66555494  1
  In  In7  1  -0.01681719  -0.02178973  0.69006558  1
  In  In8  1  0.65439321  0.17895002  0.83672563  1
  In  In9  1  0.00032071  0.00182863  0.30925703  1
  In  In10  1  0.82243969  0.32048804  0.50642106  1
  In  In11  1  -0.00755966  0.66498480  -0.01822071  1
  In  In12  1  0.67760346  0.67613873  0.34186597  1
  In  In13  1  0.37495261  0.65920339  0.00399855  1
  In  In14  1  0.48831786  0.85057684  0.65576018  1
  In  In15  1  0.51682854  0.65060039  0.82476218  1
  In  In16  1  0.51161286  0.66490610  0.17003026  1
  In  In17  1  0.34019954  0.34505680  0.32204392  1
  In  In18  1  0.65188453  0.00767661  0.35474844  1
  In  In19  1  0.34068590  0.01801650  0.64020991  1
  In  In20  1  0.53115345  0.29371468  0.48158911  1
  In  In21  1  0.82063755  0.47896296  0.35431535  1
  In  In22  1  0.84555885  0.65051564  0.50067562  1
  In  In23  1  0.00250434  0.17435116  0.17506776  1
  In  In24  1  0.81602204  0.33499194  0.83180131  1
  In  In25  1  0.33659895  0.15820829  0.48641528  1
  In  In26  1  0.19402577  0.33692272  0.84612312  1
  In  In27  1  0.14902759  0.20800255  0.65737001  1
  In  In28  1  0.14889122  0.49806878  0.64882506  1
  In  In29  1  0.66817817  0.15023035  0.18520099  1
  In  In30  1  0.01475986  0.84355515  0.16616763  1
  In  In31  1  0.01374949  0.50765537  0.17528003  1
  In  In32  1  0.01607837  0.50469874  0.50002261  1
  In  In33  1  0.32989741  0.34189463  0.68900862  1
  In  In34  1  0.68447024  0.51398301  0.84055731  1
  In  In35  1  -0.02000989  0.16281568  0.84966092  1
  In  In36  1  0.80768971  0.00366039  0.82778112  1
  In  In37  1  0.67931867  0.33200666  0.01885761  1
  In  In38  1  0.29753328  0.65236248  0.35805599  1
  In  In39  1  -0.00078506  0.36083642  0.00382139  1
  In  In40  1  0.17389516  -0.01027627  0.17853473  1
  In  In41  1  0.48329118  0.67585924  0.50784303  1
  In  In42  1  0.31893599  0.64803908  0.65818215  1
  In  In43  1  0.47224115  0.19972053  -0.02286501  1
  In  In44  1  0.33559173  0.50603205  0.16183257  1
  In  In45  1  0.64855784  -0.00818311  0.65035560  1
  In  In46  1  -0.01432971  0.53721859  0.81402804  1
  In  In47  1  0.52346021  0.49055365  0.33809272  1
  In  In48  1  0.84066427  -0.00486229  0.15144008  1
  In  In49  1  0.80921503  -0.00045500  0.51340306  1
  In  In50  1  0.68204387  0.66049344  0.65586738  1
  In  In51  1  -0.01363284  0.15480290  0.48473403  1
  In  In52  1  0.32351588  -0.00053788  0.01352327  1
  In  In53  1  -0.03221652  0.34523827  0.67762099  1
  In  In54  1  0.50648766  0.84723104  0.32711762  1
  In  In55  1  0.06735247  0.67516552  0.33361889  1
  In  In56  1  0.49053036  0.84244349  0.02398708  1
  In  In57  1  0.14939560  0.00565872  0.84547048  1
  In  In58  1  0.83287713  0.31541653  0.16273794  1
  In  In59  1  0.15160482  0.67335294  0.83284540  1
  In  In60  1  0.01899675  0.33098621  0.34560538  1
  In  In61  1  0.50192159  0.49429645  -0.01119476  1
  In  In62  1  -0.02543110  0.81638826  0.51340899  1
  In  In63  1  0.32800824  0.84280717  0.82199922  1
  In  In64  1  0.33954689  0.19047321  0.16458180  1
  In  In65  1  0.15992033  0.16423596  0.02568335  1
  In  In66  1  0.82939252  0.84606596  0.32369889  1
  In  In67  1  0.17781778  0.34621131  0.49423354  1
  In  In68  1  0.16156344  -0.01145011  0.48046594  1
  In  In69  1  0.65722078  0.81730495  0.81665774  1
  In  In70  1  0.14057065  0.84006763  -0.02765524  1
  In  In71  1  0.66322610  0.33307857  0.66104396  1
  Te  Te72  1  0.07132602  0.06179697  0.09399184  1
  Te  Te73  1  0.08944392  0.09088069  0.39440959  1
  Te  Te74  1  0.07571347  0.09843028  0.74135138  1
  Te  Te75  1  0.09492356  0.41075841  0.09976027  1
  Te  Te76  1  0.11780130  0.44765989  0.39323066  1
  Te  Te77  1  0.08824133  0.39945445  0.74811268  1
  Te  Te78  1  0.08383734  0.74488443  0.07499174  1
  Te  Te79  1  0.09105791  0.73968387  0.46390813  1
  Te  Te80  1  0.06185604  0.76944555  0.76165447  1
  Te  Te81  1  0.41996431  0.09652476  0.07698508  1
  Te  Te82  1  0.45276542  0.08047303  0.43795122  1
  Te  Te83  1  0.41203172  0.08440827  0.74658792  1
  Te  Te84  1  0.44190913  0.41489387  0.10186361  1
  Te  Te85  1  0.43566014  0.40263030  0.42326432  1
  Te  Te86  1  0.40695817  0.41588075  0.78821629  1
  Te  Te87  1  0.40433360  0.75636049  0.11550996  1
  Te  Te88  1  0.41142060  0.74224849  0.39272113  1
  Te  Te89  1  0.41844055  0.74469136  0.74893424  1
  Te  Te90  1  0.75233048  0.09052181  0.07513772  1
  Te  Te91  1  0.73636091  0.09958227  0.43440454  1
  Te  Te92  1  0.72545698  0.09215386  0.73620297  1
  Te  Te93  1  0.77769041  0.42065984  0.07745157  1
  Te  Te94  1  0.72006907  0.39331187  0.42353469  1
  Te  Te95  1  0.75523857  0.43115229  0.73460074  1
  Te  Te96  1  0.77200663  0.76123074  0.09560041  1
  Te  Te97  1  0.76437072  0.76228699  0.43020503  1
  Te  Te98  1  0.75541878  0.71527290  0.77322147  1
  Te  Te99  1  0.09766737  0.25279250  0.25105386  1
  Te  Te100  1  0.05416369  0.27601511  0.56009710  1
  Te  Te101  1  0.08295585  0.25053603  0.91692657  1
  Te  Te102  1  0.12514040  0.59547079  0.22260290  1
  Te  Te103  1  0.08650939  0.61009434  0.57587121  1
  Te  Te104  1  0.09057772  0.56455419  0.91906500  1
  Te  Te105  1  0.10376872  0.89816900  0.27794008  1
  Te  Te106  1  0.07816489  0.91557187  0.58768123  1
  Te  Te107  1  0.04025356  0.92578092  0.90478343  1
  Te  Te108  1  0.43357229  0.23312507  0.27625504  1
  Te  Te109  1  0.40125013  0.25423087  0.58263775  1
  Te  Te110  1  0.40294137  0.30987543  0.89918358  1
  Te  Te111  1  0.42466149  0.58092070  0.26261999  1
  Te  Te112  1  0.42391245  0.57231611  0.59221578  1
  Te  Te113  1  0.40824777  0.56611026  0.88897336  1
  Te  Te114  1  0.41872742  0.92552633  0.23992557  1
  Te  Te115  1  0.39242026  0.90840275  0.55969991  1
  Te  Te116  1  0.41228812  0.92194353  0.91874063  1
  Te  Te117  1  0.73751263  0.25695169  0.26181504  1
  Te  Te118  1  0.74622239  0.23266836  0.59400940  1
  Te  Te119  1  0.75782661  0.23614122  0.92930290  1
  Te  Te120  1  0.75523687  0.57820917  0.25677779  1
  Te  Te121  1  0.73778912  0.56927133  0.55562849  1
  Te  Te122  1  0.77436464  0.61020128  0.90750135  1
  Te  Te123  1  0.74051176  0.93568554  0.24676455  1
  Te  Te124  1  0.75540201  0.89827609  0.60712936  1
  Te  Te125  1  0.73298219  0.90340282  0.91488397  1
  Te  Te126  1  0.26015760  0.26734394  0.06402209  1
  Te  Te127  1  0.24900257  0.25080933  0.40395772  1
  Te  Te128  1  0.25774188  0.22900614  0.76036542  1
  Te  Te129  1  0.26343267  0.59208465  0.06675557  1
  Te  Te130  1  0.23588591  0.54328129  0.42918723  1
  Te  Te131  1  0.23179124  0.57164268  0.75399271  1
  Te  Te132  1  0.23689002  0.89548176  0.07895764  1
  Te  Te133  1  0.27233771  0.91804437  0.41814617  1
  Te  Te134  1  0.23634364  0.93454253  0.74202140  1
  Te  Te135  1  0.57716626  0.24053929  0.08257910  1
  Te  Te136  1  0.64340545  0.25254927  0.39517305  1
  Te  Te137  1  0.56395041  0.26950176  0.75886450  1
  Te  Te138  1  0.59441185  0.57883789  0.07620233  1
  Te  Te139  1  0.58740385  0.59276323  0.42877862  1
  Te  Te140  1  0.58874353  0.56048391  0.73158037  1
  Te  Te141  1  0.58308676  0.92713281  0.09627954  1
  Te  Te142  1  0.59793702  0.89386030  0.42937622  1
  Te  Te143  1  0.56684653  0.92458505  0.76032988  1
  Te  Te144  1  0.92442362  0.24362105  0.06593164  1
  Te  Te145  1  0.90444263  0.24739379  0.39866399  1
  Te  Te146  1  0.89356953  0.23480995  0.74768354  1
  Te  Te147  1  0.91745684  0.57439529  0.07903897  1
  Te  Te148  1  0.93037896  0.57798477  0.39354578  1
  Te  Te149  1  0.90898715  0.60744305  0.71609974  1
  Te  Te150  1  0.90241803  0.88218258  0.08021277  1
  Te  Te151  1  0.92222263  0.93086428  0.41913519  1
  Te  Te152  1  0.86448868  0.90310975  0.73282181  1
  Te  Te153  1  0.26329564  0.08749405  0.24664219  1
  Te  Te154  1  0.21829611  0.10213780  0.57398265  1
  Te  Te155  1  0.24649710  0.09167733  0.92197207  1
  Te  Te156  1  0.24832521  0.40733611  0.22821413  1
  Te  Te157  1  0.26681653  0.42976713  0.58155632  1
  Te  Te158  1  0.27852370  0.38699138  0.95359305  1
  Te  Te159  1  0.20048051  0.72586276  0.27367559  1
  Te  Te160  1  0.27008759  0.75763656  0.57401763  1
  Te  Te161  1  0.25754565  0.74779782  0.91628646  1
  Te  Te162  1  0.56629253  0.07395771  0.25512779  1
  Te  Te163  1  0.56142055  0.07602421  0.56392359  1
  Te  Te164  1  0.55877838  0.09147411  0.91284659  1
  Te  Te165  1  0.61827092  0.42557551  0.24741199  1
  Te  Te166  1  0.56289725  0.39884196  0.57671392  1
  Te  Te167  1  0.60199967  0.40986110  0.91359742  1
  Te  Te168  1  0.60449870  0.75871368  0.24024558  1
  Te  Te169  1  0.58335873  0.75816473  0.58600022  1
  Te  Te170  1  0.57027129  0.74455901  0.93050061  1
  Te  Te171  1  0.89893912  0.09464887  0.25120363  1
  Te  Te172  1  0.91618739  0.07661849  0.59104169  1
  Te  Te173  1  0.91093849  0.05602864  0.92002135  1
  Te  Te174  1  0.92138861  0.41224497  0.25354512  1
  Te  Te175  1  0.90493062  0.43255800  0.57361988  1
  Te  Te176  1  0.91487750  0.42845981  0.89636865  1
  Te  Te177  1  0.93848736  0.75314612  0.27138765  1
  Te  Te178  1  0.91178554  0.72584388  0.61377434  1
  Te  Te179  1  0.96379230  0.76824989  0.88250676  1
