# generated using pymatgen
data_In2Te3
_symmetry_space_group_name_H-M   'P 1'
_cell_length_a   18.96892873
_cell_length_b   18.98117254
_cell_length_c   18.93246312
_cell_angle_alpha   90.07208843
_cell_angle_beta   89.65461929
_cell_angle_gamma   90.22944569
_symmetry_Int_Tables_number   1
_chemical_formula_structural   In2Te3
_chemical_formula_sum   'In72 Te108'
_cell_volume   6816.49715444
_cell_formula_units_Z   36
loop_
 _symmetry_equiv_pos_site_id
 _symmetry_equiv_pos_as_xyz
  1  'x, y, z'
loop_
 _atom_site_type_symbol
 _atom_site_label
 _atom_site_symmetry_multiplicity
 _atom_site_fract_x
 _atom_site_fract_y
 _atom_site_fract_z
 _atom_site_occupancy
  In  In0  1  0.48586259  0.15744594  0.35348884  1
  In  In1  1  0.65748621  0.32822336  0.34680993  1
  In  In2  1  -0.01252125  0.86454087  0.17156538  1
  In  In3  1  0.80126877  -0.05713251  0.85664160  1
  In  In4  1  0.34592843  0.85836659  0.51351346  1
  In  In5  1  0.17879540  0.86287079  0.65585529  1
  In  In6  1  -0.01143539  0.66401421  0.66563485  1
  In  In7  1  0.85037482  0.02356267  0.50826086  1
  In  In8  1  0.33723077  0.34680735  -0.05669072  1
  In  In9  1  0.51215184  0.14308873  0.01555799  1
  In  In10  1  -0.02575412  0.82463458  0.83985139  1
  In  In11  1  0.64980734  0.00910927  0.64766398  1
  In  In12  1  0.53074752  0.63967247  0.49547560  1
  In  In13  1  0.51708331  0.82756858  0.67679232  1
  In  In14  1  -0.00768702  0.68636685  0.32124010  1
  In  In15  1  0.14837146  0.85179339  0.00050056  1
  In  In16  1  0.19173045  0.16401553  0.66025246  1
  In  In17  1  0.01675869  0.33442430  0.33151430  1
  In  In18  1  0.66876098  0.34320982  -0.01592860  1
  In  In19  1  0.16908819  0.01565027  0.19290434  1
  In  In20  1  0.30350240  0.84715902  0.82091879  1
  In  In21  1  0.00890039  0.49667521  0.49055966  1
  In  In22  1  0.81292951  0.16079001  0.32319158  1
  In  In23  1  0.82580592  0.33344828  0.47576547  1
  In  In24  1  0.49024837  0.00979141  0.83514121  1
  In  In25  1  0.81063768  0.64623107  0.13376397  1
  In  In26  1  -0.00877037  0.17027843  0.15574763  1
  In  In27  1  0.00168292  0.01705494  -0.03892912  1
  In  In28  1  0.15660487  0.32255432  0.82308044  1
  In  In29  1  0.52704812  -0.01715688  0.18404718  1
  In  In30  1  0.80720916  0.85139421  0.33876866  1
  In  In31  1  0.79860715  0.70003135  0.82744480  1
  In  In32  1  0.19459483  0.81768661  0.36832245  1
  In  In33  1  0.20593064  0.48391066  0.36281811  1
  In  In34  1  0.16895669  0.68430435  0.16815440  1
  In  In35  1  0.65254258  0.66773320  -0.00724962  1
  In  In36  1  0.34443653  0.17378545  0.19007672  1
  In  In37  1  0.30065086  0.02059037  -0.00326099  1
  In  In38  1  0.21485156  0.19306859  0.38272671  1
  In  In39  1  0.84072159  0.49937153  -0.01912026  1
  In  In40  1  0.52190298  0.83273003  0.33994867  1
  In  In41  1  0.37353871  0.83928226  0.16654590  1
  In  In42  1  0.01868873  0.48878304  0.17821051  1
  In  In43  1  0.01052634  0.49360062  0.84210205  1
  In  In44  1  0.01703119  0.18816380  0.53182308  1
  In  In45  1  0.81090253  0.48604438  0.33240079  1
  In  In46  1  0.65446951  0.51149353  0.77461230  1
  In  In47  1  0.83621151  0.14572275  -0.01261271  1
  In  In48  1  0.33705907  0.18099888  0.82124921  1
  In  In49  1  0.65084615  0.84127906  0.50920651  1
  In  In50  1  0.66436921  0.49624965  0.17557207  1
  In  In51  1  0.80103708  0.64685378  0.51142772  1
  In  In52  1  0.01332210  0.01929990  0.35596904  1
  In  In53  1  0.50193572  0.66502249  0.20368069  1
  In  In54  1  0.65251243  0.31780888  0.64424060  1
  In  In55  1  0.14206515  0.51180130  0.01532547  1
  In  In56  1  0.20161193  0.49315512  0.64509082  1
  In  In57  1  0.33243990  0.63185729  -0.01755735  1
  In  In58  1  0.50971492  0.35443806  0.15882731  1
  In  In59  1  0.51075131  0.82447464  -0.01495027  1
  In  In60  1  0.81262135  -0.01372361  0.14316746  1
  In  In61  1  0.84959424  0.48551938  0.66741882  1
  In  In62  1  0.36353046  0.67596291  0.65574099  1
  In  In63  1  0.17521290  0.65709637  0.81404100  1
  In  In64  1  0.84963019  0.20366057  0.68174328  1
  In  In65  1  0.16943822  0.33443319  0.16220612  1
  In  In66  1  0.64962354  0.17997034  0.81412857  1
  In  In67  1  0.50804773  0.47653717  -0.02729064  1
  In  In68  1  0.48651344  0.33016911  0.49489678  1
  In  In69  1  0.35575317  0.64226661  0.35704283  1
  In  In70  1  0.00821348  0.82664103  0.52740269  1
  In  In71  1  0.14840246  0.19266194  -0.02180270  1
  Te  Te72  1  0.09143270  0.07447562  0.07531047  1
  Te  Te73  1  0.10457540  0.10022338  0.44109558  1
  Te  Te74  1  0.10084160  0.12484070  0.76949216  1
  Te  Te75  1  0.06543635  0.39213838  0.06917795  1
  Te  Te76  1  0.10792322  0.39373191  0.43652152  1
  Te  Te77  1  0.09103828  0.42950452  0.73288927  1
  Te  Te78  1  0.06576084  0.75855700  0.08840720  1
  Te  Te79  1  0.08431943  0.73458717  0.43256582  1
  Te  Te80  1  0.08517433  0.75437556  0.74124585  1
  Te  Te81  1  0.40910941  0.06615938  0.09997738  1
  Te  Te82  1  0.40149695  0.08858069  0.45759093  1
  Te  Te83  1  0.43668414  0.10698701  0.73724129  1
  Te  Te84  1  0.40583811  0.41232273  0.06686895  1
  Te  Te85  1  0.39443265  0.43132736  0.43183120  1
  Te  Te86  1  0.38858625  0.36673814  0.80447267  1
  Te  Te87  1  0.41923304  0.73079781  0.07037132  1
  Te  Te88  1  0.43534498  0.75243067  0.43793865  1
  Te  Te89  1  0.41523826  0.75976040  0.77099861  1
  Te  Te90  1  0.73983275  0.09803344  0.08748173  1
  Te  Te91  1  0.74743725  0.07050550  0.41726988  1
  Te  Te92  1  0.74375867  0.09921172  0.72647593  1
  Te  Te93  1  0.75641903  0.42023252  0.08210070  1
  Te  Te94  1  0.71978558  0.43870412  0.44638018  1
  Te  Te95  1  0.74617711  0.39548125  0.73581200  1
  Te  Te96  1  0.74524661  0.76033123  0.06604149  1
  Te  Te97  1  0.73206152  0.74659255  0.41951856  1
  Te  Te98  1  0.68594334  0.74391934  0.74935575  1
  Te  Te99  1  0.09654037  0.23033096  0.25322553  1
  Te  Te100  1  0.12132202  0.27253050  0.58976742  1
  Te  Te101  1  0.04048198  0.22758683  0.87139672  1
  Te  Te102  1  0.09563357  0.58523914  0.26705211  1
  Te  Te103  1  0.08781237  0.58233841  0.58692247  1
  Te  Te104  1  0.07628724  0.60788413  0.91924011  1
  Te  Te105  1  0.09426917  0.90608338  0.27205773  1
  Te  Te106  1  0.07074360  0.93934185  0.59532756  1
  Te  Te107  1  0.08907342  0.92180003  0.88161984  1
  Te  Te108  1  0.43333330  0.27134825  0.26035950  1
  Te  Te109  1  0.38769919  0.22385232  0.55056020  1
  Te  Te110  1  0.44198602  0.23578521  0.92048783  1
  Te  Te111  1  0.41121437  0.56110609  0.24876964  1
  Te  Te112  1  0.45364038  0.56510616  0.60345961  1
  Te  Te113  1  0.43393243  0.57492725  0.89034266  1
  Te  Te114  1  0.41672874  0.92612661  0.27987770  1
  Te  Te115  1  0.43011859  0.93100891  0.61347389  1
  Te  Te116  1  0.39847889  0.92180285  0.92901601  1
  Te  Te117  1  0.75106302  0.27004890  0.24990819  1
  Te  Te118  1  0.75532308  0.23545361  0.56569359  1
  Te  Te119  1  0.75212896  0.24629611  0.90405117  1
  Te  Te120  1  0.74022082  0.59881093  0.25884863  1
  Te  Te121  1  0.73536601  0.56470904  0.61531284  1
  Te  Te122  1  0.73061582  0.56742024  0.90259330  1
  Te  Te123  1  0.72401829  0.92343537  0.24350218  1
  Te  Te124  1  0.75667065  0.92245155  0.58039796  1
  Te  Te125  1  0.72010097  0.88724133  0.96465765  1
  Te  Te126  1  0.25316367  0.23251498  0.08269200  1
  Te  Te127  1  0.31155473  0.29610356  0.43460242  1
  Te  Te128  1  0.28024899  0.29139993  0.73085922  1
  Te  Te129  1  0.25041436  0.57596428  0.09916673  1
  Te  Te130  1  0.25895221  0.58739726  0.45296540  1
  Te  Te131  1  0.28061669  0.57702969  0.74449294  1
  Te  Te132  1  0.24610126  0.90859869  0.10460262  1
  Te  Te133  1  0.23921848  0.93206462  0.44624731  1
  Te  Te134  1  0.26762608  0.95370983  0.72944399  1
  Te  Te135  1  0.59327215  0.25450033  0.08357612  1
  Te  Te136  1  0.59016416  0.23036747  0.43849249  1
  Te  Te137  1  0.55568015  0.22234811  0.70810374  1
  Te  Te138  1  0.57138500  0.57166884  0.08305329  1
  Te  Te139  1  0.59892883  0.54845589  0.40681241  1
  Te  Te140  1  0.52464825  0.57152427  0.74272570  1
  Te  Te141  1  0.59254938  0.92289350  0.06204388  1
  Te  Te142  1  0.57796031  0.94114604  0.42677224  1
  Te  Te143  1  0.59541800  0.92617710  0.76342794  1
  Te  Te144  1  0.91456160  0.24790896  0.06120186  1
  Te  Te145  1  0.92808795  0.23483784  0.40885536  1
  Te  Te146  1  0.93750011  0.28296041  0.76787592  1
  Te  Te147  1  0.93057483  0.57299100  0.08430651  1
  Te  Te148  1  0.91214539  0.58208014  0.40979835  1
  Te  Te149  1  0.90556210  0.58894833  0.76760883  1
  Te  Te150  1  0.91851031  0.92536300  0.05238005  1
  Te  Te151  1  0.92680145  0.90766546  0.41702135  1
  Te  Te152  1  0.88274310  0.89087548  0.74666950  1
  Te  Te153  1  0.26678283  0.08390555  0.28493405  1
  Te  Te154  1  0.28724838  0.09984258  0.56505444  1
  Te  Te155  1  0.22577230  0.09498694  0.88751993  1
  Te  Te156  1  0.25928257  0.41134457  0.24769797  1
  Te  Te157  1  0.30116259  0.42955957  0.55738007  1
  Te  Te158  1  0.21930473  0.43416375  0.90988319  1
  Te  Te159  1  0.27555422  0.74880469  0.25697016  1
  Te  Te160  1  0.25517385  0.75339529  0.58516111  1
  Te  Te161  1  0.24362098  0.74731686  0.93117835  1
  Te  Te162  1  0.57676821  0.10193605  0.25013103  1
  Te  Te163  1  0.53757409  0.03635447  0.55379315  1
  Te  Te164  1  0.60266697  0.07531278  0.91497812  1
  Te  Te165  1  0.57161735  0.43512413  0.27988643  1
  Te  Te166  1  0.54793473  0.41322950  0.60222669  1
  Te  Te167  1  0.58930647  0.40250867  0.87048100  1
  Te  Te168  1  0.59977520  0.76774702  0.23301966  1
  Te  Te169  1  0.60565697  0.72789643  0.60335730  1
  Te  Te170  1  0.58733495  0.74541243  0.88354706  1
  Te  Te171  1  0.92207612  0.06779148  0.24504347  1
  Te  Te172  1  0.93405239  0.09163792  0.61390090  1
  Te  Te173  1  0.89226854  0.06394614  0.86977004  1
  Te  Te174  1  0.91202005  0.40524830  0.24945533  1
  Te  Te175  1  0.92624093  0.39720272  0.57062682  1
  Te  Te176  1  0.90733602  0.39958921  0.89268777  1
  Te  Te177  1  0.89373891  0.76212821  0.23589365  1
  Te  Te178  1  0.88968151  0.74463206  0.58645249  1
  Te  Te179  1  0.89640272  0.73701526  0.92813725  1
