# generated using pymatgen
data_In2Te3
_symmetry_space_group_name_H-M   'P 1'
_cell_length_a   18.77510775
_cell_length_b   18.77205590
_cell_length_c   18.76950622
_cell_angle_alpha   90.05851529
_cell_angle_beta   90.03916825
_cell_angle_gamma   89.91611170
_symmetry_Int_Tables_number   1
_chemical_formula_structural   In2Te3
_chemical_formula_sum   'In72 Te108'
_cell_volume   6615.25106321
_cell_formula_units_Z   36
loop_
 _symmetry_equiv_pos_site_id
 _symmetry_equiv_pos_as_xyz
  1  'x, y, z'
loop_
 _atom_site_type_symbol
 _atom_site_label
 _atom_site_symmetry_multiplicity
 _atom_site_fract_x
 _atom_site_fract_y
 _atom_site_fract_z
 _atom_site_occupancy
  In  In0  1  0.49638304  0.34339135  0.49131196  1
  In  In1  1  0.32553317  0.17097842  0.82290762  1
  In  In2  1  0.67667749  0.17630486  0.51355846  1
  In  In3  1  0.48830978  0.83483496  0.31361948  1
  In  In4  1  0.49563133  0.31335449  0.17086558  1
  In  In5  1  0.85633410  0.33706343  0.84465926  1
  In  In6  1  0.49047137  0.82174207  -0.01092275  1
  In  In7  1  0.34207131  0.67418967  0.32449660  1
  In  In8  1  0.47482561  0.15627947  0.66190584  1
  In  In9  1  0.65054121  0.50855020  0.82716246  1
  In  In10  1  0.67398711  0.50896350  0.15251733  1
  In  In11  1  0.02071530  0.83480097  0.17431725  1
  In  In12  1  0.84938100  0.83412429  0.69473782  1
  In  In13  1  0.00675540  0.32359956  0.31744670  1
  In  In14  1  0.33373297  0.65909321  0.00142191  1
  In  In15  1  0.32004162  0.00214104  0.00709479  1
  In  In16  1  0.65551594  0.81686964  0.51787139  1
  In  In17  1  0.83792783  0.49606700  -0.01021693  1
  In  In18  1  0.82307723  0.17743066  0.67293807  1
  In  In19  1  0.50040323  0.51412268  -0.01171502  1
  In  In20  1  0.65156332  0.34325024  0.66337098  1
  In  In21  1  0.50705558  0.15183734  0.00249649  1
  In  In22  1  0.18058463  0.84788957  0.33345775  1
  In  In23  1  0.32819888  0.16586182  0.49698933  1
  In  In24  1  0.81373920  0.67785462  0.84069508  1
  In  In25  1  -0.02173598  0.49981597  0.50103354  1
  In  In26  1  0.85594850  0.17259705  0.31213751  1
  In  In27  1  0.66111782  -0.00449810  0.33073508  1
  In  In28  1  0.49074554  0.67484720  0.48998959  1
  In  In29  1  0.02969846  0.47980484  0.14005818  1
  In  In30  1  -0.02042911  0.64809075  0.64727025  1
  In  In31  1  0.68931645  0.34424215  0.33889039  1
  In  In32  1  0.17772815  0.32921293  0.84039397  1
  In  In33  1  0.00505572  0.15425386  0.87679539  1
  In  In34  1  0.47368933  -0.02147722  0.15779361  1
  In  In35  1  0.01740569  0.83899992  0.49272102  1
  In  In36  1  0.17441363  0.70297272  0.49507905  1
  In  In37  1  0.01064898  0.00541617  0.66856136  1
  In  In38  1  0.33607062  0.48738096  0.49840207  1
  In  In39  1  0.01402008  0.66486205  0.01172519  1
  In  In40  1  0.66936189  0.17838222  0.86470435  1
  In  In41  1  0.49113995  0.50336123  0.35305631  1
  In  In42  1  0.16882104  0.32037107  0.50120134  1
  In  In43  1  0.31814303  -0.00393569  0.66794598  1
  In  In44  1  0.85768991  0.82124623  0.34213984  1
  In  In45  1  0.85416310  0.00559370  0.17175559  1
  In  In46  1  0.17565889  0.67914034  0.84741206  1
  In  In47  1  0.30729256  0.82967460  0.13454997  1
  In  In48  1  0.84963510  -0.01707993  0.49379040  1
  In  In49  1  0.83725055  0.49556601  0.31857128  1
  In  In50  1  0.49603409  0.49529246  0.67788201  1
  In  In51  1  0.17505491  0.51754996  0.69780859  1
  In  In52  1  0.03993781  0.14828358  0.45129751  1
  In  In53  1  0.17736431  0.83561044  0.66220304  1
  In  In54  1  0.49203611  0.35286444  0.83922867  1
  In  In55  1  0.46187475  0.16233699  0.33674642  1
  In  In56  1  0.83312181  0.84249989  0.02746934  1
  In  In57  1  0.29300627  0.31888452  0.02118321  1
  In  In58  1  0.32206443  0.49579303  0.16290560  1
  In  In59  1  0.16477641  0.00174027  0.83983742  1
  In  In60  1  0.65868173  -0.00981895  0.70125173  1
  In  In61  1  0.16614667  0.50230633  0.30330453  1
  In  In62  1  0.00685521  0.49113285  0.85025787  1
  In  In63  1  0.81473671  0.64746789  0.48458314  1
  In  In64  1  0.69018510  0.01051485  0.00507800  1
  In  In65  1  0.01790882  0.17589392  0.13250208  1
  In  In66  1  0.83121162  0.50044839  0.63733859  1
  In  In67  1  0.65931664  0.80032390  0.17018293  1
  In  In68  1  0.65028230  0.82469759  0.83785660  1
  In  In69  1  0.01930104  0.84903127  0.83699669  1
  In  In70  1  0.68480922  0.13868081  0.15566785  1
  In  In71  1  0.46365292  0.00458209  0.50989688  1
  Te  Te72  1  0.11676674  0.09179529  0.05849682  1
  Te  Te73  1  0.13964802  0.05084189  0.40133520  1
  Te  Te74  1  0.08966032  0.10242595  0.75455639  1
  Te  Te75  1  0.09626574  0.37029775  0.06387018  1
  Te  Te76  1  0.07955846  0.42251238  0.41278223  1
  Te  Te77  1  0.07775604  0.40908267  0.74489004  1
  Te  Te78  1  0.10412004  0.76401807  0.07308577  1
  Te  Te79  1  0.07479885  0.74416571  0.38879705  1
  Te  Te80  1  0.06688329  0.74529298  0.73060833  1
  Te  Te81  1  0.40225416  0.09815070  0.09818253  1
  Te  Te82  1  0.37573269  0.05160750  0.39553209  1
  Te  Te83  1  0.41863539  0.06348442  0.76654093  1
  Te  Te84  1  0.42075910  0.40635396  0.07295869  1
  Te  Te85  1  0.39202058  0.39350454  0.39148766  1
  Te  Te86  1  0.39563402  0.41027066  0.74577721  1
  Te  Te87  1  0.42694099  0.74278959  0.10128804  1
  Te  Te88  1  0.39611534  0.77638956  0.42277632  1
  Te  Te89  1  0.44424777  0.79460518  0.71456460  1
  Te  Te90  1  0.80671689  0.10982832  0.05298567  1
  Te  Te91  1  0.75568665  0.08734861  0.40864365  1
  Te  Te92  1  0.75306752  0.08607091  0.77276110  1
  Te  Te93  1  0.75735349  0.41008267  0.08036357  1
  Te  Te94  1  0.76620049  0.42840053  0.43139447  1
  Te  Te95  1  0.75375117  0.41573770  0.75598572  1
  Te  Te96  1  0.75076015  0.73134449  0.07732657  1
  Te  Te97  1  0.73615519  0.75219884  0.40419738  1
  Te  Te98  1  0.73192025  0.74441000  0.73075286  1
  Te  Te99  1  0.10330854  0.22783860  0.25159032  1
  Te  Te100  1  0.07784945  0.22545455  0.57058422  1
  Te  Te101  1  0.08240650  0.26883702  0.94396264  1
  Te  Te102  1  0.07966365  0.59108973  0.22455428  1
  Te  Te103  1  0.09694843  0.58488027  0.57204352  1
  Te  Te104  1  0.10682931  0.57054610  0.93199626  1
  Te  Te105  1  0.10797560  0.93978336  0.23972620  1
  Te  Te106  1  0.10714969  0.93887009  0.56915690  1
  Te  Te107  1  0.09449589  0.91943778  0.94139884  1
  Te  Te108  1  0.38196398  0.24547574  0.24082979  1
  Te  Te109  1  0.40681610  0.26957792  0.58888073  1
  Te  Te110  1  0.41415362  0.24909895  0.92533553  1
  Te  Te111  1  0.42564988  0.58061393  0.23873194  1
  Te  Te112  1  0.40927759  0.58557280  0.58647099  1
  Te  Te113  1  0.41329708  0.59030327  0.89386389  1
  Te  Te114  1  0.37414476  0.91493437  0.25103116  1
  Te  Te115  1  0.40423429  0.89554246  0.59343288  1
  Te  Te116  1  0.40413926  0.91803154  0.91866155  1
  Te  Te117  1  0.75621921  0.25548752  0.23200847  1
  Te  Te118  1  0.76495067  0.28181728  0.57696355  1
  Te  Te119  1  0.75939794  0.27070052  0.93670937  1
  Te  Te120  1  0.74720635  0.59069963  0.25192851  1
  Te  Te121  1  0.73241956  0.60110355  0.59828389  1
  Te  Te122  1  0.73106296  0.58926060  0.93067392  1
  Te  Te123  1  0.75363966  0.91366830  0.24175010  1
  Te  Te124  1  0.74887055  0.92256475  0.59160311  1
  Te  Te125  1  0.75678824  0.90771846  0.91157287  1
  Te  Te126  1  0.22195913  0.20331621  0.10059512  1
  Te  Te127  1  0.24022691  0.23777449  0.39919044  1
  Te  Te128  1  0.24229241  0.24979855  0.72983422  1
  Te  Te129  1  0.23486841  0.58393342  0.08288431  1
  Te  Te130  1  0.25035826  0.58429274  0.41263629  1
  Te  Te131  1  0.27341469  0.60794705  0.76069873  1
  Te  Te132  1  0.22105541  0.95196035  0.10968707  1
  Te  Te133  1  0.22701190  0.93103643  0.44942056  1
  Te  Te134  1  0.25791032  0.90043601  0.77379344  1
  Te  Te135  1  0.59933358  0.24473864  0.08069685  1
  Te  Te136  1  0.58205135  0.23964991  0.40876733  1
  Te  Te137  1  0.58034848  0.23851603  0.74773319  1
  Te  Te138  1  0.57441102  0.59688725  0.08575746  1
  Te  Te139  1  0.58987645  0.58705232  0.42295822  1
  Te  Te140  1  0.54968265  0.60102236  0.76969276  1
  Te  Te141  1  0.59290470  0.91769957  0.08539821  1
  Te  Te142  1  0.57280091  0.91668502  0.42517805  1
  Te  Te143  1  0.54768795  0.90151749  0.75321173  1
  Te  Te144  1  0.88747631  0.23590558  0.09979519  1
  Te  Te145  1  0.92139920  0.25309855  0.42203580  1
  Te  Te146  1  0.93283167  0.23630954  0.76065945  1
  Te  Te147  1  0.91593755  0.58055161  0.08991021  1
  Te  Te148  1  0.92947562  0.59970026  0.39865262  1
  Te  Te149  1  0.90965003  0.57891240  0.76731416  1
  Te  Te150  1  0.94432701  0.93574222  0.07016252  1
  Te  Te151  1  0.94838097  0.93419369  0.39072770  1
  Te  Te152  1  0.91620322  0.94562303  0.77261917  1
  Te  Te153  1  0.23754779  0.14696772  0.23962089  1
  Te  Te154  1  0.24583912  0.11237922  0.60938658  1
  Te  Te155  1  0.23488599  0.10720857  0.92882842  1
  Te  Te156  1  0.23373715  0.39597890  0.22738062  1
  Te  Te157  1  0.24106549  0.41896406  0.59460062  1
  Te  Te158  1  0.26346388  0.42065090  0.91860914  1
  Te  Te159  1  0.23635005  0.74011897  0.23770919  1
  Te  Te160  1  0.27110571  0.73874247  0.59993129  1
  Te  Te161  1  0.25688816  0.76846143  0.93293136  1
  Te  Te162  1  0.56802047  0.08275646  0.24646863  1
  Te  Te163  1  0.58824214  0.07333455  0.58505110  1
  Te  Te164  1  0.58047879  0.05850938  0.90799623  1
  Te  Te165  1  0.57768286  0.41162708  0.25576112  1
  Te  Te166  1  0.58776781  0.44006664  0.56502484  1
  Te  Te167  1  0.59834771  0.40830793  0.93041352  1
  Te  Te168  1  0.57860041  0.72707281  0.26943188  1
  Te  Te169  1  0.55819626  0.74689803  0.60726139  1
  Te  Te170  1  0.57572966  0.72464323  0.91718671  1
  Te  Te171  1  0.95831393  0.08154868  0.25021351  1
  Te  Te172  1  0.91459604  0.08975692  0.58145521  1
  Te  Te173  1  0.90815946  0.06419316  0.94026925  1
  Te  Te174  1  0.92113423  0.40801476  0.22575506  1
  Te  Te175  1  0.93816619  0.40494334  0.60648787  1
  Te  Te176  1  0.94954193  0.39485588  0.95443672  1
  Te  Te177  1  0.90733259  0.75258387  0.22264555  1
  Te  Te178  1  0.90449140  0.76284563  0.56889890  1
  Te  Te179  1  0.92283753  0.75346284  0.91603427  1
