# generated using pymatgen
data_In2Te3
_symmetry_space_group_name_H-M   'P 1'
_cell_length_a   18.96021360
_cell_length_b   18.97235736
_cell_length_c   18.95940479
_cell_angle_alpha   90.19952511
_cell_angle_beta   89.88245214
_cell_angle_gamma   89.97284545
_symmetry_Int_Tables_number   1
_chemical_formula_structural   In2Te3
_chemical_formula_sum   'In72 Te108'
_cell_volume   6820.01961166
_cell_formula_units_Z   36
loop_
 _symmetry_equiv_pos_site_id
 _symmetry_equiv_pos_as_xyz
  1  'x, y, z'
loop_
 _atom_site_type_symbol
 _atom_site_label
 _atom_site_symmetry_multiplicity
 _atom_site_fract_x
 _atom_site_fract_y
 _atom_site_fract_z
 _atom_site_occupancy
  In  In0  1  0.14738629  0.51766312  0.35335513  1
  In  In1  1  0.80984193  0.82402560  0.34357431  1
  In  In2  1  0.35029851  0.48165183  0.50955271  1
  In  In3  1  0.65268130  0.67009104  -0.01378009  1
  In  In4  1  0.14087875  0.65911187  0.51218716  1
  In  In5  1  0.66483417  0.17953793  0.49873227  1
  In  In6  1  0.33809474  0.49800106  0.18497036  1
  In  In7  1  0.67639730  0.00053037  0.00049738  1
  In  In8  1  0.84971262  0.31316882  0.48478175  1
  In  In9  1  -0.02885907  0.84880431  0.51150592  1
  In  In10  1  -0.03889098  0.15337860  0.10146893  1
  In  In11  1  0.82890407  0.33698043  0.83037681  1
  In  In12  1  0.66900591  0.84353569  0.85273413  1
  In  In13  1  0.17832672  0.16829696  0.32790292  1
  In  In14  1  0.14028858  0.86658238  0.34034795  1
  In  In15  1  0.84004549  -0.00822814  0.14711305  1
  In  In16  1  -0.03463930  0.67161179  -0.01705669  1
  In  In17  1  0.17385110  0.48578974  0.00391334  1
  In  In18  1  0.66617456  0.84375152  0.13450098  1
  In  In19  1  0.65855945  0.33723010  0.65258492  1
  In  In20  1  0.34574284  0.16331169  0.13370339  1
  In  In21  1  0.42674479  0.02800156  0.30947816  1
  In  In22  1  0.34432825  0.05348514  0.75935373  1
  In  In23  1  0.51128612  0.33354544  0.50118119  1
  In  In24  1  0.50891443  0.82726297  0.68149788  1
  In  In25  1  0.00869253  -0.00575124  0.01502818  1
  In  In26  1  0.32416063  0.81114849  0.14575029  1
  In  In27  1  0.18249298  0.16652520  -0.01067886  1
  In  In28  1  -0.00221013  0.51154079  0.84014845  1
  In  In29  1  0.65472852  0.49730171  0.83174827  1
  In  In30  1  0.17038560  0.80843657  0.00604294  1
  In  In31  1  0.16232623  0.34263019  0.50355062  1
  In  In32  1  0.68048033  -0.00509396  0.68245356  1
  In  In33  1  -0.00982224  0.66172714  0.69474151  1
  In  In34  1  0.34126651  0.82543311  0.51164081  1
  In  In35  1  0.32915501  0.66232390  0.30523219  1
  In  In36  1  0.01581527  0.17134216  0.85141511  1
  In  In37  1  0.52719696  0.84226320  0.32292022  1
  In  In38  1  0.20737841  0.00913635  0.52233123  1
  In  In39  1  0.04436928  0.30129030  0.15181818  1
  In  In40  1  0.66992742  0.64953707  0.64689483  1
  In  In41  1  0.18684103  0.20318707  0.68108486  1
  In  In42  1  0.67544044  0.17373878  0.80135245  1
  In  In43  1  0.80731764  0.66099681  0.17223717  1
  In  In44  1  0.33706338  0.64165691  -0.03357167  1
  In  In45  1  0.67479248  0.31938976  0.01888033  1
  In  In46  1  0.69030431  0.30894583  0.31234333  1
  In  In47  1  0.64700787  0.02378012  0.33245563  1
  In  In48  1  0.81715625  0.48018312  0.00963653  1
  In  In49  1  0.32248156  0.32706830  -0.01751702  1
  In  In50  1  0.51035276  0.33240823  0.15936428  1
  In  In51  1  0.67171241  0.64032530  0.34846122  1
  In  In52  1  0.50988671  0.00967052  0.49741023  1
  In  In53  1  0.50576028  0.65253011  0.48603638  1
  In  In54  1  0.51891413  0.49917024  -0.01160839  1
  In  In55  1  0.31269532  0.62772241  0.70444711  1
  In  In56  1  0.35528702  0.85306520  0.84693732  1
  In  In57  1  0.01606517  0.02936217  0.32071802  1
  In  In58  1  0.80980932  0.00821717  0.49876068  1
  In  In59  1  -0.02328796  -0.00412175  0.65945448  1
  In  In60  1  0.36505799  0.36802273  0.68854344  1
  In  In61  1  0.14603887  0.81600840  0.68420796  1
  In  In62  1  0.13287150  0.64752298  0.16872455  1
  In  In63  1  0.48903369  0.67160062  0.15573777  1
  In  In64  1  0.31369890  0.33375786  0.32953519  1
  In  In65  1  -0.02325736  0.51998833  0.52246290  1
  In  In66  1  0.16304207  -0.00930153  0.82076490  1
  In  In67  1  0.00713593  0.34652751  0.68456052  1
  In  In68  1  -0.05026632  0.66446724  0.35742233  1
  In  In69  1  0.18399148  -0.02129584  0.18102294  1
  In  In70  1  0.84162834  0.81885204  0.69014210  1
  In  In71  1  0.50484461  0.17756156  -0.01331832  1
  Te  Te72  1  0.10873750  0.08733189  0.09844321  1
  Te  Te73  1  0.10678364  0.08087564  0.43130569  1
  Te  Te74  1  0.08423240  0.08753170  0.73566780  1
  Te  Te75  1  0.06894042  0.43754427  0.09707995  1
  Te  Te76  1  0.05811494  0.42547624  0.43195357  1
  Te  Te77  1  0.09903999  0.42778611  0.76768352  1
  Te  Te78  1  0.05732094  0.74744265  0.08477849  1
  Te  Te79  1  0.07013498  0.74966574  0.41367829  1
  Te  Te80  1  0.07553963  0.73966462  0.79054232  1
  Te  Te81  1  0.41241623  0.06822574  0.03889569  1
  Te  Te82  1  0.40848373  0.09519351  0.43690802  1
  Te  Te83  1  0.45955743  0.14286116  0.77040562  1
  Te  Te84  1  0.41044600  0.42267345  0.07404522  1
  Te  Te85  1  0.42189440  0.41397812  0.39752486  1
  Te  Te86  1  0.45232897  0.46518788  0.75999642  1
  Te  Te87  1  0.41803694  0.74508669  0.04586776  1
  Te  Te88  1  0.41954508  0.75382653  0.39645996  1
  Te  Te89  1  0.40674628  0.74143981  0.75133662  1
  Te  Te90  1  0.73768417  0.08607012  0.10456870  1
  Te  Te91  1  0.75555648  0.10605464  0.39699034  1
  Te  Te92  1  0.77601635  0.07693702  0.75556893  1
  Te  Te93  1  0.71857739  0.42885927  0.10924193  1
  Te  Te94  1  0.73671248  0.38651359  0.42783433  1
  Te  Te95  1  0.74987901  0.42587484  0.73735842  1
  Te  Te96  1  0.75882106  0.75083153  0.05913192  1
  Te  Te97  1  0.74705003  0.73200547  0.44268573  1
  Te  Te98  1  0.72963744  0.74156771  0.75383408  1
  Te  Te99  1  0.06089045  0.25796183  0.29849978  1
  Te  Te100  1  0.07706252  0.24991708  0.58709905  1
  Te  Te101  1  0.09965482  0.26649905  0.92312771  1
  Te  Te102  1  0.04014564  0.57788447  0.26531928  1
  Te  Te103  1  0.08620404  0.56878241  0.61632140  1
  Te  Te104  1  0.08765639  0.59013285  0.93616865  1
  Te  Te105  1  0.05468005  0.91410930  0.22539035  1
  Te  Te106  1  0.09583929  0.90950979  0.57308826  1
  Te  Te107  1  0.08893255  0.90631683  0.92041319  1
  Te  Te108  1  0.40837533  0.25361905  0.23957639  1
  Te  Te109  1  0.41965318  0.26819645  0.59416149  1
  Te  Te110  1  0.41267442  0.24929854  0.89234736  1
  Te  Te111  1  0.44490398  0.57238874  0.26307574  1
  Te  Te112  1  0.41176018  0.59338223  0.58965486  1
  Te  Te113  1  0.43490482  0.56419248  0.88205712  1
  Te  Te114  1  0.42069025  0.89493590  0.22653805  1
  Te  Te115  1  0.42758999  0.91947311  0.59064614  1
  Te  Te116  1  0.41818972  0.95655426  0.92778730  1
  Te  Te117  1  0.80576450  0.28075382  0.22105270  1
  Te  Te118  1  0.76096719  0.24220207  0.59506084  1
  Te  Te119  1  0.75399773  0.23924529  0.91742058  1
  Te  Te120  1  0.77022820  0.55937639  0.27249552  1
  Te  Te121  1  0.77148194  0.61541083  0.54468565  1
  Te  Te122  1  0.75142697  0.57942622  0.91431132  1
  Te  Te123  1  0.73926865  0.92019234  0.24969041  1
  Te  Te124  1  0.75718682  0.90122839  0.59009085  1
  Te  Te125  1  0.77477687  0.92078052  0.92114984  1
  Te  Te126  1  0.24268295  0.26692355  0.09541890  1
  Te  Te127  1  0.25602582  0.24393217  0.43605359  1
  Te  Te128  1  0.27310636  0.28135408  0.76956140  1
  Te  Te129  1  0.25733659  0.59656742  0.09499994  1
  Te  Te130  1  0.26168090  0.59046008  0.42199309  1
  Te  Te131  1  0.22689101  0.54152092  0.78566441  1
  Te  Te132  1  0.25776816  0.91965083  0.06297929  1
  Te  Te133  1  0.26261055  0.91519811  0.41379191  1
  Te  Te134  1  0.25850103  0.90786059  0.73402398  1
  Te  Te135  1  0.59490894  0.22014748  0.10278518  1
  Te  Te136  1  0.57452360  0.24242899  0.39729834  1
  Te  Te137  1  0.56515692  0.25487186  0.73632775  1
  Te  Te138  1  0.59302882  0.57999426  0.09279692  1
  Te  Te139  1  0.59775642  0.54705011  0.43797791  1
  Te  Te140  1  0.57275209  0.57518069  0.73413987  1
  Te  Te141  1  0.56933229  0.90888858  0.04841417  1
  Te  Te142  1  0.60721688  0.91416777  0.42918504  1
  Te  Te143  1  0.57387540  0.93106639  0.76930477  1
  Te  Te144  1  0.88494432  0.28355669  0.08465492  1
  Te  Te145  1  0.93783441  0.24317271  0.39268718  1
  Te  Te146  1  0.92196800  0.24251698  0.75537498  1
  Te  Te147  1  0.90400253  0.57916983  0.08632233  1
  Te  Te148  1  0.87305663  0.55249498  0.41869145  1
  Te  Te149  1  0.89082642  0.57937976  0.76425782  1
  Te  Te150  1  0.89592628  0.90188992  0.04283098  1
  Te  Te151  1  0.91522668  0.92949183  0.39818989  1
  Te  Te152  1  0.93290113  0.90713382  0.76536018  1
  Te  Te153  1  0.27499184  0.07802894  0.25038077  1
  Te  Te154  1  0.27901293  0.09509092  0.62309672  1
  Te  Te155  1  0.25846621  0.08722026  0.88688329  1
  Te  Te156  1  0.22271416  0.42807389  0.25421973  1
  Te  Te157  1  0.24559367  0.42438965  0.59866303  1
  Te  Te158  1  0.27026044  0.44037459  0.89747602  1
  Te  Te159  1  0.22079739  0.75550496  0.25092478  1
  Te  Te160  1  0.24665125  0.73683987  0.59202779  1
  Te  Te161  1  0.25476074  0.74718428  0.89633967  1
  Te  Te162  1  0.54591457  0.06919037  0.23777918  1
  Te  Te163  1  0.59373167  0.08775875  0.59566023  1
  Te  Te164  1  0.59896822  0.09155227  0.90489706  1
  Te  Te165  1  0.60457525  0.40938829  0.24071472  1
  Te  Te166  1  0.58940989  0.43937844  0.57031190  1
  Te  Te167  1  0.58808645  0.38744163  0.91348402  1
  Te  Te168  1  0.60328926  0.73937651  0.24048042  1
  Te  Te169  1  0.58154354  0.75204736  0.57211835  1
  Te  Te170  1  0.56541549  0.75197467  0.90375022  1
  Te  Te171  1  0.91254909  0.09597709  0.23589541  1
  Te  Te172  1  0.91573456  0.08472059  0.56335749  1
  Te  Te173  1  0.92699612  0.10622957  0.95484309  1
  Te  Te174  1  0.92383586  0.38346849  0.19808135  1
  Te  Te175  1  0.90355351  0.41260676  0.59731556  1
  Te  Te176  1  0.92262876  0.40876209  0.92485128  1
  Te  Te177  1  0.90305357  0.75564353  0.24578590  1
  Te  Te178  1  0.91265091  0.73158015  0.58152610  1
  Te  Te179  1  0.93082807  0.73792848  0.85549485  1
