# generated using pymatgen
data_In2Te3
_symmetry_space_group_name_H-M   'P 1'
_cell_length_a   18.87767122
_cell_length_b   18.86168981
_cell_length_c   18.88813128
_cell_angle_alpha   90.00884261
_cell_angle_beta   90.02573364
_cell_angle_gamma   89.94001289
_symmetry_Int_Tables_number   1
_chemical_formula_structural   In2Te3
_chemical_formula_sum   'In72 Te108'
_cell_volume   6725.39384615
_cell_formula_units_Z   36
loop_
 _symmetry_equiv_pos_site_id
 _symmetry_equiv_pos_as_xyz
  1  'x, y, z'
loop_
 _atom_site_type_symbol
 _atom_site_label
 _atom_site_symmetry_multiplicity
 _atom_site_fract_x
 _atom_site_fract_y
 _atom_site_fract_z
 _atom_site_occupancy
  In  In0  1  0.53598918  0.51042214  0.03565317  1
  In  In1  1  0.70404184  0.00961094  0.00856738  1
  In  In2  1  0.18202352  0.69785386  0.52313288  1
  In  In3  1  0.64845413  0.65785776  -0.00161484  1
  In  In4  1  0.83364986  0.67108486  0.49394501  1
  In  In5  1  -0.01602075  0.84824125  0.51663080  1
  In  In6  1  0.01298963  0.33946932  0.34208726  1
  In  In7  1  -0.00281893  0.32330855  0.00380482  1
  In  In8  1  0.81091213  0.81367084  0.31495929  1
  In  In9  1  0.66281675  0.82132423  0.17060167  1
  In  In10  1  0.50581665  0.16290105  0.32830417  1
  In  In11  1  -0.01853142  -0.01056770  0.66166961  1
  In  In12  1  0.64222987  -0.00384511  0.33422055  1
  In  In13  1  0.67760085  0.30131599  -0.01323550  1
  In  In14  1  0.01466491  0.35640828  0.65385639  1
  In  In15  1  0.82462742  0.14816540  0.68003112  1
  In  In16  1  0.47323122  0.33859095  0.50882938  1
  In  In17  1  0.84747136  0.66605578  0.15962410  1
  In  In18  1  0.86110278  0.69987646  0.86042325  1
  In  In19  1  0.17099957  0.82200752  -0.00192823  1
  In  In20  1  -0.01659805  0.66990932  0.33117635  1
  In  In21  1  0.35780359  0.13606630  0.80036723  1
  In  In22  1  0.32422618  0.51867415  0.82686066  1
  In  In23  1  0.21465271  -0.02625297  0.80481552  1
  In  In24  1  0.33715448  0.15662812  0.16722156  1
  In  In25  1  0.33411592  0.53827049  0.19322352  1
  In  In26  1  0.51028050  0.32898257  0.16352393  1
  In  In27  1  0.31980480  -0.02432317  -0.00090010  1
  In  In28  1  0.66556511  0.33787528  0.31477932  1
  In  In29  1  0.64620945  0.68184589  0.34968032  1
  In  In30  1  0.16539380  0.51317072  0.64824160  1
  In  In31  1  0.81989627  0.83255552  0.66701883  1
  In  In32  1  0.83689692  0.47205162  0.02048803  1
  In  In33  1  -0.00276720  0.16297095  0.14766582  1
  In  In34  1  0.17614742  0.17151894  0.66966620  1
  In  In35  1  0.50026586  0.31535370  0.82478242  1
  In  In36  1  0.64629557  0.30795299  0.67116773  1
  In  In37  1  0.50027911  0.83702624  -0.01057496  1
  In  In38  1  0.48636968  -0.00538878  0.50817283  1
  In  In39  1  0.18123929  0.80911479  0.31623810  1
  In  In40  1  0.48064702  0.70181009  0.50477642  1
  In  In41  1  0.15671747  0.71250955  0.81379189  1
  In  In42  1  0.32557500  0.50834319  0.49752146  1
  In  In43  1  0.81852587  -0.01600477  0.51617098  1
  In  In44  1  0.17512285  0.54121539  -0.02660838  1
  In  In45  1  0.49236155  0.51527769  0.65790343  1
  In  In46  1  0.31870897  0.34437712  0.00943885  1
  In  In47  1  0.36305590  -0.03615755  0.31853820  1
  In  In48  1  0.01500469  0.52977266  0.16876957  1
  In  In49  1  0.86158508  0.51442973  0.67871158  1
  In  In50  1  0.84621057  0.29711572  0.19004630  1
  In  In51  1  0.13363056  0.15263443  -0.01653419  1
  In  In52  1  0.50054185  0.12834249  -0.02533968  1
  In  In53  1  0.49554226  0.84036023  0.66388816  1
  In  In54  1  0.32975930  0.17689258  0.52487571  1
  In  In55  1  0.02076812  -0.01705223  0.31885334  1
  In  In56  1  0.16090671  0.34893881  0.50287332  1
  In  In57  1  0.68293100  0.51869316  0.49212853  1
  In  In58  1  0.64885181  0.51391260  0.14477932  1
  In  In59  1  0.83173442  0.50866959  0.33540528  1
  In  In60  1  0.17891598  0.16079196  0.34148104  1
  In  In61  1  0.00124996  -0.02588415  0.00533584  1
  In  In62  1  0.81544370  0.32665968  0.85503854  1
  In  In63  1  0.18188056  0.36045847  0.17185787  1
  In  In64  1  0.65458556  0.14486196  0.51434599  1
  In  In65  1  0.34910919  0.67603046  0.03027286  1
  In  In66  1  0.85941479  0.16243987  0.31801490  1
  In  In67  1  0.49111373  0.67556608  0.84251401  1
  In  In68  1  0.65782662  0.50760345  0.82272155  1
  In  In69  1  -0.01118409  0.15453685  0.82391236  1
  In  In70  1  0.82491346  -0.01307778  0.82446282  1
  In  In71  1  0.16045755  -0.00555338  0.49726404  1
  Te  Te72  1  0.09636466  0.05968695  0.09565703  1
  Te  Te73  1  0.06908177  0.08819524  0.41830580  1
  Te  Te74  1  0.08846814  0.06724606  0.74869037  1
  Te  Te75  1  0.08819760  0.42652025  0.07133863  1
  Te  Te76  1  0.09713269  0.43948302  0.40614862  1
  Te  Te77  1  0.09748889  0.42864808  0.74860438  1
  Te  Te78  1  0.05607606  0.74615560  0.05359247  1
  Te  Te79  1  0.06929790  0.76650689  0.41985817  1
  Te  Te80  1  0.06384454  0.79974294  0.73994227  1
  Te  Te81  1  0.41721992  0.05914507  0.08343186  1
  Te  Te82  1  0.40098229  0.08850500  0.41257640  1
  Te  Te83  1  0.43813756  0.04100110  0.72220909  1
  Te  Te84  1  0.40986962  0.42960960  0.09583526  1
  Te  Te85  1  0.41796060  0.43098314  0.41100652  1
  Te  Te86  1  0.41756224  0.42210399  0.75223033  1
  Te  Te87  1  0.40743183  0.79497062  0.10292119  1
  Te  Te88  1  0.37817052  0.72065026  0.39319320  1
  Te  Te89  1  0.40409120  0.75094172  0.74828225  1
  Te  Te90  1  0.77260237  0.11968150  0.07745117  1
  Te  Te91  1  0.75177950  0.08131284  0.41470931  1
  Te  Te92  1  0.73033392  0.04116152  0.72125323  1
  Te  Te93  1  0.73644659  0.38976194  0.10435648  1
  Te  Te94  1  0.75533702  0.40658322  0.41739539  1
  Te  Te95  1  0.74596750  0.41145580  0.74362842  1
  Te  Te96  1  0.75229127  0.74454913  0.07266686  1
  Te  Te97  1  0.73400843  0.77069642  0.43845742  1
  Te  Te98  1  0.75576495  0.74861210  0.77054984  1
  Te  Te99  1  0.08651905  0.24584438  0.24141534  1
  Te  Te100  1  0.08008230  0.24190937  0.57533500  1
  Te  Te101  1  0.07947307  0.25969410  0.89133058  1
  Te  Te102  1  0.09686423  0.60935790  0.25928874  1
  Te  Te103  1  0.07798860  0.61468201  0.58646569  1
  Te  Te104  1  0.07985948  0.60033012  0.87875504  1
  Te  Te105  1  0.10401487  0.90158717  0.22976696  1
  Te  Te106  1  0.09795241  0.90256676  0.60428552  1
  Te  Te107  1  0.11168695  0.92946094  0.90606810  1
  Te  Te108  1  0.40983701  0.25813774  0.25363557  1
  Te  Te109  1  0.42836851  0.24449143  0.61213508  1
  Te  Te110  1  0.41133310  0.25073888  0.93168081  1
  Te  Te111  1  0.42247920  0.63058451  0.26759646  1
  Te  Te112  1  0.39499018  0.60809568  0.59145724  1
  Te  Te113  1  0.42304832  0.57029982  0.93297237  1
  Te  Te114  1  0.45135463  0.88785942  0.22772160  1
  Te  Te115  1  0.39277115  0.88816983  0.55967461  1
  Te  Te116  1  0.41241705  0.91667895  0.89727974  1
  Te  Te117  1  0.72994456  0.21730776  0.24849949  1
  Te  Te118  1  0.75073651  0.24176750  0.58259337  1
  Te  Te119  1  0.73264059  0.20732234  0.88481668  1
  Te  Te120  1  0.73853738  0.59650140  0.25309436  1
  Te  Te121  1  0.75451027  0.59515684  0.60022782  1
  Te  Te122  1  0.75036970  0.56346668  0.92990501  1
  Te  Te123  1  0.74805672  0.92816844  0.23947765  1
  Te  Te124  1  0.71662581  0.92259252  0.60459531  1
  Te  Te125  1  0.75917867  0.90086232  0.92304874  1
  Te  Te126  1  0.23282188  0.23825257  0.08060386  1
  Te  Te127  1  0.25822995  0.26196601  0.41987866  1
  Te  Te128  1  0.26663596  0.24298802  0.75964437  1
  Te  Te129  1  0.23102409  0.60499190  0.09677728  1
  Te  Te130  1  0.24950120  0.61230863  0.41991805  1
  Te  Te131  1  0.24633856  0.60926683  0.73719757  1
  Te  Te132  1  0.25167919  0.89366410  0.10148280  1
  Te  Te133  1  0.25078418  0.91000407  0.40849909  1
  Te  Te134  1  0.28708677  0.86476002  0.73564352  1
  Te  Te135  1  0.57415973  0.22775133  0.07158624  1
  Te  Te136  1  0.58487139  0.25660419  0.42341701  1
  Te  Te137  1  0.59914185  0.21533942  0.77692072  1
  Te  Te138  1  0.55695956  0.63772584  0.11902946  1
  Te  Te139  1  0.56286362  0.58703324  0.43267280  1
  Te  Te140  1  0.58329325  0.60753111  0.73807225  1
  Te  Te141  1  0.59477851  0.91823107  0.07604829  1
  Te  Te142  1  0.57063141  0.90561618  0.42538266  1
  Te  Te143  1  0.53128597  0.93094922  0.77996193  1
  Te  Te144  1  0.88580671  0.22646689  0.05377216  1
  Te  Te145  1  0.91154434  0.26152773  0.41268829  1
  Te  Te146  1  0.91130172  0.25927687  0.74524806  1
  Te  Te147  1  0.93000272  0.58833431  0.05700995  1
  Te  Te148  1  0.92963145  0.56930497  0.43320102  1
  Te  Te149  1  0.93180785  0.59534517  0.78122661  1
  Te  Te150  1  0.92132000  0.87193918  0.07498448  1
  Te  Te151  1  0.90199977  0.91462787  0.40494883  1
  Te  Te152  1  0.93611684  0.88862829  0.76644546  1
  Te  Te153  1  0.25658524  0.06292022  0.25580908  1
  Te  Te154  1  0.25603465  0.06327048  0.59448570  1
  Te  Te155  1  0.25313973  0.09119782  0.91110632  1
  Te  Te156  1  0.26207905  0.43347667  0.26849510  1
  Te  Te157  1  0.26458481  0.40789796  0.59575306  1
  Te  Te158  1  0.23668800  0.41855765  0.90629042  1
  Te  Te159  1  0.29622046  0.73010220  0.26052860  1
  Te  Te160  1  0.27308014  0.79086598  0.59606527  1
  Te  Te161  1  0.27137004  0.74062547  0.91819410  1
  Te  Te162  1  0.56372651  0.06803704  0.23292408  1
  Te  Te163  1  0.54390939  0.09660491  0.60201298  1
  Te  Te164  1  0.59702524  0.04183012  0.90560742  1
  Te  Te165  1  0.56838886  0.43715083  0.25555516  1
  Te  Te166  1  0.59182439  0.42384024  0.58394146  1
  Te  Te167  1  0.58446977  0.41132167  0.91835313  1
  Te  Te168  1  0.56440067  0.79053622  0.28397484  1
  Te  Te169  1  0.58895732  0.75150776  0.59128379  1
  Te  Te170  1  0.60111399  0.76344684  0.89983654  1
  Te  Te171  1  0.92127481  0.05723230  0.22737811  1
  Te  Te172  1  0.91525981  0.08910927  0.57037865  1
  Te  Te173  1  0.91345809  0.06835984  0.92095502  1
  Te  Te174  1  0.91546392  0.42956229  0.23467414  1
  Te  Te175  1  0.91338300  0.42623614  0.57395934  1
  Te  Te176  1  0.92522536  0.41880707  0.90747411  1
  Te  Te177  1  0.93152583  0.77296817  0.23026150  1
  Te  Te178  1  0.91997593  0.73889440  0.59958657  1
  Te  Te179  1  0.95594331  0.78472504  0.94838347  1
