# generated using pymatgen
data_In2Te3
_symmetry_space_group_name_H-M   'P 1'
_cell_length_a   18.77664354
_cell_length_b   18.77757725
_cell_length_c   18.77911966
_cell_angle_alpha   90.03544298
_cell_angle_beta   90.06103620
_cell_angle_gamma   90.00986584
_symmetry_Int_Tables_number   1
_chemical_formula_structural   In2Te3
_chemical_formula_sum   'In72 Te108'
_cell_volume   6621.13452852
_cell_formula_units_Z   36
loop_
 _symmetry_equiv_pos_site_id
 _symmetry_equiv_pos_as_xyz
  1  'x, y, z'
loop_
 _atom_site_type_symbol
 _atom_site_label
 _atom_site_symmetry_multiplicity
 _atom_site_fract_x
 _atom_site_fract_y
 _atom_site_fract_z
 _atom_site_occupancy
  In  In0  1  0.65465545  0.34381851  -0.01571684  1
  In  In1  1  0.82469376  0.83455727  0.65945370  1
  In  In2  1  0.35313326  0.00077723  0.68474933  1
  In  In3  1  0.46886531  0.33527722  0.17970960  1
  In  In4  1  0.51917530  0.85130398  0.34915231  1
  In  In5  1  0.32737860  0.84968261  0.15266368  1
  In  In6  1  0.50637573  0.51555957  0.33900316  1
  In  In7  1  0.13836741  0.48774050  0.33387393  1
  In  In8  1  0.65737535  0.19306417  0.80484799  1
  In  In9  1  -0.02983301  0.31681188  -0.01260138  1
  In  In10  1  0.33878649  0.49027541  0.52624627  1
  In  In11  1  0.82522532  -0.00281990  0.51817477  1
  In  In12  1  0.84545237  0.15130934  0.34211711  1
  In  In13  1  -0.02183914  0.49219664  0.49768802  1
  In  In14  1  0.67501405  0.15552276  0.16613913  1
  In  In15  1  0.82363236  0.50466742  -0.02638359  1
  In  In16  1  0.64119422  0.52809188  0.14465228  1
  In  In17  1  0.82861782  0.66908832  0.82976429  1
  In  In18  1  0.16256171  0.84613931  0.34876514  1
  In  In19  1  0.82651892  0.49806936  0.68551070  1
  In  In20  1  0.83585807  0.68295321  0.50252367  1
  In  In21  1  0.31195940  0.31549532  -0.03056175  1
  In  In22  1  0.49631228  -0.00762736  0.84298762  1
  In  In23  1  0.13944053  0.30473394  0.18311936  1
  In  In24  1  0.49604354  0.33736876  0.52117627  1
  In  In25  1  0.01544715  0.50995343  0.16057300  1
  In  In26  1  0.80805010  0.32484892  0.51627061  1
  In  In27  1  0.16890808  0.48139841  0.66516774  1
  In  In28  1  0.15585760  0.68270348  0.14859322  1
  In  In29  1  0.35058219  0.15572741  0.50637512  1
  In  In30  1  0.16535332  0.01282457  0.83998514  1
  In  In31  1  0.35675036  0.82159237  0.85048108  1
  In  In32  1  0.51780917  -0.00018611  0.17312901  1
  In  In33  1  0.18100133  0.64771005  0.81120373  1
  In  In34  1  0.66981706  0.84561205  0.15928334  1
  In  In35  1  0.48444405  0.16740965  0.00295966  1
  In  In36  1  0.16642774  0.84914828  0.02117905  1
  In  In37  1  0.15376068  0.00455359  0.49273087  1
  In  In38  1  0.01609058  0.68382418  -0.01663374  1
  In  In39  1  0.35461381  0.67721891  -0.00772772  1
  In  In40  1  0.02356402  0.32109436  0.32793060  1
  In  In41  1  0.83140880  0.30476107  0.14123664  1
  In  In42  1  0.00718645  -0.00221671  0.66394076  1
  In  In43  1  0.31119620  0.30728299  0.34699121  1
  In  In44  1  0.82766432  0.69034770  0.16081414  1
  In  In45  1  0.68076405  -0.00292127  0.34951755  1
  In  In46  1  0.15058272  0.13511317  0.01685802  1
  In  In47  1  0.67028844  0.66257155  0.35197381  1
  In  In48  1  0.17110546  0.49647302  -0.01954150  1
  In  In49  1  0.49892824  0.48970288  0.66693802  1
  In  In50  1  0.31373091  0.83831770  0.48997999  1
  In  In51  1  0.51538622  0.51293534  -0.02288496  1
  In  In52  1  0.69464900  -0.01495206  -0.03465277  1
  In  In53  1  -0.00056328  -0.00353691  0.33396119  1
  In  In54  1  0.30990953  0.14628871  0.20361144  1
  In  In55  1  0.35316967  0.49900244  0.17629015  1
  In  In56  1  0.15550570  0.33690368  0.83381529  1
  In  In57  1  0.51526379  0.68886698  0.83461864  1
  In  In58  1  0.34907486  0.66076456  0.33440685  1
  In  In59  1  -0.01392359  0.83380934  0.81806553  1
  In  In60  1  0.17127000  0.82586988  0.65667399  1
  In  In61  1  0.51757982  0.83783604  0.67295885  1
  In  In62  1  0.16111554  0.66826855  0.49128400  1
  In  In63  1  0.14873183  0.19095441  0.64824625  1
  In  In64  1  0.83603151  0.48200033  0.34224211  1
  In  In65  1  0.82942392  0.16429918  0.67047948  1
  In  In66  1  0.82988251  0.82097908  0.33232638  1
  In  In67  1  0.82691279  0.32128736  0.81317082  1
  In  In68  1  0.64002579  0.31670270  0.36179149  1
  In  In69  1  0.34927411  0.16061975  0.82125669  1
  In  In70  1  0.86616130  0.14447405  0.00360337  1
  In  In71  1  0.67678141  0.67651885  0.65950829  1
  Te  Te72  1  0.06667144  0.05064034  0.10408236  1
  Te  Te73  1  0.06494726  0.10006045  0.42167872  1
  Te  Te74  1  0.07668310  0.10100445  0.75338389  1
  Te  Te75  1  0.08489470  0.40670491  0.06992797  1
  Te  Te76  1  0.09875665  0.39447579  0.44948132  1
  Te  Te77  1  0.06527086  0.41036484  0.74477576  1
  Te  Te78  1  0.05087850  0.78212328  0.09809133  1
  Te  Te79  1  0.06898457  0.75630583  0.41745990  1
  Te  Te80  1  0.07792975  0.73871275  0.74060508  1
  Te  Te81  1  0.40973246  0.08200958  0.10074798  1
  Te  Te82  1  0.43254920  0.05958206  0.42776982  1
  Te  Te83  1  0.45956106  0.09670072  0.73475681  1
  Te  Te84  1  0.41622547  0.41820879  0.06093144  1
  Te  Te85  1  0.41464903  0.41053759  0.40272753  1
  Te  Te86  1  0.44066105  0.36786536  0.73510349  1
  Te  Te87  1  0.42747267  0.76362759  0.08592233  1
  Te  Te88  1  0.42610608  0.75378586  0.42570789  1
  Te  Te89  1  0.41120833  0.74338581  0.73496656  1
  Te  Te90  1  0.75942353  0.06399484  0.08363244  1
  Te  Te91  1  0.74304356  0.10331236  0.44220911  1
  Te  Te92  1  0.73898775  0.08104964  0.75623080  1
  Te  Te93  1  0.75132820  0.42428398  0.08624997  1
  Te  Te94  1  0.72623256  0.42487868  0.42997251  1
  Te  Te95  1  0.72544181  0.41222864  0.75465264  1
  Te  Te96  1  0.74033636  0.75700531  0.06115612  1
  Te  Te97  1  0.73086938  0.77399356  0.43758166  1
  Te  Te98  1  0.73364315  0.77083603  0.76658449  1
  Te  Te99  1  0.09717930  0.20000559  0.27908578  1
  Te  Te100  1  0.08104248  0.27422182  0.54993066  1
  Te  Te101  1  0.08229195  0.23393627  0.92320830  1
  Te  Te102  1  0.07908900  0.60775678  0.25904203  1
  Te  Te103  1  0.07721468  0.57642591  0.57838604  1
  Te  Te104  1  0.07218229  0.57386093  0.89439916  1
  Te  Te105  1  0.10547122  0.93585502  0.24176886  1
  Te  Te106  1  0.07184126  0.89847500  0.56682863  1
  Te  Te107  1  0.07543876  0.91554719  0.91405675  1
  Te  Te108  1  0.42128883  0.22590832  0.27402566  1
  Te  Te109  1  0.40169832  0.25628625  0.60693781  1
  Te  Te110  1  0.43695830  0.26617444  0.89730071  1
  Te  Te111  1  0.44656214  0.60668773  0.22946977  1
  Te  Te112  1  0.44018364  0.58721908  0.56889931  1
  Te  Te113  1  0.41008427  0.58137350  0.89048583  1
  Te  Te114  1  0.41863311  0.92036827  0.25719435  1
  Te  Te115  1  0.41566088  0.91100170  0.58090918  1
  Te  Te116  1  0.41336331  0.92114433  0.94189040  1
  Te  Te117  1  0.75062115  0.25919859  0.26292470  1
  Te  Te118  1  0.72098880  0.24093607  0.60073855  1
  Te  Te119  1  0.75726822  0.24414654  0.93294660  1
  Te  Te120  1  0.75550229  0.58048681  0.24733550  1
  Te  Te121  1  0.75490915  0.57619816  0.57349267  1
  Te  Te122  1  0.72679198  0.59237512  0.90717974  1
  Te  Te123  1  0.76729411  0.92844491  0.24290001  1
  Te  Te124  1  0.72502180  0.93024231  0.60317191  1
  Te  Te125  1  0.79225575  0.88899833  0.91187727  1
  Te  Te126  1  0.25627696  0.24710876  0.09287477  1
  Te  Te127  1  0.23508909  0.21623101  0.43358608  1
  Te  Te128  1  0.24924620  0.25074800  0.74798374  1
  Te  Te129  1  0.25104370  0.58044400  0.08360570  1
  Te  Te130  1  0.25366235  0.56628060  0.40767755  1
  Te  Te131  1  0.27240476  0.56976042  0.72780581  1
  Te  Te132  1  0.24304629  0.95518672  0.09076013  1
  Te  Te133  1  0.26958390  0.95692442  0.40034465  1
  Te  Te134  1  0.24914614  0.90602862  0.76249671  1
  Te  Te135  1  0.58199848  0.25632697  0.09548625  1
  Te  Te136  1  0.56535883  0.22098179  0.44856155  1
  Te  Te137  1  0.56054086  0.27470895  0.72449704  1
  Te  Te138  1  0.57737818  0.63004031  0.05261381  1
  Te  Te139  1  0.58094108  0.58753214  0.44383401  1
  Te  Te140  1  0.58931822  0.58855958  0.74776578  1
  Te  Te141  1  0.58502682  0.92507099  0.05960609  1
  Te  Te142  1  0.58663902  0.93803039  0.45281396  1
  Te  Te143  1  0.59928501  0.92058605  0.76569262  1
  Te  Te144  1  0.95379664  0.22457593  0.10952312  1
  Te  Te145  1  0.91137797  0.26506130  0.41853147  1
  Te  Te146  1  0.93006691  0.23445708  0.75536798  1
  Te  Te147  1  0.92106996  0.58886334  0.06996761  1
  Te  Te148  1  0.91726978  0.59613725  0.40254155  1
  Te  Te149  1  0.92128337  0.59730674  0.74103797  1
  Te  Te150  1  0.93986314  0.99230382  0.04357018  1
  Te  Te151  1  0.91156916  0.91070949  0.42623241  1
  Te  Te152  1  0.89744955  0.93903611  0.75185131  1
  Te  Te153  1  0.22972496  0.04377740  0.27289690  1
  Te  Te154  1  0.24166474  0.06875720  0.60518959  1
  Te  Te155  1  0.26827616  0.08521096  0.92649001  1
  Te  Te156  1  0.24349355  0.41256472  0.24202943  1
  Te  Te157  1  0.25652711  0.38661607  0.58859758  1
  Te  Te158  1  0.26829813  0.43213712  0.88250210  1
  Te  Te159  1  0.25183772  0.75082444  0.25510608  1
  Te  Te160  1  0.26512995  0.72842508  0.58562131  1
  Te  Te161  1  0.23013864  0.74733318  0.92300658  1
  Te  Te162  1  0.58657155  0.09286341  0.27233871  1
  Te  Te163  1  0.54198850  0.08187798  0.52579738  1
  Te  Te164  1  0.59361577  0.10062690  0.92116574  1
  Te  Te165  1  0.58714330  0.41563899  0.24720708  1
  Te  Te166  1  0.60381753  0.41028625  0.59405051  1
  Te  Te167  1  0.59980901  0.43432651  0.88124308  1
  Te  Te168  1  0.59278644  0.75449339  0.25506700  1
  Te  Te169  1  0.58397403  0.75163175  0.57191927  1
  Te  Te170  1  0.59600339  0.74311749  0.94479755  1
  Te  Te171  1  0.90783915  0.06828211  0.23899997  1
  Te  Te172  1  0.92930115  0.09391932  0.57496176  1
  Te  Te173  1  0.92925632  0.05238669  0.90695644  1
  Te  Te174  1  0.92649034  0.41177863  0.23959823  1
  Te  Te175  1  0.91147108  0.40126941  0.59966845  1
  Te  Te176  1  0.92059053  0.42288905  0.89126511  1
  Te  Te177  1  0.92948447  0.76456746  0.23792608  1
  Te  Te178  1  0.92773465  0.74816794  0.59776238  1
  Te  Te179  1  0.90001358  0.77412712  0.93372583  1
