# generated using pymatgen
data_In2Te3
_symmetry_space_group_name_H-M   'P 1'
_cell_length_a   18.94127012
_cell_length_b   18.94599368
_cell_length_c   18.94570070
_cell_angle_alpha   89.98621174
_cell_angle_beta   90.04204012
_cell_angle_gamma   90.21758709
_symmetry_Int_Tables_number   1
_chemical_formula_structural   In2Te3
_chemical_formula_sum   'In72 Te108'
_cell_volume   6798.82553814
_cell_formula_units_Z   36
loop_
 _symmetry_equiv_pos_site_id
 _symmetry_equiv_pos_as_xyz
  1  'x, y, z'
loop_
 _atom_site_type_symbol
 _atom_site_label
 _atom_site_symmetry_multiplicity
 _atom_site_fract_x
 _atom_site_fract_y
 _atom_site_fract_z
 _atom_site_occupancy
  In  In0  1  0.18820656  0.46614086  0.34113939  1
  In  In1  1  0.67156151  0.16017476  0.83967483  1
  In  In2  1  0.50508259  0.68526086  0.85585904  1
  In  In3  1  0.68986423  -0.03260990  0.35423843  1
  In  In4  1  0.14365482  0.51221329  0.66952600  1
  In  In5  1  0.32020518  0.32622980  0.66673860  1
  In  In6  1  0.01157085  0.49277087  0.50016141  1
  In  In7  1  0.83097474  0.67333555  0.15983752  1
  In  In8  1  0.83609076  0.14746589  0.68069159  1
  In  In9  1  0.67137279  0.49928221  0.85390926  1
  In  In10  1  0.00791466  0.33694172  0.64713680  1
  In  In11  1  0.67573101  0.81687379  0.51539195  1
  In  In12  1  0.34332188  0.00529219  0.32399936  1
  In  In13  1  0.50276657  0.85355662  -0.00698843  1
  In  In14  1  0.49209549  0.17409672  0.31745591  1
  In  In15  1  0.33261801  0.32881435  0.00348210  1
  In  In16  1  0.50124256  0.00962189  0.83619338  1
  In  In17  1  0.31556093  0.50126787  0.80342295  1
  In  In18  1  0.15555005  0.50176756  -0.00962108  1
  In  In19  1  0.31544364  0.68637930  -0.02608092  1
  In  In20  1  0.65186337  0.34482203  0.32699730  1
  In  In21  1  -0.00867712  0.50625397  0.84110663  1
  In  In22  1  0.00282400  0.84028892  0.50444378  1
  In  In23  1  0.48864855  0.49610360  0.65618117  1
  In  In24  1  0.86639521  0.30061093  0.15101576  1
  In  In25  1  0.19397923  0.30729855  0.47704390  1
  In  In26  1  0.34765182  0.84709226  0.82260182  1
  In  In27  1  0.82272897  0.84019389  0.31301450  1
  In  In28  1  0.65313795  0.65723857  0.33007908  1
  In  In29  1  0.82858762  0.83469742  -0.00762985  1
  In  In30  1  0.02228322  0.65518860  0.32318489  1
  In  In31  1  0.00736422  0.16780659  0.87531717  1
  In  In32  1  0.65234437  0.35847278  0.67342243  1
  In  In33  1  0.16633885  0.66485800  0.16399411  1
  In  In34  1  0.19856007  0.83734278  0.33026967  1
  In  In35  1  0.32859643  0.85224848  0.14517159  1
  In  In36  1  0.52290861  0.65566515  0.16457307  1
  In  In37  1  0.68592921  0.01381183  0.00797723  1
  In  In38  1  0.15476172  -0.00675389  0.86000803  1
  In  In39  1  0.03025019  0.83881486  0.13828620  1
  In  In40  1  0.31161580  0.16597015  0.85418210  1
  In  In41  1  0.85553800  0.15573891  0.31894425  1
  In  In42  1  0.81770682  0.32800840  0.47855017  1
  In  In43  1  0.21003162  0.68777917  0.52996944  1
  In  In44  1  -0.01573005  -0.02649669  0.68139208  1
  In  In45  1  0.82814638  0.64851581  0.52836766  1
  In  In46  1  0.82565770  0.31761771  0.84417385  1
  In  In47  1  0.65710713  0.16621528  0.51117068  1
  In  In48  1  0.85942655  0.67994885  0.82576961  1
  In  In49  1  0.50700520  0.83088252  0.67970101  1
  In  In50  1  0.33491585  0.00346711  0.63775415  1
  In  In51  1  0.33109252  0.17342187  0.17671489  1
  In  In52  1  0.17673611  0.15151805  0.67117133  1
  In  In53  1  0.50261330  0.49267042  0.33880932  1
  In  In54  1  0.00123721  -0.00324945  -0.00863381  1
  In  In55  1  0.17552514  0.00837293  0.16451053  1
  In  In56  1  0.82208285  0.48313645  0.32980200  1
  In  In57  1  0.50589073  0.49545059  0.00236565  1
  In  In58  1  0.33742718  0.50299338  0.48930147  1
  In  In59  1  0.66140159  0.32060801  0.02487360  1
  In  In60  1  0.34261803  0.49854546  0.18872427  1
  In  In61  1  0.49360231  0.17939174  0.64760085  1
  In  In62  1  0.67474491  0.67587851  0.68488749  1
  In  In63  1  0.49113523  0.00423740  0.17693272  1
  In  In64  1  0.54167460  0.00260310  0.48906116  1
  In  In65  1  0.02406132  0.22353428  0.29748746  1
  In  In66  1  0.13769618  0.01796984  0.48348333  1
  In  In67  1  0.01735094  0.70176235  0.69056441  1
  In  In68  1  0.81520052  0.51405710  0.00905202  1
  In  In69  1  -0.02815746  0.47988867  0.15206821  1
  In  In70  1  0.83922520  -0.01467886  0.51362918  1
  In  In71  1  0.66617265  0.15937562  0.16425683  1
  Te  Te72  1  0.06996739  0.09128350  0.09163297  1
  Te  Te73  1  0.06731815  0.10571850  0.38988606  1
  Te  Te74  1  0.07217761  0.08145060  0.75644947  1
  Te  Te75  1  0.07166868  0.40684152  0.06969309  1
  Te  Te76  1  0.07791101  0.39101386  0.41276356  1
  Te  Te77  1  0.07886532  0.40940822  0.75984622  1
  Te  Te78  1  0.10485187  0.74317312  0.05731487  1
  Te  Te79  1  0.09157960  0.75883444  0.40973073  1
  Te  Te80  1  0.09376733  0.79696335  0.77166198  1
  Te  Te81  1  0.39468480  0.07249583  0.09193885  1
  Te  Te82  1  0.43064516  0.08244294  0.42239853  1
  Te  Te83  1  0.40854204  0.09292643  0.74402366  1
  Te  Te84  1  0.42465173  0.40940840  0.09607318  1
  Te  Te85  1  0.39916268  0.40485088  0.40052337  1
  Te  Te86  1  0.41875950  0.40154196  0.75431289  1
  Te  Te87  1  0.41959396  0.74812175  0.06839929  1
  Te  Te88  1  0.32765084  0.76914723  0.47624425  1
  Te  Te89  1  0.41207143  0.73215879  0.74641245  1
  Te  Te90  1  0.77573986  0.08617481  0.10234996  1
  Te  Te91  1  0.75776324  0.09263360  0.42483319  1
  Te  Te92  1  0.75126092  0.06232069  0.76356647  1
  Te  Te93  1  0.76359909  0.40463962  0.10022684  1
  Te  Te94  1  0.72106668  0.43451401  0.43128875  1
  Te  Te95  1  0.76168089  0.42484324  0.75753541  1
  Te  Te96  1  0.74210797  0.76745457  0.09270883  1
  Te  Te97  1  0.76953379  0.74059821  0.41683938  1
  Te  Te98  1  0.76597093  0.77364529  0.75243224  1
  Te  Te99  1  0.09702806  0.22544727  0.16649211  1
  Te  Te100  1  0.09655624  0.23920561  0.57436849  1
  Te  Te101  1  0.05176982  0.28291278  0.95438477  1
  Te  Te102  1  0.08780285  0.55268255  0.23406761  1
  Te  Te103  1  0.07395454  0.61291300  0.56907929  1
  Te  Te104  1  0.09003277  0.59687900  0.90062832  1
  Te  Te105  1  0.09347497  0.91464107  0.25427775  1
  Te  Te106  1  0.09642203  0.91892428  0.59329284  1
  Te  Te107  1  0.04385924  0.89054797  0.88576162  1
  Te  Te108  1  0.38807967  0.27278497  0.27557522  1
  Te  Te109  1  0.39504134  0.25043699  0.56624108  1
  Te  Te110  1  0.41668425  0.24345425  0.91903325  1
  Te  Te111  1  0.42240971  0.60252464  0.26459337  1
  Te  Te112  1  0.39024804  0.58691288  0.59691715  1
  Te  Te113  1  0.40813578  0.57410170  0.91280523  1
  Te  Te114  1  0.42318172  0.89457139  0.25877798  1
  Te  Te115  1  0.44297338  0.92020214  0.57499696  1
  Te  Te116  1  0.39926712  0.94329772  0.92881653  1
  Te  Te117  1  0.75594584  0.25539122  0.25854910  1
  Te  Te118  1  0.75043035  0.25156985  0.59880962  1
  Te  Te119  1  0.75605793  0.23074633  0.94565203  1
  Te  Te120  1  0.74499673  0.57531686  0.23932998  1
  Te  Te121  1  0.72870681  0.56947065  0.59864456  1
  Te  Te122  1  0.75167645  0.61286631  0.91403515  1
  Te  Te123  1  0.77200963  0.95322552  0.23301103  1
  Te  Te124  1  0.73790702  0.92141743  0.59793912  1
  Te  Te125  1  0.77599279  0.94766636  0.90983122  1
  Te  Te126  1  0.23687562  0.24549115  0.08522775  1
  Te  Te127  1  0.24985852  0.23525714  0.36183766  1
  Te  Te128  1  0.22686076  0.25787725  0.76563614  1
  Te  Te129  1  0.26653237  0.57852967  0.07728129  1
  Te  Te130  1  0.23664869  0.58753707  0.41281358  1
  Te  Te131  1  0.22467360  0.60332202  0.75114919  1
  Te  Te132  1  0.21872032  0.90746536  0.06562360  1
  Te  Te133  1  0.25590853  0.93531462  0.42953596  1
  Te  Te134  1  0.25528837  0.94704378  0.75210991  1
  Te  Te135  1  0.56537099  0.24938667  0.11123772  1
  Te  Te136  1  0.57353117  0.25356812  0.42114406  1
  Te  Te137  1  0.58344812  0.24785476  0.75078807  1
  Te  Te138  1  0.60071200  0.59169575  0.05848945  1
  Te  Te139  1  0.56526485  0.59381731  0.42695576  1
  Te  Te140  1  0.57596680  0.57800502  0.76536250  1
  Te  Te141  1  0.58998456  0.92769526  0.09199010  1
  Te  Te142  1  0.58185776  0.87749084  0.41056079  1
  Te  Te143  1  0.58779641  0.90238159  0.78195493  1
  Te  Te144  1  0.95175237  0.22474423  0.05617712  1
  Te  Te145  1  0.92449856  0.23995197  0.42585475  1
  Te  Te146  1  0.92838610  0.25129163  0.75179488  1
  Te  Te147  1  0.92754070  0.59851288  0.06978437  1
  Te  Te148  1  0.91792337  0.58039508  0.40601778  1
  Te  Te149  1  0.92526519  0.58462965  0.72847640  1
  Te  Te150  1  0.91481890  0.92073493  0.09059170  1
  Te  Te151  1  0.92033879  0.91938552  0.40466179  1
  Te  Te152  1  0.88024154  0.87672782  0.71869319  1
  Te  Te153  1  0.23221162  0.10069567  0.28050528  1
  Te  Te154  1  0.25178321  0.09704171  0.55177355  1
  Te  Te155  1  0.21211505  0.10148290  0.94085960  1
  Te  Te156  1  0.23881379  0.39932682  0.22282231  1
  Te  Te157  1  0.22886404  0.42237641  0.58148992  1
  Te  Te158  1  0.24806628  0.41415318  0.90802639  1
  Te  Te159  1  0.27161027  0.74283998  0.23959910  1
  Te  Te160  1  0.26566970  0.80147736  0.60593583  1
  Te  Te161  1  0.23516011  0.76724442  0.88028244  1
  Te  Te162  1  0.59520775  0.06952099  0.27480568  1
  Te  Te163  1  0.59668687  0.07179282  0.61283366  1
  Te  Te164  1  0.57581948  0.09435836  0.93800716  1
  Te  Te165  1  0.57667947  0.42419935  0.23140532  1
  Te  Te166  1  0.55644433  0.39780750  0.57141747  1
  Te  Te167  1  0.58275662  0.39440967  0.91742524  1
  Te  Te168  1  0.61157817  0.75553619  0.22889968  1
  Te  Te169  1  0.57235712  0.73068075  0.58557173  1
  Te  Te170  1  0.60165007  0.78507837  0.90556689  1
  Te  Te171  1  0.96945563  0.08913704  0.25293081  1
  Te  Te172  1  0.93237314  0.08213897  0.58414024  1
  Te  Te173  1  0.90540090  0.06384935  0.89882842  1
  Te  Te174  1  0.92285039  0.39153201  0.26526609  1
  Te  Te175  1  0.90280837  0.41805001  0.57458209  1
  Te  Te176  1  0.90210397  0.41960946  0.92859531  1
  Te  Te177  1  0.93698968  0.75266948  0.24421970  1
  Te  Te178  1  0.90655002  0.76221701  0.59343847  1
  Te  Te179  1  0.93730071  0.76121813  0.92215888  1
