# generated using pymatgen
data_In2Te3
_symmetry_space_group_name_H-M   'P 1'
_cell_length_a   18.76739273
_cell_length_b   18.77545642
_cell_length_c   18.76894858
_cell_angle_alpha   90.03306614
_cell_angle_beta   90.01911385
_cell_angle_gamma   89.98390909
_symmetry_Int_Tables_number   1
_chemical_formula_structural   In2Te3
_chemical_formula_sum   'In72 Te108'
_cell_volume   6613.54444205
_cell_formula_units_Z   36
loop_
 _symmetry_equiv_pos_site_id
 _symmetry_equiv_pos_as_xyz
  1  'x, y, z'
loop_
 _atom_site_type_symbol
 _atom_site_label
 _atom_site_symmetry_multiplicity
 _atom_site_fract_x
 _atom_site_fract_y
 _atom_site_fract_z
 _atom_site_occupancy
  In  In0  1  -0.00490621  -0.00649767  0.35956820  1
  In  In1  1  -0.01456665  0.67374200  -0.01841077  1
  In  In2  1  0.00962181  0.49683166  0.51322064  1
  In  In3  1  0.67289203  0.32043609  -0.00757791  1
  In  In4  1  0.65239355  0.66914223  0.65352101  1
  In  In5  1  0.34457915  0.34419441  0.34123260  1
  In  In6  1  0.31827823  0.84106992  0.80811297  1
  In  In7  1  0.83977020  0.83644192  0.67049356  1
  In  In8  1  0.36788930  0.53043692  0.19262486  1
  In  In9  1  0.68305834  0.01136680  0.01731024  1
  In  In10  1  0.85763907  0.50160622  -0.00639020  1
  In  In11  1  0.00105733  0.18659185  0.17493109  1
  In  In12  1  -0.00505905  0.16145013  0.50034571  1
  In  In13  1  0.67342553  0.83859747  0.50228712  1
  In  In14  1  0.83689785  0.15770975  0.66243685  1
  In  In15  1  0.33450381  0.14833981  0.17618368  1
  In  In16  1  0.79953043  0.00302470  0.17584854  1
  In  In17  1  0.14737163  0.33432271  0.49786158  1
  In  In18  1  0.18199156  0.51382988  0.65313842  1
  In  In19  1  0.68326962  0.46575950  0.79882516  1
  In  In20  1  0.65852784  0.67954704  0.00589329  1
  In  In21  1  0.83138355  0.15688255  0.37426196  1
  In  In22  1  0.15863700  0.34981426  0.17692923  1
  In  In23  1  0.65256900  0.85089911  0.85154504  1
  In  In24  1  0.33590483  0.33408032  -0.00730227  1
  In  In25  1  0.84637621  0.66108068  0.17584737  1
  In  In26  1  0.86079224  0.80009865  -0.00641748  1
  In  In27  1  0.32958615  0.52410665  0.45015398  1
  In  In28  1  0.49948949  0.82941932  0.35202727  1
  In  In29  1  -0.01021330  0.32382137  0.66385770  1
  In  In30  1  0.32961157  0.66608903  -0.00583496  1
  In  In31  1  0.65757164  0.83561136  0.21391144  1
  In  In32  1  0.65678848  0.48471083  0.19377798  1
  In  In33  1  0.84401881  0.49938711  0.32308665  1
  In  In34  1  -0.00908330  0.49694792  0.82720672  1
  In  In35  1  0.32644905  0.14839354  0.82994965  1
  In  In36  1  0.17665863  0.32915509  0.84360952  1
  In  In37  1  0.13442320  0.63849337  0.19407427  1
  In  In38  1  0.18608541  -0.00003286  0.17227007  1
  In  In39  1  0.83930057  0.64474821  0.81784692  1
  In  In40  1  0.34215050  0.17471495  0.51474100  1
  In  In41  1  0.49732650  0.16733803  0.34969391  1
  In  In42  1  0.64982575  0.50253793  0.50881439  1
  In  In43  1  0.30688849  0.04624159  -0.03205303  1
  In  In44  1  0.32143881  -0.01394990  0.34211778  1
  In  In45  1  0.31994450  0.68111918  0.66773959  1
  In  In46  1  -0.01738316  0.81896988  0.17319386  1
  In  In47  1  0.16514672  0.84246989  -0.01289054  1
  In  In48  1  0.32281205  -0.00348016  0.67256449  1
  In  In49  1  0.83170580  0.31047517  0.50722401  1
  In  In50  1  0.49761653  0.00357467  0.82409405  1
  In  In51  1  0.30568403  0.80277869  0.18057264  1
  In  In52  1  0.51710015  0.01793424  0.20047809  1
  In  In53  1  0.65046627  0.01846066  0.64489372  1
  In  In54  1  0.17802428  0.82219064  0.34487926  1
  In  In55  1  0.66451248  0.15424978  0.16242622  1
  In  In56  1  0.85006679  0.34071936  0.17611099  1
  In  In57  1  0.15337133  0.49782919  0.00080422  1
  In  In58  1  0.34093429  0.33892564  0.67177224  1
  In  In59  1  0.49766329  0.49863541  -0.00915210  1
  In  In60  1  0.82359983  0.68547165  0.50615517  1
  In  In61  1  0.02045339  0.84117095  0.50925187  1
  In  In62  1  0.49912973  0.66574784  0.49017596  1
  In  In63  1  0.31872709  0.83652778  0.53165788  1
  In  In64  1  0.49898730  0.48267490  0.66508458  1
  In  In65  1  0.00257963  -0.00651657  -0.01980942  1
  In  In66  1  0.16811533  0.16450441  -0.02737862  1
  In  In67  1  0.65153771  0.20469412  0.79575295  1
  In  In68  1  0.50422426  0.18570416  0.00250941  1
  In  In69  1  0.49145991  0.82864498  0.00534588  1
  In  In70  1  0.85930521  -0.00712565  0.81221458  1
  In  In71  1  0.65320493  0.32807236  0.33249730  1
  Te  Te72  1  0.09167987  0.07853023  0.08182897  1
  Te  Te73  1  0.09377481  0.08192523  0.42145312  1
  Te  Te74  1  0.13279702  0.04833745  0.70712835  1
  Te  Te75  1  0.07104565  0.39483126  0.06667501  1
  Te  Te76  1  0.10148361  0.44432779  0.40438178  1
  Te  Te77  1  0.09483075  0.41395097  0.73657750  1
  Te  Te78  1  0.09052013  0.74731238  0.08284057  1
  Te  Te79  1  0.08247518  0.73680808  0.41816982  1
  Te  Te80  1  0.06748313  0.78645832  0.78208991  1
  Te  Te81  1  0.42716051  0.07586020  0.07756718  1
  Te  Te82  1  0.41691438  0.06613279  0.43065763  1
  Te  Te83  1  0.43238084  0.09974099  0.72934715  1
  Te  Te84  1  0.41336881  0.42006060  0.09194207  1
  Te  Te85  1  0.43165153  0.41755516  0.43609913  1
  Te  Te86  1  0.40962998  0.42701840  0.76929307  1
  Te  Te87  1  0.41877499  0.73343059  0.10014108  1
  Te  Te88  1  0.39118488  0.75197002  0.42450111  1
  Te  Te89  1  0.42221334  0.76182266  0.73918451  1
  Te  Te90  1  0.78051948  0.11572628  0.06887775  1
  Te  Te91  1  0.71739949  0.07643031  0.42556652  1
  Te  Te92  1  0.73331381  0.07115775  0.76374169  1
  Te  Te93  1  0.75081741  0.42637071  0.08467044  1
  Te  Te94  1  0.75308506  0.41658818  0.41811872  1
  Te  Te95  1  0.78521898  0.40215685  0.71736696  1
  Te  Te96  1  0.74866916  0.76345146  0.09741008  1
  Te  Te97  1  0.72320021  0.73424445  0.40969258  1
  Te  Te98  1  0.73907571  0.75440279  0.75855010  1
  Te  Te99  1  0.09554001  0.25128252  0.26701557  1
  Te  Te100  1  0.09155563  0.23282555  0.59702197  1
  Te  Te101  1  0.06811168  0.24788819  0.90335590  1
  Te  Te102  1  0.06181068  0.54162261  0.27885606  1
  Te  Te103  1  0.09374053  0.60525064  0.57497542  1
  Te  Te104  1  0.08706964  0.59223948  0.90098064  1
  Te  Te105  1  0.08935873  0.90808770  0.24583653  1
  Te  Te106  1  0.07256061  0.95033370  0.60119960  1
  Te  Te107  1  0.07796093  0.90638032  0.88098190  1
  Te  Te108  1  0.42381375  0.25025778  0.24493453  1
  Te  Te109  1  0.43991297  0.26226154  0.58752406  1
  Te  Te110  1  0.42229914  0.25425353  0.89543778  1
  Te  Te111  1  0.45754691  0.59911921  0.28828373  1
  Te  Te112  1  0.40962270  0.57762991  0.57935127  1
  Te  Te113  1  0.41733947  0.58794402  0.90489891  1
  Te  Te114  1  0.40742031  0.91133607  0.23974818  1
  Te  Te115  1  0.42169210  0.92855008  0.58502770  1
  Te  Te116  1  0.40588710  0.92301285  0.91692779  1
  Te  Te117  1  0.75872118  0.24571635  0.25383678  1
  Te  Te118  1  0.73233133  0.23016205  0.58416444  1
  Te  Te119  1  0.75336446  0.24667104  0.89379455  1
  Te  Te120  1  0.73891747  0.59417383  0.26254411  1
  Te  Te121  1  0.75453083  0.57720467  0.59219554  1
  Te  Te122  1  0.74487476  0.58217160  0.92109168  1
  Te  Te123  1  0.77109145  0.90257323  0.27988959  1
  Te  Te124  1  0.76318546  0.93406015  0.58207997  1
  Te  Te125  1  0.76912472  0.91702899  0.92565386  1
  Te  Te126  1  0.25329232  0.24093925  0.08312384  1
  Te  Te127  1  0.25052553  0.25211808  0.41823164  1
  Te  Te128  1  0.24386596  0.24200553  0.73892699  1
  Te  Te129  1  0.24588205  0.58018127  0.09371962  1
  Te  Te130  1  0.21680777  0.60717558  0.40524628  1
  Te  Te131  1  0.25078341  0.58862825  0.76084662  1
  Te  Te132  1  0.26754835  0.91754855  0.07273418  1
  Te  Te133  1  0.22662084  0.92658056  0.44431387  1
  Te  Te134  1  0.21661107  0.89112905  0.70783974  1
  Te  Te135  1  0.58090786  0.26933307  0.10418862  1
  Te  Te136  1  0.58542515  0.24871427  0.44069951  1
  Te  Te137  1  0.56100415  0.28313776  0.71055126  1
  Te  Te138  1  0.58461683  0.57765226  0.09002492  1
  Te  Te139  1  0.57095926  0.56962224  0.39807695  1
  Te  Te140  1  0.58607724  0.57604386  0.75367456  1
  Te  Te141  1  0.58718012  0.91538758  0.09182917  1
  Te  Te142  1  0.58413461  0.92781781  0.42135364  1
  Te  Te143  1  0.57845857  0.91153654  0.73311920  1
  Te  Te144  1  0.92484434  0.26284435  0.07368247  1
  Te  Te145  1  0.93515316  0.26737533  0.40419650  1
  Te  Te146  1  0.92583527  0.22896599  0.75791483  1
  Te  Te147  1  0.94387587  0.57686849  0.09408166  1
  Te  Te148  1  0.91306634  0.58313667  0.43028690  1
  Te  Te149  1  0.93832537  0.59036175  0.72422365  1
  Te  Te150  1  0.91351647  0.92512713  0.08637724  1
  Te  Te151  1  0.90735892  0.89962970  0.42972125  1
  Te  Te152  1  0.95477135  0.92782361  0.71423034  1
  Te  Te153  1  0.23454194  0.09713250  0.27859194  1
  Te  Te154  1  0.23995697  0.09195332  0.58830296  1
  Te  Te155  1  0.19641677  0.05977333  0.85449700  1
  Te  Te156  1  0.26092371  0.43635906  0.25192425  1
  Te  Te157  1  0.26109462  0.41793056  0.56205973  1
  Te  Te158  1  0.26128866  0.43765275  0.90955031  1
  Te  Te159  1  0.25394246  0.69423089  0.27987606  1
  Te  Te160  1  0.21278268  0.74405768  0.58438736  1
  Te  Te161  1  0.23897358  0.74291179  0.89756129  1
  Te  Te162  1  0.62339975  0.07950178  0.29225957  1
  Te  Te163  1  0.60979633  0.11245662  0.53622728  1
  Te  Te164  1  0.58773499  0.08480385  0.92094738  1
  Te  Te165  1  0.55034471  0.41799096  0.27270971  1
  Te  Te166  1  0.61012417  0.39506555  0.60908582  1
  Te  Te167  1  0.58610382  0.40679312  0.90177831  1
  Te  Te168  1  0.55704853  0.73276278  0.25150680  1
  Te  Te169  1  0.56195417  0.76798542  0.58390872  1
  Te  Te170  1  0.56159167  0.73833963  0.90277229  1
  Te  Te171  1  0.91040737  0.08285956  0.25637095  1
  Te  Te172  1  0.90940599  0.06423581  0.57305433  1
  Te  Te173  1  0.93540378  0.09274579  0.89304374  1
  Te  Te174  1  0.95192704  0.42456208  0.24914073  1
  Te  Te175  1  0.89011243  0.42094097  0.60039905  1
  Te  Te176  1  0.90215959  0.40122638  0.89605001  1
  Te  Te177  1  0.91960977  0.73894477  0.27824492  1
  Te  Te178  1  0.93245110  0.74203851  0.59688561  1
  Te  Te179  1  0.93853427  0.76746492  0.86042750  1
