# generated using pymatgen
data_In2Te3
_symmetry_space_group_name_H-M   'P 1'
_cell_length_a   18.98353644
_cell_length_b   19.00105751
_cell_length_c   18.99710058
_cell_angle_alpha   89.88649697
_cell_angle_beta   90.01425949
_cell_angle_gamma   90.35071967
_symmetry_Int_Tables_number   1
_chemical_formula_structural   In2Te3
_chemical_formula_sum   'In72 Te108'
_cell_volume   6852.25022838
_cell_formula_units_Z   36
loop_
 _symmetry_equiv_pos_site_id
 _symmetry_equiv_pos_as_xyz
  1  'x, y, z'
loop_
 _atom_site_type_symbol
 _atom_site_label
 _atom_site_symmetry_multiplicity
 _atom_site_fract_x
 _atom_site_fract_y
 _atom_site_fract_z
 _atom_site_occupancy
  In  In0  1  0.35807263  0.36999652  0.69632807  1
  In  In1  1  0.66466956  0.82022913  0.82551227  1
  In  In2  1  0.16437948  0.33528223  0.82006054  1
  In  In3  1  0.35853796  0.17799235  0.83522157  1
  In  In4  1  0.53664461  0.37118143  0.51725090  1
  In  In5  1  0.00104786  0.51164948  0.48474697  1
  In  In6  1  0.17723332  0.18529267  0.33389817  1
  In  In7  1  -0.06634602  0.37603381  0.00506146  1
  In  In8  1  0.36282609  0.00034902  0.27244380  1
  In  In9  1  0.68500412  0.63215376  0.33641842  1
  In  In10  1  0.33785412  0.30798811  -0.00428327  1
  In  In11  1  -0.04646808  0.53443614  0.81642999  1
  In  In12  1  0.50835908  0.51802441  0.34152820  1
  In  In13  1  0.11878110  0.35553950  0.53009784  1
  In  In14  1  0.31093296  0.54209785  0.50118987  1
  In  In15  1  0.16289053  0.67361306  0.15596419  1
  In  In16  1  0.15369557  -0.01748699  0.13880451  1
  In  In17  1  0.55163510  0.58619676  -0.03947770  1
  In  In18  1  0.81641406  0.80169619  0.00820937  1
  In  In19  1  0.01604494  0.65154346  0.32358232  1
  In  In20  1  0.52895002  0.19742842  0.68066410  1
  In  In21  1  0.00971306  0.15578553  0.50270557  1
  In  In22  1  0.34186583  0.12126264  0.13339109  1
  In  In23  1  0.35998130  0.33305111  0.33460632  1
  In  In24  1  0.68928272  0.82459383  0.17277804  1
  In  In25  1  -0.02182531  0.17205129  0.82546085  1
  In  In26  1  0.35438503  0.51470159  0.15157339  1
  In  In27  1  0.48909725  0.00127392  0.49632628  1
  In  In28  1  -0.03917674  0.80662436  0.43408062  1
  In  In29  1  0.83476671  0.01696952  0.81502385  1
  In  In30  1  0.01382789  0.33969891  0.35017920  1
  In  In31  1  0.68854500  0.52904110  0.83031805  1
  In  In32  1  0.16160404  0.83581314  0.32453813  1
  In  In33  1  0.14735268  0.66294411  0.85564605  1
  In  In34  1  0.82814149  0.16945515  0.32130890  1
  In  In35  1  0.17850090  0.83883913  0.70322825  1
  In  In36  1  0.69161583  0.40856764  0.33660508  1
  In  In37  1  0.49064974  0.81879109  -0.02623788  1
  In  In38  1  -0.01252615  0.81929886  0.85622302  1
  In  In39  1  0.83085621  0.33025137  0.17736750  1
  In  In40  1  0.33615545  0.64740331  0.69083492  1
  In  In41  1  0.49396808  0.80628630  0.69159829  1
  In  In42  1  -0.04858843  0.34993346  0.66071704  1
  In  In43  1  0.14606187  0.15958261  -0.02223303  1
  In  In44  1  0.16879506  0.33405432  0.18584494  1
  In  In45  1  0.52202529  0.15863213  0.30330030  1
  In  In46  1  -0.03320579  0.51649971  0.15222679  1
  In  In47  1  0.14869363  0.50706646  0.66495623  1
  In  In48  1  0.17619795  0.82160109  0.00462092  1
  In  In49  1  0.01801554  0.00005764  0.65910338  1
  In  In50  1  -0.03520542  -0.01511426  0.00139473  1
  In  In51  1  0.81487501  -0.01791848  0.50946868  1
  In  In52  1  0.63047158  0.84290097  0.51390556  1
  In  In53  1  0.49192482  0.82963103  0.34008599  1
  In  In54  1  0.70161716  0.33345943  -0.00244653  1
  In  In55  1  0.82545187  0.79272146  0.32554252  1
  In  In56  1  0.79831970  0.17413411  0.67143756  1
  In  In57  1  0.81253638  0.82223861  0.66492966  1
  In  In58  1  0.70083679  0.01105941  0.00972636  1
  In  In59  1  0.83028703  0.65355953  0.51517964  1
  In  In60  1  0.31602165  0.76389868  0.47240340  1
  In  In61  1  0.52452180  -0.00573494  0.13286820  1
  In  In62  1  0.18809620  -0.00723085  0.82409792  1
  In  In63  1  0.34996484  0.16307900  0.51743670  1
  In  In64  1  0.53555065  0.37242456  0.80820438  1
  In  In65  1  0.66140630  0.18107540  0.49111759  1
  In  In66  1  0.36230961  0.00607382  0.66926800  1
  In  In67  1  0.00430294  0.02829764  0.30372465  1
  In  In68  1  0.51600499  0.31321444  0.14052048  1
  In  In69  1  0.21151718  -0.02474715  0.49918439  1
  In  In70  1  0.15313775  0.48919263  0.01225678  1
  In  In71  1  0.51199183  0.68192577  0.14752065  1
  Te  Te72  1  0.06132028  0.08380573  0.07612832  1
  Te  Te73  1  0.11254310  0.07633093  0.42452544  1
  Te  Te74  1  0.08693417  0.08975669  0.75940322  1
  Te  Te75  1  0.06439333  0.39401446  0.09169763  1
  Te  Te76  1  0.11556235  0.43775393  0.40615980  1
  Te  Te77  1  0.05140035  0.42346359  0.75678880  1
  Te  Te78  1  0.07084210  0.74229685  0.06579019  1
  Te  Te79  1  0.09393868  0.73896242  0.42173468  1
  Te  Te80  1  0.06911848  0.74475089  0.75350561  1
  Te  Te81  1  0.45189817  0.08648810  0.03536266  1
  Te  Te82  1  0.40686450  0.08889011  0.39711403  1
  Te  Te83  1  0.45245130  0.08778725  0.75979673  1
  Te  Te84  1  0.42527323  0.41154809  0.06683657  1
  Te  Te85  1  0.40845018  0.43644868  0.43315261  1
  Te  Te86  1  0.41411578  0.46436065  0.79830426  1
  Te  Te87  1  0.40860607  0.72926382  0.05611002  1
  Te  Te88  1  0.45574600  0.73177617  0.44252009  1
  Te  Te89  1  0.43177066  0.70930856  0.79059594  1
  Te  Te90  1  0.74820364  0.07289391  0.13469780  1
  Te  Te91  1  0.74581425  0.08037364  0.41693258  1
  Te  Te92  1  0.71956027  0.08126508  0.75326007  1
  Te  Te93  1  0.73927949  0.42445976  0.10892328  1
  Te  Te94  1  0.74917029  0.39312762  0.47081413  1
  Te  Te95  1  0.73879290  0.44748846  0.71496406  1
  Te  Te96  1  0.75724211  0.70840228  0.10943317  1
  Te  Te97  1  0.73769228  0.75584392  0.44331943  1
  Te  Te98  1  0.74997620  0.72110737  0.75224103  1
  Te  Te99  1  0.06518160  0.23910716  0.24812595  1
  Te  Te100  1  0.06023911  0.24666414  0.61378003  1
  Te  Te101  1  0.06237278  0.26756360  0.91226402  1
  Te  Te102  1  0.09154409  0.56061826  0.22937608  1
  Te  Te103  1  0.06568594  0.59511446  0.58493349  1
  Te  Te104  1  0.05445403  0.56786389  0.93003703  1
  Te  Te105  1  0.06230364  0.90751964  0.23419032  1
  Te  Te106  1  0.10614397  0.90437967  0.58313722  1
  Te  Te107  1  0.07946346  0.92945433  0.91095989  1
  Te  Te108  1  0.40662478  0.23146515  0.22409936  1
  Te  Te109  1  0.42555241  0.27002936  0.59564309  1
  Te  Te110  1  0.45137366  0.27348657  0.90304358  1
  Te  Te111  1  0.42336250  0.60373330  0.25148940  1
  Te  Te112  1  0.41651082  0.57123024  0.59513629  1
  Te  Te113  1  0.42015679  0.59117097  0.89399936  1
  Te  Te114  1  0.44099963  0.89044433  0.20877270  1
  Te  Te115  1  0.41823941  0.90021372  0.58009315  1
  Te  Te116  1  0.41098821  0.94359343  0.98007608  1
  Te  Te117  1  0.72935765  0.27054801  0.27392645  1
  Te  Te118  1  0.73793064  0.27536544  0.57839858  1
  Te  Te119  1  0.74323309  0.25115714  0.88258564  1
  Te  Te120  1  0.73568724  0.52280414  0.25155184  1
  Te  Te121  1  0.76012094  0.56494853  0.61341372  1
  Te  Te122  1  0.78456611  0.58105172  0.93640932  1
  Te  Te123  1  0.76434266  0.91034634  0.26557145  1
  Te  Te124  1  0.71693036  0.92556099  0.60942688  1
  Te  Te125  1  0.76426859  0.91175346  0.90141921  1
  Te  Te126  1  0.23281337  0.23873377  0.08508647  1
  Te  Te127  1  0.26467616  0.26054904  0.43079921  1
  Te  Te128  1  0.26484942  0.25352221  0.74351336  1
  Te  Te129  1  0.25557624  0.58719979  0.06367336  1
  Te  Te130  1  0.27434848  0.64076109  0.40094631  1
  Te  Te131  1  0.23257940  0.56830487  0.77291818  1
  Te  Te132  1  0.26791128  0.92189496  0.06749351  1
  Te  Te133  1  0.28463339  0.90794403  0.38755002  1
  Te  Te134  1  0.29912587  0.90770477  0.76796386  1
  Te  Te135  1  0.61038275  0.22878944  0.06246454  1
  Te  Te136  1  0.55295825  0.25337954  0.41601144  1
  Te  Te137  1  0.62806748  0.25348922  0.78376367  1
  Te  Te138  1  0.58595824  0.56583431  0.10116542  1
  Te  Te139  1  0.61023777  0.55989802  0.44013466  1
  Te  Te140  1  0.56819366  0.54389272  0.73894900  1
  Te  Te141  1  0.60966822  0.89030193  0.06047168  1
  Te  Te142  1  0.58273780  0.93589905  0.39823790  1
  Te  Te143  1  0.55645132  0.90659401  0.77842631  1
  Te  Te144  1  0.89004514  0.25185549  0.06769476  1
  Te  Te145  1  0.91945880  0.24308744  0.42184937  1
  Te  Te146  1  0.87652536  0.26909897  0.76785016  1
  Te  Te147  1  0.86758240  0.58545970  0.06776451  1
  Te  Te148  1  0.89902970  0.58490671  0.40042212  1
  Te  Te149  1  0.86998064  0.60276171  0.71642820  1
  Te  Te150  1  0.89534310  0.89396209  0.09082679  1
  Te  Te151  1  0.93510491  0.95421398  0.42019673  1
  Te  Te152  1  0.92380539  0.91221492  0.74136363  1
  Te  Te153  1  0.22985966  0.07705410  0.24066576  1
  Te  Te154  1  0.25019103  0.08257458  0.59992953  1
  Te  Te155  1  0.26282533  0.08842641  0.91525537  1
  Te  Te156  1  0.27406093  0.42293564  0.24810142  1
  Te  Te157  1  0.24376287  0.41019330  0.59723188  1
  Te  Te158  1  0.24640713  0.40769091  0.92457221  1
  Te  Te159  1  0.24982985  0.75914030  0.23762915  1
  Te  Te160  1  0.25129756  0.74423661  0.60957360  1
  Te  Te161  1  0.25108297  0.75759803  0.89803041  1
  Te  Te162  1  0.61551358  0.08142207  0.21800249  1
  Te  Te163  1  0.57677369  0.09108977  0.58077625  1
  Te  Te164  1  0.60379758  0.10968007  0.96040699  1
  Te  Te165  1  0.55579466  0.39985443  0.25977606  1
  Te  Te166  1  0.58672698  0.42125490  0.65589391  1
  Te  Te167  1  0.60611482  0.43649571  0.92889299  1
  Te  Te168  1  0.59989199  0.73948424  0.27176120  1
  Te  Te169  1  0.58668048  0.73628817  0.60322993  1
  Te  Te170  1  0.60409990  0.72764022  0.92965948  1
  Te  Te171  1  0.89684298  0.08492211  0.22023522  1
  Te  Te172  1  0.90335983  0.08473912  0.59528739  1
  Te  Te173  1  0.89400771  0.09810741  0.92841546  1
  Te  Te174  1  0.92168338  0.42042046  0.26247451  1
  Te  Te175  1  0.89806610  0.41680158  0.53959837  1
  Te  Te176  1  0.86048593  0.44343024  0.89480195  1
  Te  Te177  1  0.92511103  0.72999746  0.23959064  1
  Te  Te178  1  0.92066689  0.76371923  0.57281486  1
  Te  Te179  1  0.89055052  0.72054944  0.90788456  1
