# generated using pymatgen
data_In2Te3
_symmetry_space_group_name_H-M   'P 1'
_cell_length_a   18.99447887
_cell_length_b   18.99340856
_cell_length_c   18.94149792
_cell_angle_alpha   90.17986175
_cell_angle_beta   89.94947123
_cell_angle_gamma   90.22129959
_symmetry_Int_Tables_number   1
_chemical_formula_structural   In2Te3
_chemical_formula_sum   'In72 Te108'
_cell_volume   6833.43503489
_cell_formula_units_Z   36
loop_
 _symmetry_equiv_pos_site_id
 _symmetry_equiv_pos_as_xyz
  1  'x, y, z'
loop_
 _atom_site_type_symbol
 _atom_site_label
 _atom_site_symmetry_multiplicity
 _atom_site_fract_x
 _atom_site_fract_y
 _atom_site_fract_z
 _atom_site_occupancy
  In  In0  1  0.65347431  0.83516793  0.83860722  1
  In  In1  1  0.32167241  -0.01365957  0.68671959  1
  In  In2  1  0.65306771  0.01468176  0.35261327  1
  In  In3  1  0.32639192  0.14887973  0.47681464  1
  In  In4  1  0.84243062  0.66431653  0.49524733  1
  In  In5  1  0.65671296  0.64136390  0.70980034  1
  In  In6  1  0.83571212  0.17867924  -0.01017893  1
  In  In7  1  0.15329951  0.65291665  0.82535986  1
  In  In8  1  0.70966978  0.48382994  0.50111918  1
  In  In9  1  0.48377463  0.86545379  0.33765564  1
  In  In10  1  0.00722532  0.35977924  0.66610365  1
  In  In11  1  0.17583593  0.50941106  -0.00849826  1
  In  In12  1  0.35926233  0.35584614  0.67577100  1
  In  In13  1  0.33065461  0.49000049  0.15582769  1
  In  In14  1  0.49192373  0.17290256  0.27934790  1
  In  In15  1  0.49985864  0.50915652  0.33791390  1
  In  In16  1  0.49614984  0.35155024  0.15498378  1
  In  In17  1  0.51103946  0.67733498  0.51863624  1
  In  In18  1  0.34948521  0.64731481  -0.01132298  1
  In  In19  1  0.83811653  0.34919785  0.84868377  1
  In  In20  1  -0.01275587  0.31508031  0.32865521  1
  In  In21  1  0.31883766  0.83276455  0.53568132  1
  In  In22  1  -0.01040930  0.01185559  0.31730246  1
  In  In23  1  0.15675084  0.01475385  0.15427285  1
  In  In24  1  0.31211153  0.00720417  -0.03104081  1
  In  In25  1  0.84618544  0.84036782  0.32593144  1
  In  In26  1  0.17327018  0.31546759  0.84060522  1
  In  In27  1  0.31584742  0.32948313  0.01831852  1
  In  In28  1  0.00828640  0.83909454  0.15027426  1
  In  In29  1  0.83061716  0.17983293  0.66741585  1
  In  In30  1  0.85371882  0.65221987  0.13307910  1
  In  In31  1  -0.01822232  0.47973463  0.48500152  1
  In  In32  1  0.15199004  0.48685762  0.66192773  1
  In  In33  1  0.49736758  -0.00907034  0.82102902  1
  In  In34  1  0.65604359  0.84025021  0.18413288  1
  In  In35  1  0.14377541  0.16734412  0.31495570  1
  In  In36  1  0.48273875  -0.01255787  0.13525044  1
  In  In37  1  0.67545265  0.64786512  0.30938196  1
  In  In38  1  0.14889678  0.14783130  0.71455639  1
  In  In39  1  0.68210004  0.00734927  0.01130332  1
  In  In40  1  0.01125300  0.51331189  0.18270030  1
  In  In41  1  0.35831718  0.67301432  0.71158016  1
  In  In42  1  0.51829569  0.35572667  0.87631619  1
  In  In43  1  0.00812680  0.02355929  0.70319561  1
  In  In44  1  0.14586167  0.34730658  0.48912779  1
  In  In45  1  0.66332586  0.14126978  0.80920392  1
  In  In46  1  0.68387643  0.20439018  0.19245106  1
  In  In47  1  0.32029831  0.68030202  0.32287699  1
  In  In48  1  0.85576103  0.63610581  0.83662269  1
  In  In49  1  0.83401712  0.82749472  0.01038980  1
  In  In50  1  0.16440306  0.81217797  0.36490352  1
  In  In51  1  0.49350711  0.15969231  0.66640853  1
  In  In52  1  0.16547159  -0.01198722  0.48884761  1
  In  In53  1  0.15688978  0.80962730  0.69257693  1
  In  In54  1  0.35519766  0.51566748  0.48395137  1
  In  In55  1  0.53700731  0.32803177  0.50752971  1
  In  In56  1  0.15385071  0.62926621  0.48264087  1
  In  In57  1  0.49436932  0.01625899  0.50369533  1
  In  In58  1  0.03542317  0.81836779  0.49701158  1
  In  In59  1  0.02474610  0.34872876  0.00014213  1
  In  In60  1  0.67888366  0.80704020  0.53939061  1
  In  In61  1  0.01262267  0.16210250  0.84723135  1
  In  In62  1  0.66361597  0.36738989  0.70325136  1
  In  In63  1  0.66292570  0.66161525  -0.02687875  1
  In  In64  1  0.14235800  0.82657901  -0.03373310  1
  In  In65  1  0.83630978  0.84325083  0.67535586  1
  In  In66  1  -0.01922168  0.19902664  0.50877138  1
  In  In67  1  0.48671126  0.17436510  0.02122073  1
  In  In68  1  0.68485532  0.48996502  0.13851717  1
  In  In69  1  0.50062806  0.69130238  0.13925175  1
  In  In70  1  0.66977385  0.18040891  0.49083358  1
  In  In71  1  -0.00374685  0.16460705  0.15542104  1
  Te  Te72  1  0.04295709  0.05192766  0.07085313  1
  Te  Te73  1  0.07274625  0.09344604  0.43374631  1
  Te  Te74  1  0.13146836  0.02293141  0.80757382  1
  Te  Te75  1  0.11041775  0.42566014  0.09798526  1
  Te  Te76  1  0.08159217  0.42440452  0.37974992  1
  Te  Te77  1  0.08260880  0.42230428  0.78081548  1
  Te  Te78  1  0.05572517  0.73833463  0.05105898  1
  Te  Te79  1  0.05176426  0.70066619  0.39221131  1
  Te  Te80  1  0.04512624  0.72634817  0.74998203  1
  Te  Te81  1  0.38203486  0.08782737  0.08414001  1
  Te  Te82  1  0.42534658  0.07960132  0.38520070  1
  Te  Te83  1  0.39986426  0.09206346  0.76356878  1
  Te  Te84  1  0.42614385  0.43552495  0.05164732  1
  Te  Te85  1  0.43270292  0.40221854  0.42111201  1
  Te  Te86  1  0.44181713  0.43312323  0.77144988  1
  Te  Te87  1  0.39654483  0.76304565  0.06939427  1
  Te  Te88  1  0.40645110  0.74771080  0.43491720  1
  Te  Te89  1  0.39780816  0.79692897  0.77600273  1
  Te  Te90  1  0.75701341  0.10553261  0.09875981  1
  Te  Te91  1  0.75931662  0.09590020  0.41123439  1
  Te  Te92  1  0.77840600  0.07328939  0.75359503  1
  Te  Te93  1  0.72913473  0.40655505  0.02710243  1
  Te  Te94  1  0.73476503  0.38370178  0.39871153  1
  Te  Te95  1  0.79214897  0.43142105  0.73460669  1
  Te  Te96  1  0.72972055  0.73950878  0.09680630  1
  Te  Te97  1  0.74624102  0.74974968  0.40196354  1
  Te  Te98  1  0.75899556  0.74390519  0.76531477  1
  Te  Te99  1  0.11873865  0.24780001  0.18951297  1
  Te  Te100  1  0.09559966  0.24990179  0.59850090  1
  Te  Te101  1  0.10808455  0.22614829  0.94891240  1
  Te  Te102  1  0.07489561  0.62074624  0.25934850  1
  Te  Te103  1  0.05595763  0.57450262  0.58578178  1
  Te  Te104  1  0.07383074  0.60172736  0.93969976  1
  Te  Te105  1  0.08748240  0.90885640  0.26797707  1
  Te  Te106  1  0.09254934  0.92051559  0.60472634  1
  Te  Te107  1  0.05352040  0.90444648  0.87812310  1
  Te  Te108  1  0.38964549  0.27122933  0.22787205  1
  Te  Te109  1  0.41431856  0.24440446  0.56926714  1
  Te  Te110  1  0.41102020  0.25613683  0.92024434  1
  Te  Te111  1  0.42079456  0.59393628  0.24092539  1
  Te  Te112  1  0.42204937  0.58560290  0.60085612  1
  Te  Te113  1  0.45646365  0.61017209  0.89075185  1
  Te  Te114  1  0.40320047  0.89745268  0.22144586  1
  Te  Te115  1  0.42684033  0.91884604  0.59936648  1
  Te  Te116  1  0.41800910  0.91601377  0.91920518  1
  Te  Te117  1  0.75280192  0.31386839  0.25972664  1
  Te  Te118  1  0.72728183  0.26561946  0.60232228  1
  Te  Te119  1  0.73818316  0.24433565  0.89442698  1
  Te  Te120  1  0.77508973  0.56573215  0.23687552  1
  Te  Te121  1  0.75105732  0.59552560  0.59478773  1
  Te  Te122  1  0.74988805  0.55748931  0.91079808  1
  Te  Te123  1  0.74800432  0.93289208  0.25862340  1
  Te  Te124  1  0.76429392  0.91942281  0.57289396  1
  Te  Te125  1  0.75616219  0.91729769  0.91571720  1
  Te  Te126  1  0.22285711  0.23251934  0.07602395  1
  Te  Te127  1  0.23418742  0.24886625  0.41227841  1
  Te  Te128  1  0.26121269  0.25553798  0.73237238  1
  Te  Te129  1  0.24847752  0.59809212  0.09312169  1
  Te  Te130  1  0.24926248  0.56103514  0.38618718  1
  Te  Te131  1  0.25361679  0.56952457  0.74534044  1
  Te  Te132  1  0.22460042  0.91928261  0.05808529  1
  Te  Te133  1  0.27214253  0.91305097  0.41557015  1
  Te  Te134  1  0.26675995  0.87638916  0.77403451  1
  Te  Te135  1  0.59505961  0.26138894  0.08283304  1
  Te  Te136  1  0.57593242  0.24179719  0.38782887  1
  Te  Te137  1  0.56524980  0.25741799  0.75806750  1
  Te  Te138  1  0.57944503  0.58315744  0.07449055  1
  Te  Te139  1  0.59595497  0.58519103  0.43137270  1
  Te  Te140  1  0.55771143  0.56015577  0.78430899  1
  Te  Te141  1  0.58653668  0.90129962  0.06481451  1
  Te  Te142  1  0.58693399  0.90215351  0.44303541  1
  Te  Te143  1  0.60104619  0.92938209  0.73941612  1
  Te  Te144  1  0.91864157  0.27046178  0.07677018  1
  Te  Te145  1  0.88932441  0.28873676  0.43727104  1
  Te  Te146  1  0.93439310  0.25441233  0.75869479  1
  Te  Te147  1  0.91980896  0.53899051  0.06664845  1
  Te  Te148  1  0.88893234  0.55956701  0.40493485  1
  Te  Te149  1  0.95560713  0.60063068  0.73637361  1
  Te  Te150  1  0.89949001  0.92380637  0.10100021  1
  Te  Te151  1  0.93839334  0.91115251  0.42274130  1
  Te  Te152  1  0.93310210  0.91223697  0.76921227  1
  Te  Te153  1  0.23904515  0.07105050  0.26113770  1
  Te  Te154  1  0.24697353  0.07742375  0.58721879  1
  Te  Te155  1  0.22790186  0.10264157  0.89644274  1
  Te  Te156  1  0.28898817  0.38513696  0.24566616  1
  Te  Te157  1  0.26019103  0.42062372  0.57008696  1
  Te  Te158  1  0.26281852  0.41924469  0.90640701  1
  Te  Te159  1  0.22257502  0.75376541  0.24269327  1
  Te  Te160  1  0.22512841  0.72425912  0.58285978  1
  Te  Te161  1  0.24880874  0.73456853  0.91081327  1
  Te  Te162  1  0.58386783  0.06659343  0.22275635  1
  Te  Te163  1  0.59861922  0.08458763  0.58920205  1
  Te  Te164  1  0.57839421  0.08672664  0.93054053  1
  Te  Te165  1  0.58845177  0.42967572  0.24606036  1
  Te  Te166  1  0.58954971  0.44009747  0.59226908  1
  Te  Te167  1  0.63441204  0.44399186  0.91356062  1
  Te  Te168  1  0.56410194  0.74829931  0.27535295  1
  Te  Te169  1  0.57666734  0.74951833  0.63450395  1
  Te  Te170  1  0.55778418  0.74091698  0.90329547  1
  Te  Te171  1  0.91136346  0.12503510  0.27035913  1
  Te  Te172  1  0.92395346  0.08464565  0.59069813  1
  Te  Te173  1  0.91878818  0.07819753  0.92149984  1
  Te  Te174  1  0.92125828  0.40348447  0.23351573  1
  Te  Te175  1  0.89593792  0.41528907  0.58899987  1
  Te  Te176  1  0.92933827  0.43654494  0.92795071  1
  Te  Te177  1  0.91931640  0.74450483  0.23609598  1
  Te  Te178  1  0.92410661  0.75865736  0.58036183  1
  Te  Te179  1  0.91494559  0.73354516  0.93191980  1
