# generated using pymatgen
data_In2Te3
_symmetry_space_group_name_H-M   'P 1'
_cell_length_a   18.91139666
_cell_length_b   18.94417446
_cell_length_c   18.91225858
_cell_angle_alpha   90.08226541
_cell_angle_beta   89.98984166
_cell_angle_gamma   90.01863122
_symmetry_Int_Tables_number   1
_chemical_formula_structural   In2Te3
_chemical_formula_sum   'In72 Te108'
_cell_volume   6775.51339460
_cell_formula_units_Z   36
loop_
 _symmetry_equiv_pos_site_id
 _symmetry_equiv_pos_as_xyz
  1  'x, y, z'
loop_
 _atom_site_type_symbol
 _atom_site_label
 _atom_site_symmetry_multiplicity
 _atom_site_fract_x
 _atom_site_fract_y
 _atom_site_fract_z
 _atom_site_occupancy
  In  In0  1  0.32326502  0.68404606  0.64634663  1
  In  In1  1  0.19817213  0.03173229  0.83553556  1
  In  In2  1  0.16900591  0.83581654  0.32515488  1
  In  In3  1  0.01436859  0.32628601  0.66817424  1
  In  In4  1  0.46810373  0.67102402  0.16396092  1
  In  In5  1  0.85438598  0.66538086  0.15721472  1
  In  In6  1  0.51466038  0.51105975  0.67844085  1
  In  In7  1  0.18086571  0.51295855  0.31995270  1
  In  In8  1  -0.00228096  -0.04841347  0.37318210  1
  In  In9  1  0.50018289  0.49778234  -0.01492753  1
  In  In10  1  0.84360388  0.65423271  0.83451073  1
  In  In11  1  0.35205776  0.02435480  0.67592448  1
  In  In12  1  0.33675105  0.48570636  0.84266108  1
  In  In13  1  0.78879171  0.34586049  0.18328937  1
  In  In14  1  0.83913629  0.81968577  -0.00663990  1
  In  In15  1  -0.00936889  0.01438599  0.65882205  1
  In  In16  1  0.51126862  0.31338574  0.16189556  1
  In  In17  1  0.51118600  0.69091437  0.50034926  1
  In  In18  1  0.49046703  0.82529442  -0.00417699  1
  In  In19  1  0.63968652  0.31646375  -0.02096319  1
  In  In20  1  0.19080492  0.16279371  0.35400927  1
  In  In21  1  -0.00143844  -0.02045273  0.01052039  1
  In  In22  1  0.02155801  0.68177572  0.34404842  1
  In  In23  1  0.20832633  0.18227294  -0.05747328  1
  In  In24  1  0.50405256  0.15928782  0.33760485  1
  In  In25  1  0.18790365  -0.01416745  0.15403787  1
  In  In26  1  0.69808417  0.81704227  0.15924202  1
  In  In27  1  0.81930951  0.19373799  0.01414145  1
  In  In28  1  0.68616921  0.67397641  0.33827761  1
  In  In29  1  0.00492356  0.66802761  -0.00012801  1
  In  In30  1  0.18508046  0.00768519  0.52033174  1
  In  In31  1  0.17700949  0.33449335  0.49958471  1
  In  In32  1  0.65015616  0.32084857  0.33361287  1
  In  In33  1  0.67190004  0.52733938  0.49590044  1
  In  In34  1  0.86549814  0.71178403  0.54531004  1
  In  In35  1  0.66341601  0.48096092  0.13049381  1
  In  In36  1  0.83730484  0.49180653  0.69610754  1
  In  In37  1  0.66253225  0.84854558  0.82289574  1
  In  In38  1  0.01329185  0.12850841  0.19287421  1
  In  In39  1  -0.00061776  0.51485487  0.50423249  1
  In  In40  1  0.65170805  0.18914192  0.16712056  1
  In  In41  1  0.82979503  0.83373219  0.37016948  1
  In  In42  1  0.47521493  0.33219620  0.53133448  1
  In  In43  1  0.33177678  0.28578726  0.72390260  1
  In  In44  1  -0.02201237  0.32966887  0.34000414  1
  In  In45  1  0.68608020  0.02615087  0.38382797  1
  In  In46  1  0.32607225  0.83643147  0.83292273  1
  In  In47  1  0.32904678  -0.00541436  0.32563603  1
  In  In48  1  0.48621509  0.01457450  0.14389194  1
  In  In49  1  0.63665003  0.30787914  0.69066590  1
  In  In50  1  0.81538032  0.31239737  0.50474410  1
  In  In51  1  0.34012491  0.31734472  -0.02956944  1
  In  In52  1  0.68290449  -0.00559024  0.64432407  1
  In  In53  1  0.32540813  0.49829292  0.48249238  1
  In  In54  1  0.15873054  0.33749128  0.15229070  1
  In  In55  1  0.83003743  0.01238380  0.18432502  1
  In  In56  1  -0.00772844  0.34019422  0.01550775  1
  In  In57  1  0.49117078  0.66567660  0.82762200  1
  In  In58  1  0.16543789  0.67312083  0.16645461  1
  In  In59  1  0.62274949  0.01420636  -0.01965974  1
  In  In60  1  0.02541124  0.51345935  0.84514960  1
  In  In61  1  0.15638832  0.84136090  -0.01636869  1
  In  In62  1  0.82805965  0.01554173  0.82505908  1
  In  In63  1  0.83575825  0.30251453  0.83474402  1
  In  In64  1  0.65380012  0.67679433  0.67068581  1
  In  In65  1  0.32729281  0.51152712  0.16048635  1
  In  In66  1  -0.00467459  0.15854925  0.82646617  1
  In  In67  1  0.85147211  0.50186744  0.32107475  1
  In  In68  1  0.48670234  0.83243788  0.34247943  1
  In  In69  1  0.49636961  -0.00634547  0.51945596  1
  In  In70  1  0.02052670  0.83188836  0.76889568  1
  In  In71  1  0.16377768  0.52190770  0.65439833  1
  Te  Te72  1  0.09434633  0.07962651  0.07299504  1
  Te  Te73  1  0.09100883  0.06890774  0.41629820  1
  Te  Te74  1  0.09680398  0.09584409  0.73323316  1
  Te  Te75  1  0.09952098  0.43376792  0.05766562  1
  Te  Te76  1  0.07747070  0.42679078  0.40697410  1
  Te  Te77  1  0.10161617  0.41797051  0.74930235  1
  Te  Te78  1  0.07331440  0.76840396  0.09042211  1
  Te  Te79  1  0.05142016  0.80871501  0.41891008  1
  Te  Te80  1  0.11861248  0.73185753  0.72045947  1
  Te  Te81  1  0.41878508  0.08969448  0.03989674  1
  Te  Te82  1  0.41010917  0.07737215  0.42251995  1
  Te  Te83  1  0.42352255  0.10789874  0.78090563  1
  Te  Te84  1  0.42033942  0.40660385  0.07639479  1
  Te  Te85  1  0.42799026  0.41335234  0.41947758  1
  Te  Te86  1  0.42210744  0.41068755  0.74266014  1
  Te  Te87  1  0.38761426  0.75294278  0.07332161  1
  Te  Te88  1  0.39939803  0.75413611  0.42919315  1
  Te  Te89  1  0.42219528  0.76033061  0.73419688  1
  Te  Te90  1  0.73860542  0.08452591  0.08584101  1
  Te  Te91  1  0.76209153  0.10685829  0.47963983  1
  Te  Te92  1  0.74674955  0.09576541  0.73471559  1
  Te  Te93  1  0.75592162  0.39523063  0.04580179  1
  Te  Te94  1  0.75153410  0.42184956  0.40580166  1
  Te  Te95  1  0.74115935  0.39844942  0.76256316  1
  Te  Te96  1  0.74343011  0.71692985  0.05453660  1
  Te  Te97  1  0.73724429  0.75019464  0.45859933  1
  Te  Te98  1  0.75814908  0.75229162  0.75354464  1
  Te  Te99  1  0.08701323  0.24523945  0.26217002  1
  Te  Te100  1  0.08627466  0.24345551  0.57134167  1
  Te  Te101  1  0.07071498  0.25023899  0.91950651  1
  Te  Te102  1  0.06605271  0.57795268  0.24470728  1
  Te  Te103  1  0.10607221  0.60957557  0.54693008  1
  Te  Te104  1  0.11035207  0.61780630  0.90735361  1
  Te  Te105  1  0.08070511  0.92695600  0.24260723  1
  Te  Te106  1  0.08574237  0.92334725  0.59022760  1
  Te  Te107  1  0.07900569  0.94056477  0.88771883  1
  Te  Te108  1  0.41993759  0.23533143  0.24504131  1
  Te  Te109  1  0.38507194  0.23157749  0.59451842  1
  Te  Te110  1  0.42002585  0.23923922  0.86788458  1
  Te  Te111  1  0.39285230  0.59466775  0.26275633  1
  Te  Te112  1  0.42656296  0.58233239  0.57909865  1
  Te  Te113  1  0.40065267  0.59609118  0.92708997  1
  Te  Te114  1  0.41654821  0.91263607  0.23234285  1
  Te  Te115  1  0.39573259  0.91291948  0.58975546  1
  Te  Te116  1  0.43164698  0.91736122  0.89830590  1
  Te  Te117  1  0.75831678  0.22998055  0.27323320  1
  Te  Te118  1  0.72444431  0.23528359  0.59315074  1
  Te  Te119  1  0.72476517  0.21870347  0.89806270  1
  Te  Te120  1  0.74621348  0.57462280  0.23355415  1
  Te  Te121  1  0.76608441  0.58831333  0.59942320  1
  Te  Te122  1  0.78576304  0.58900359  0.95069979  1
  Te  Te123  1  0.74533110  0.91467336  0.27262415  1
  Te  Te124  1  0.75160978  0.89159776  0.56191928  1
  Te  Te125  1  0.74872693  0.92504427  0.93030938  1
  Te  Te126  1  0.25399817  0.24634242  0.07652857  1
  Te  Te127  1  0.27323492  0.26981192  0.40913035  1
  Te  Te128  1  0.22648952  0.20688712  0.79169540  1
  Te  Te129  1  0.22758314  0.57523055  0.07492210  1
  Te  Te130  1  0.23107637  0.60022128  0.42873846  1
  Te  Te131  1  0.26751991  0.58418460  0.74626681  1
  Te  Te132  1  0.26651009  0.89768395  0.06609941  1
  Te  Te133  1  0.25676240  0.90924722  0.42579848  1
  Te  Te134  1  0.24850135  0.92730368  0.73902245  1
  Te  Te135  1  0.55375595  0.21469863  0.05175684  1
  Te  Te136  1  0.57203749  0.24939994  0.43887256  1
  Te  Te137  1  0.53481792  0.22257423  0.75876582  1
  Te  Te138  1  0.57183976  0.59069810  0.08052348  1
  Te  Te139  1  0.57576190  0.58840642  0.39865629  1
  Te  Te140  1  0.60794479  0.57864950  0.77734808  1
  Te  Te141  1  0.59592713  0.90588985  0.08877391  1
  Te  Te142  1  0.58743292  0.91799065  0.42124830  1
  Te  Te143  1  0.57477304  0.93982895  0.74478238  1
  Te  Te144  1  0.93200471  0.23029613  0.10838594  1
  Te  Te145  1  0.93086585  0.24187343  0.44664286  1
  Te  Te146  1  0.90914565  0.23059335  0.72300263  1
  Te  Te147  1  0.90774969  0.56823997  0.05679114  1
  Te  Te148  1  0.90371004  0.60289720  0.42240621  1
  Te  Te149  1  0.94495777  0.58870794  0.73987702  1
  Te  Te150  1  0.90413979  0.90520993  0.10369385  1
  Te  Te151  1  0.87773945  0.92966789  0.48023253  1
  Te  Te152  1  0.89643170  0.91876610  0.73403037  1
  Te  Te153  1  0.26018648  0.09279452  0.23369796  1
  Te  Te154  1  0.26964545  0.11212717  0.58522481  1
  Te  Te155  1  0.29214437  0.05449895  0.95414448  1
  Te  Te156  1  0.25759978  0.40537648  0.24667536  1
  Te  Te157  1  0.25997063  0.41889739  0.59503791  1
  Te  Te158  1  0.23753475  0.40808919  0.91758079  1
  Te  Te159  1  0.25910328  0.74752388  0.25109606  1
  Te  Te160  1  0.20569365  0.76236749  0.60401654  1
  Te  Te161  1  0.23024873  0.74388454  0.89950876  1
  Te  Te162  1  0.59219635  0.07202577  0.24844119  1
  Te  Te163  1  0.57923239  0.08842484  0.59532169  1
  Te  Te164  1  0.56728003  0.05496335  0.84988936  1
  Te  Te165  1  0.57925115  0.42201135  0.24488004  1
  Te  Te166  1  0.60268355  0.42546433  0.58529561  1
  Te  Te167  1  0.57457331  0.41342677  0.89127282  1
  Te  Te168  1  0.59150153  0.75153872  0.24744309  1
  Te  Te169  1  0.57401740  0.77703427  0.60121780  1
  Te  Te170  1  0.59019277  0.74717904  0.91090138  1
  Te  Te171  1  0.91858124  0.06516201  0.29414021  1
  Te  Te172  1  0.89077456  0.06816347  0.56097403  1
  Te  Te173  1  0.90995871  0.08863576  0.93984077  1
  Te  Te174  1  0.92102287  0.41059364  0.22172974  1
  Te  Te175  1  0.90985072  0.41760512  0.58273931  1
  Te  Te176  1  0.92373903  0.40862117  0.89755682  1
  Te  Te177  1  0.91028375  0.75438691  0.26372581  1
  Te  Te178  1  0.97159740  0.76286529  0.63716631  1
  Te  Te179  1  0.93992416  0.76727657  0.89342060  1
