# generated using pymatgen
data_In2Te3
_symmetry_space_group_name_H-M   'P 1'
_cell_length_a   18.89484942
_cell_length_b   18.88406157
_cell_length_c   18.88217592
_cell_angle_alpha   89.92389941
_cell_angle_beta   90.01586951
_cell_angle_gamma   89.94259254
_symmetry_Int_Tables_number   1
_chemical_formula_structural   In2Te3
_chemical_formula_sum   'In72 Te108'
_cell_volume   6737.36792568
_cell_formula_units_Z   36
loop_
 _symmetry_equiv_pos_site_id
 _symmetry_equiv_pos_as_xyz
  1  'x, y, z'
loop_
 _atom_site_type_symbol
 _atom_site_label
 _atom_site_symmetry_multiplicity
 _atom_site_fract_x
 _atom_site_fract_y
 _atom_site_fract_z
 _atom_site_occupancy
  In  In0  1  -0.00233759  0.16025131  0.49834520  1
  In  In1  1  0.15452832  0.66088326  0.84593874  1
  In  In2  1  0.34948866  0.68608885  0.69386246  1
  In  In3  1  0.67248514  0.15706742  0.17006244  1
  In  In4  1  0.29639660  0.66305868  0.34337484  1
  In  In5  1  0.66740865  0.50990994  0.82272013  1
  In  In6  1  -0.02396756  0.85681718  0.83327013  1
  In  In7  1  0.51572086  0.19789160  0.02214708  1
  In  In8  1  0.68959560  0.20004201  0.53375219  1
  In  In9  1  -0.01339158  0.15697936  0.18698902  1
  In  In10  1  0.15810730  0.15215175  0.66570583  1
  In  In11  1  0.66172114  0.33685050  0.32086731  1
  In  In12  1  -0.00752179  0.65274973  0.66137431  1
  In  In13  1  0.68712340  0.85161680  0.18198845  1
  In  In14  1  0.15708248  0.35769137  0.82591829  1
  In  In15  1  0.49688671  0.67277709  0.51498427  1
  In  In16  1  0.65866339  0.65989851  0.66570401  1
  In  In17  1  0.33178239  0.31537335  0.36460502  1
  In  In18  1  0.16935761  0.49157322  0.32374097  1
  In  In19  1  0.15534277  -0.01287890  0.82665020  1
  In  In20  1  -0.01330527  0.80782322  0.50536807  1
  In  In21  1  -0.00503705  0.49951205  0.50591848  1
  In  In22  1  0.14611496  0.33658217  0.15843977  1
  In  In23  1  0.52162615  -0.02579254  0.83012073  1
  In  In24  1  0.33506309  0.85232493  0.51293975  1
  In  In25  1  0.67781979  0.68704077  0.33913525  1
  In  In26  1  0.16051232  0.01448885  0.49190571  1
  In  In27  1  0.82781826  0.01040627  0.82758158  1
  In  In28  1  0.83714081  0.66762858  0.16067319  1
  In  In29  1  -0.02875835  0.32688399  0.69951158  1
  In  In30  1  0.84084848  0.49717875  0.66937476  1
  In  In31  1  0.73231350  0.19884473  0.81731058  1
  In  In32  1  0.52908240  0.82454833  -0.02066524  1
  In  In33  1  0.48995525  0.14666400  0.35381250  1
  In  In34  1  0.01863322  0.82723646  0.16070508  1
  In  In35  1  0.00167820  -0.00002153  0.67242809  1
  In  In36  1  0.84181812  0.81764155  0.00521857  1
  In  In37  1  0.49893438  0.47517509  0.32407547  1
  In  In38  1  0.84127380  0.49554894  0.33292355  1
  In  In39  1  0.31150159  0.51059863  0.14340841  1
  In  In40  1  0.32704727  0.18958115  0.17282698  1
  In  In41  1  0.16696248  -0.00698162  0.17386823  1
  In  In42  1  0.49529395  0.17883310  0.67027552  1
  In  In43  1  0.01405068  0.64725293  0.33971278  1
  In  In44  1  0.51120402  -0.01773720  0.50725930  1
  In  In45  1  0.53723933  0.30596173  0.13451406  1
  In  In46  1  0.83299424  0.48993412  -0.02589473  1
  In  In47  1  0.83988782  0.35056149  0.15624752  1
  In  In48  1  0.51714709  0.85439440  0.36402726  1
  In  In49  1  0.35134464  -0.02074501  -0.02504545  1
  In  In50  1  0.51312756  0.03470311  0.16365958  1
  In  In51  1  0.32481661  0.33979656  -0.01228047  1
  In  In52  1  0.32935775  0.14956595  0.82792293  1
  In  In53  1  0.49878978  0.35742365  0.81239318  1
  In  In54  1  0.67360262  0.81317698  0.81385767  1
  In  In55  1  0.68743140  0.03179266  -0.00408333  1
  In  In56  1  -0.00304384  0.67062898  -0.01257274  1
  In  In57  1  0.65391064  0.48433386  0.50678680  1
  In  In58  1  0.32401261  0.82001869  0.18661294  1
  In  In59  1  0.00333387  0.34893385  -0.02137590  1
  In  In60  1  0.81157242  0.00122094  0.52373646  1
  In  In61  1  0.32323816  0.67225880  -0.02354931  1
  In  In62  1  0.32733438  0.50163944  0.81499965  1
  In  In63  1  0.50019253  0.65335687  0.15366847  1
  In  In64  1  0.34012216  -0.01174027  0.34558279  1
  In  In65  1  0.49274292  0.50765998  -0.01584966  1
  In  In66  1  0.18505348  0.82334731  0.67292113  1
  In  In67  1  0.83744692  0.84637136  0.35732524  1
  In  In68  1  -0.00630309  0.01678554  -0.00336436  1
  In  In69  1  -0.01607885  0.31002664  0.33812288  1
  In  In70  1  0.18685798  0.34905440  0.52860082  1
  In  In71  1  0.49360025  0.33710971  0.52655442  1
  Te  Te72  1  0.08700591  0.09206300  0.08985230  1
  Te  Te73  1  0.07150627  0.08207669  0.39696993  1
  Te  Te74  1  0.06335961  0.09587329  0.77220077  1
  Te  Te75  1  0.08777217  0.43311320  0.06639522  1
  Te  Te76  1  0.08015791  0.40165156  0.41798386  1
  Te  Te77  1  0.07306519  0.43021445  0.72676921  1
  Te  Te78  1  0.09638041  0.74759476  0.06484543  1
  Te  Te79  1  0.08955958  0.73532518  0.42986155  1
  Te  Te80  1  0.06956219  0.76381869  0.75225334  1
  Te  Te81  1  0.40223476  0.09372517  0.07532621  1
  Te  Te82  1  0.40083877  0.07560628  0.45351956  1
  Te  Te83  1  0.42709161  0.06569643  0.74876065  1
  Te  Te84  1  0.41953928  0.41002112  0.08513212  1
  Te  Te85  1  0.40698255  0.42710426  0.43414049  1
  Te  Te86  1  0.38184696  0.39296815  0.72453068  1
  Te  Te87  1  0.41937407  0.75639669  0.07515919  1
  Te  Te88  1  0.40995308  0.75567902  0.40844187  1
  Te  Te89  1  0.45080674  0.78634606  0.72431929  1
  Te  Te90  1  0.78114959  0.07576503  0.10375446  1
  Te  Te91  1  0.76086177  0.11339689  0.43688747  1
  Te  Te92  1  0.71712769  0.06893564  0.74522956  1
  Te  Te93  1  0.75024182  0.44586795  0.08904281  1
  Te  Te94  1  0.75327056  0.40648408  0.42025946  1
  Te  Te95  1  0.74112060  0.40784874  0.73950478  1
  Te  Te96  1  0.73199123  0.74502999  0.08171926  1
  Te  Te97  1  0.75584904  0.75568774  0.44214386  1
  Te  Te98  1  0.76986341  0.73185676  0.73447077  1
  Te  Te99  1  0.09478216  0.23863281  0.26218845  1
  Te  Te100  1  0.06994147  0.25695118  0.59650797  1
  Te  Te101  1  0.08915378  0.25407697  0.90460011  1
  Te  Te102  1  0.08555946  0.57335542  0.23518346  1
  Te  Te103  1  0.09015770  0.59084378  0.56986873  1
  Te  Te104  1  0.05140099  0.56558221  0.89548971  1
  Te  Te105  1  0.07236313  0.92158360  0.25940261  1
  Te  Te106  1  0.08651493  0.90881983  0.58635816  1
  Te  Te107  1  0.07905649  0.90770985  0.93210771  1
  Te  Te108  1  0.44265910  0.25114271  0.25086537  1
  Te  Te109  1  0.39550720  0.24214714  0.58138406  1
  Te  Te110  1  0.41891022  0.25247735  0.90613677  1
  Te  Te111  1  0.40652146  0.58027621  0.25026242  1
  Te  Te112  1  0.41771620  0.58768928  0.60356568  1
  Te  Te113  1  0.42133349  0.59901393  0.88614783  1
  Te  Te114  1  0.43086818  0.92472922  0.24168202  1
  Te  Te115  1  0.44246679  0.89130509  0.61071715  1
  Te  Te116  1  0.41764652  0.87569368  0.88549378  1
  Te  Te117  1  0.76272121  0.25285733  0.24736719  1
  Te  Te118  1  0.75231691  0.29007352  0.63268069  1
  Te  Te119  1  0.77747987  0.26829091  0.94064731  1
  Te  Te120  1  0.74701274  0.58363741  0.25138225  1
  Te  Te121  1  0.75214037  0.57724495  0.57367351  1
  Te  Te122  1  0.75726596  0.59462015  0.90195163  1
  Te  Te123  1  0.77382914  0.94318902  0.26053960  1
  Te  Te124  1  0.71042402  0.89548103  0.55677241  1
  Te  Te125  1  0.74760773  0.91079146  0.92438696  1
  Te  Te126  1  0.23427747  0.24791174  0.06777662  1
  Te  Te127  1  0.23769200  0.23857015  0.44453129  1
  Te  Te128  1  0.24025414  0.24585206  0.75348286  1
  Te  Te129  1  0.23071334  0.61233931  0.07610659  1
  Te  Te130  1  0.24291850  0.55997469  0.43163704  1
  Te  Te131  1  0.23284365  0.59042294  0.73727064  1
  Te  Te132  1  0.26268298  0.91433836  0.08215261  1
  Te  Te133  1  0.23409495  0.90313255  0.41028776  1
  Te  Te134  1  0.25869483  0.93903361  0.73107612  1
  Te  Te135  1  0.65912503  0.25430388  0.04625796  1
  Te  Te136  1  0.57817991  0.25834169  0.42096484  1
  Te  Te137  1  0.58967141  0.24469828  0.76861746  1
  Te  Te138  1  0.59121434  0.58138720  0.06597479  1
  Te  Te139  1  0.57715942  0.58032234  0.40517343  1
  Te  Te140  1  0.56447295  0.55895520  0.72453382  1
  Te  Te141  1  0.58847466  0.92889552  0.08261530  1
  Te  Te142  1  0.62976428  0.92946590  0.42725300  1
  Te  Te143  1  0.62498297  0.92966430  0.73282489  1
  Te  Te144  1  0.93399096  0.25691100  0.08459275  1
  Te  Te145  1  0.89004502  0.22909932  0.41944511  1
  Te  Te146  1  0.86083166  0.23190579  0.73396163  1
  Te  Te147  1  0.91871409  0.57493347  0.07657335  1
  Te  Te148  1  0.90227403  0.59480432  0.42910025  1
  Te  Te149  1  0.94539395  0.55163240  0.76269416  1
  Te  Te150  1  0.91896471  0.91640281  0.08687669  1
  Te  Te151  1  0.92525740  0.93429908  0.44440473  1
  Te  Te152  1  0.88602554  0.91446735  0.72499421  1
  Te  Te153  1  0.26032100  0.08597557  0.26009866  1
  Te  Te154  1  0.25082908  0.05275426  0.60460098  1
  Te  Te155  1  0.24085886  0.07096858  0.92328468  1
  Te  Te156  1  0.26873289  0.39741677  0.24474840  1
  Te  Te157  1  0.27659668  0.42447170  0.61238160  1
  Te  Te158  1  0.23945988  0.44691602  0.92578374  1
  Te  Te159  1  0.21713572  0.74422369  0.25091461  1
  Te  Te160  1  0.26006137  0.73720442  0.57426921  1
  Te  Te161  1  0.24579107  0.76568754  0.89345074  1
  Te  Te162  1  0.60137477  0.07370532  0.28032958  1
  Te  Te163  1  0.58626182  0.09818010  0.57826368  1
  Te  Te164  1  0.56445448  0.08374169  0.92679755  1
  Te  Te165  1  0.59467078  0.42609885  0.21811482  1
  Te  Te166  1  0.57300256  0.42561120  0.61697310  1
  Te  Te167  1  0.58993106  0.41088917  0.91919689  1
  Te  Te168  1  0.57721905  0.75772271  0.24718654  1
  Te  Te169  1  0.60033415  0.76275946  0.57134713  1
  Te  Te170  1  0.59388337  0.72194876  0.89810400  1
  Te  Te171  1  0.88033638  0.06888227  0.23650389  1
  Te  Te172  1  0.90614364  0.09440268  0.60224357  1
  Te  Te173  1  0.90226481  0.10036531  0.91669540  1
  Te  Te174  1  0.94166428  0.42368485  0.24573347  1
  Te  Te175  1  0.90806245  0.39722316  0.57532632  1
  Te  Te176  1  0.88120957  0.37302617  0.89045158  1
  Te  Te177  1  0.91422681  0.75228506  0.25956550  1
  Te  Te178  1  0.89458663  0.75007906  0.60622647  1
  Te  Te179  1  0.89954013  0.73838775  0.89040960  1
