# generated using pymatgen
data_In2Te3
_symmetry_space_group_name_H-M   'P 1'
_cell_length_a   18.95284398
_cell_length_b   18.94296238
_cell_length_c   18.95324021
_cell_angle_alpha   89.91200629
_cell_angle_beta   89.94767835
_cell_angle_gamma   90.10281474
_symmetry_Int_Tables_number   1
_chemical_formula_structural   In2Te3
_chemical_formula_sum   'In72 Te108'
_cell_volume   6804.62752707
_cell_formula_units_Z   36
loop_
 _symmetry_equiv_pos_site_id
 _symmetry_equiv_pos_as_xyz
  1  'x, y, z'
loop_
 _atom_site_type_symbol
 _atom_site_label
 _atom_site_symmetry_multiplicity
 _atom_site_fract_x
 _atom_site_fract_y
 _atom_site_fract_z
 _atom_site_occupancy
  In  In0  1  0.81583427  0.34201317  0.19095732  1
  In  In1  1  0.66215720  0.81770358  0.15737027  1
  In  In2  1  0.00869795  0.33182326  0.00130561  1
  In  In3  1  0.33446920  0.32995018  -0.02747049  1
  In  In4  1  0.83894233  0.82996789  0.35339366  1
  In  In5  1  0.55093014  0.85224549  -0.03467120  1
  In  In6  1  0.83860292  0.50039923  0.68340517  1
  In  In7  1  0.65105003  0.16700060  0.51682306  1
  In  In8  1  0.32175403  0.33169555  0.67092530  1
  In  In9  1  0.35031658  0.31609720  0.34294560  1
  In  In10  1  0.15377394  0.34082050  0.15434105  1
  In  In11  1  0.50955241  0.50017844  0.00192048  1
  In  In12  1  0.15952340  0.64626053  0.19155862  1
  In  In13  1  0.81704969  0.62568400  0.19997437  1
  In  In14  1  0.01106426  0.50008177  0.82307677  1
  In  In15  1  0.82319234  0.31663362  0.83671278  1
  In  In16  1  0.34094079  0.64632257  0.67954230  1
  In  In17  1  0.49558527  0.66703260  0.83390179  1
  In  In18  1  0.80276324  0.84355900  -0.00187817  1
  In  In19  1  0.34781881  0.49553159  0.15887952  1
  In  In20  1  0.52354414  0.63516745  0.16816308  1
  In  In21  1  0.35884244  -0.00837219  0.68063282  1
  In  In22  1  0.52983600  0.08989661  0.12637195  1
  In  In23  1  0.31757076  0.66761965  0.36056965  1
  In  In24  1  0.67529115  0.01180043  0.66986157  1
  In  In25  1  0.14631215  0.02672157  0.48685210  1
  In  In26  1  0.48619151  0.48875064  0.67067314  1
  In  In27  1  0.32385596  0.16765825  0.50912529  1
  In  In28  1  0.83288555  0.32010370  0.45569086  1
  In  In29  1  0.66467873  0.49414016  0.84900182  1
  In  In30  1  0.69094840  -0.00185153  0.36226168  1
  In  In31  1  0.00862479  0.49930276  0.50505336  1
  In  In32  1  0.66602680  0.82036041  0.52346315  1
  In  In33  1  0.67826425  0.01325243  -0.00652323  1
  In  In34  1  0.83569702  0.14843226  0.65349007  1
  In  In35  1  0.84473899  0.01611675  0.17445111  1
  In  In36  1  0.01463707  0.03625757  0.32244096  1
  In  In37  1  0.84396099  0.66501318  0.51844581  1
  In  In38  1  0.67050510  0.48184068  0.50434240  1
  In  In39  1  0.13819345  0.84006739  0.32275392  1
  In  In40  1  0.50381805  0.82298915  0.31724208  1
  In  In41  1  0.01723697  0.64651616  0.34710420  1
  In  In42  1  -0.02561346  0.82635912  0.14208123  1
  In  In43  1  0.16340315  0.82505417  -0.02257806  1
  In  In44  1  0.35054127  0.02095829  -0.00715096  1
  In  In45  1  0.00474668  0.86981809  0.80263420  1
  In  In46  1  0.60951023  0.29910976  0.18266487  1
  In  In47  1  0.17432510  0.49423297  0.64579277  1
  In  In48  1  0.52235397  0.48629911  0.34635004  1
  In  In49  1  0.35153255  0.81489907  0.80844476  1
  In  In50  1  0.00183274  0.84196120  0.48329185  1
  In  In51  1  0.16451541  0.33337638  0.82462957  1
  In  In52  1  -0.02702058  0.65830537  -0.01338564  1
  In  In53  1  0.16197650  0.18468876  -0.00488458  1
  In  In54  1  0.16402285  0.48195644  0.35652297  1
  In  In55  1  0.30865318  0.02980141  0.33490170  1
  In  In56  1  -0.00393585  0.18609276  0.17631528  1
  In  In57  1  0.81778359  0.48236229  0.02412807  1
  In  In58  1  0.13606509  0.02398914  0.81537996  1
  In  In59  1  0.35285466  0.85857971  0.51402820  1
  In  In60  1  0.84252493  0.15211961  -0.03192357  1
  In  In61  1  0.49402734  0.32118834  0.81563563  1
  In  In62  1  0.82334683  0.84913702  0.68145452  1
  In  In63  1  0.18412373  0.03887193  0.16455426  1
  In  In64  1  0.34383959  0.85347108  0.15946324  1
  In  In65  1  0.16773602  0.83270184  0.66549839  1
  In  In66  1  0.51840902  0.16686208  0.33999983  1
  In  In67  1  0.82768783  0.68478548  0.81533264  1
  In  In68  1  0.50842703  0.00624732  0.82701424  1
  In  In69  1  0.34717192  0.68154142  0.00716441  1
  In  In70  1  0.48503670  0.32493377  0.50174542  1
  In  In71  1  -0.00511127  0.29756019  0.62210181  1
  Te  Te72  1  0.07109070  0.09556269  0.08094974  1
  Te  Te73  1  0.06750865  0.14024134  0.41931652  1
  Te  Te74  1  0.05702234  0.09134118  0.70800444  1
  Te  Te75  1  0.10133563  0.43480583  0.05285135  1
  Te  Te76  1  0.07407353  0.39110207  0.43025729  1
  Te  Te77  1  0.06404350  0.40027651  0.72144949  1
  Te  Te78  1  0.08885943  0.74130929  0.08699042  1
  Te  Te79  1  0.10121315  0.73975031  0.43159740  1
  Te  Te80  1  0.08781648  0.75744811  0.76218161  1
  Te  Te81  1  0.38382276  0.08967886  0.11734322  1
  Te  Te82  1  0.41919109  0.08590742  0.42207719  1
  Te  Te83  1  0.41173574  0.09840172  0.76765420  1
  Te  Te84  1  0.42624758  0.39775346  0.07681974  1
  Te  Te85  1  0.40615468  0.43002726  0.42621969  1
  Te  Te86  1  0.39140314  0.42431819  0.76935684  1
  Te  Te87  1  0.43978352  0.75050507  0.10450130  1
  Te  Te88  1  0.42348594  0.75413305  0.42727980  1
  Te  Te89  1  0.46228492  0.76601517  0.71834499  1
  Te  Te90  1  0.75446486  0.10089907  0.08931252  1
  Te  Te91  1  0.75947869  0.09546161  0.44451621  1
  Te  Te92  1  0.73154026  0.11803819  0.75766517  1
  Te  Te93  1  0.72670543  0.37895356  0.07635923  1
  Te  Te94  1  0.75419410  0.43098541  0.39117571  1
  Te  Te95  1  0.73880179  0.40693905  0.74923017  1
  Te  Te96  1  0.76910509  0.73135610  0.09520563  1
  Te  Te97  1  0.74773253  0.73311450  0.42209184  1
  Te  Te98  1  0.72563046  0.74674199  0.72735583  1
  Te  Te99  1  0.04798514  0.30303045  0.25737639  1
  Te  Te100  1  0.09229125  0.19193659  0.59253970  1
  Te  Te101  1  0.06198500  0.23829474  0.89583643  1
  Te  Te102  1  0.06669201  0.54236540  0.24868080  1
  Te  Te103  1  0.08257239  0.59388021  0.58757320  1
  Te  Te104  1  0.08030331  0.58954919  0.91683180  1
  Te  Te105  1  0.06455338  0.92830835  0.22432275  1
  Te  Te106  1  0.08090928  0.92549171  0.58284980  1
  Te  Te107  1  0.07391371  0.93416279  0.92373141  1
  Te  Te108  1  0.45664236  0.26916225  0.25027585  1
  Te  Te109  1  0.42124572  0.23457487  0.60474981  1
  Te  Te110  1  0.40504540  0.22916182  0.89153604  1
  Te  Te111  1  0.40735977  0.59050869  0.26352740  1
  Te  Te112  1  0.41424719  0.57452705  0.57614231  1
  Te  Te113  1  0.40780877  0.57480570  0.91791320  1
  Te  Te114  1  0.41068596  0.93297488  0.26741012  1
  Te  Te115  1  0.45733154  0.93377199  0.58678827  1
  Te  Te116  1  0.41090489  0.89624629  0.92620432  1
  Te  Te117  1  0.72398253  0.25499381  0.26538994  1
  Te  Te118  1  0.76131530  0.25690238  0.57448133  1
  Te  Te119  1  0.72983989  0.21680740  0.89452833  1
  Te  Te120  1  0.72539638  0.52632447  0.25698294  1
  Te  Te121  1  0.74425065  0.58115763  0.59597140  1
  Te  Te122  1  0.77364960  0.57962624  0.91123148  1
  Te  Te123  1  0.76306421  0.90371153  0.24182271  1
  Te  Te124  1  0.75982125  0.92868971  0.57023534  1
  Te  Te125  1  0.71841112  0.90942784  0.89492262  1
  Te  Te126  1  0.25770549  0.25522072  0.08749925  1
  Te  Te127  1  0.24569240  0.27175757  0.43862414  1
  Te  Te128  1  0.23582304  0.23643574  0.74308182  1
  Te  Te129  1  0.25342065  0.58887888  0.08639077  1
  Te  Te130  1  0.23217557  0.58070542  0.44138081  1
  Te  Te131  1  0.24300154  0.56769635  0.75297891  1
  Te  Te132  1  0.23621676  0.92056195  0.07575459  1
  Te  Te133  1  0.23679472  0.91546579  0.41403757  1
  Te  Te134  1  0.24771187  0.92041387  0.77018697  1
  Te  Te135  1  0.57021435  0.21662328  0.06590460  1
  Te  Te136  1  0.59779143  0.27057596  0.41739534  1
  Te  Te137  1  0.57770580  0.27399400  0.70584483  1
  Te  Te138  1  0.60947539  0.59610503  0.05493307  1
  Te  Te139  1  0.57679564  0.57869339  0.44501304  1
  Te  Te140  1  0.58348789  0.57530612  0.75074913  1
  Te  Te141  1  0.57839356  0.92684771  0.09380648  1
  Te  Te142  1  0.58923125  0.90203192  0.41686455  1
  Te  Te143  1  0.60650201  0.91715849  0.76465554  1
  Te  Te144  1  0.90276754  0.25374808  0.07579320  1
  Te  Te145  1  0.93377968  0.22175600  0.41701733  1
  Te  Te146  1  0.91645424  0.24472924  0.74414110  1
  Te  Te147  1  0.91734799  0.57019314  0.09793251  1
  Te  Te148  1  0.90500766  0.57297164  0.41454801  1
  Te  Te149  1  0.93285201  0.60381428  0.74053106  1
  Te  Te150  1  0.90670677  0.93572192  0.06128456  1
  Te  Te151  1  0.92235610  0.94487365  0.40648096  1
  Te  Te152  1  0.88533837  0.95469114  0.77224316  1
  Te  Te153  1  0.22269251  0.12986366  0.27110325  1
  Te  Te154  1  0.25565251  0.05865920  0.58899912  1
  Te  Te155  1  0.24091382  0.08540278  0.91203966  1
  Te  Te156  1  0.25991412  0.41122045  0.25064571  1
  Te  Te157  1  0.23790167  0.38917048  0.56222842  1
  Te  Te158  1  0.22305284  0.41823891  0.93142078  1
  Te  Te159  1  0.25241905  0.76204220  0.24601181  1
  Te  Te160  1  0.27269331  0.75527153  0.59108464  1
  Te  Te161  1  0.25517522  0.73537086  0.89774699  1
  Te  Te162  1  0.60459884  0.07041304  0.26170706  1
  Te  Te163  1  0.56544143  0.06860851  0.58739658  1
  Te  Te164  1  0.56652236  0.09208155  0.93467941  1
  Te  Te165  1  0.59434679  0.44849445  0.22120444  1
  Te  Te166  1  0.58576503  0.38877349  0.60572503  1
  Te  Te167  1  0.58016869  0.39253171  0.92118384  1
  Te  Te168  1  0.60482140  0.72329327  0.26255262  1
  Te  Te169  1  0.58385538  0.74788754  0.62041103  1
  Te  Te170  1  0.59695402  0.71790405  0.93250236  1
  Te  Te171  1  0.89473820  0.12109861  0.27228680  1
  Te  Te172  1  0.95124299  0.07551397  0.59741827  1
  Te  Te173  1  0.91353205  0.05297258  0.88979290  1
  Te  Te174  1  0.93629477  0.40416136  0.24389755  1
  Te  Te175  1  0.89674319  0.41177085  0.57466237  1
  Te  Te176  1  0.90936946  0.41907899  0.91118003  1
  Te  Te177  1  0.92823680  0.74199658  0.26097034  1
  Te  Te178  1  0.92234487  0.77127853  0.59151151  1
  Te  Te179  1  0.91314578  0.77508682  0.91024559  1
