# generated using pymatgen
data_In2Te3
_symmetry_space_group_name_H-M   'P 1'
_cell_length_a   19.01836988
_cell_length_b   19.01483522
_cell_length_c   19.03238145
_cell_angle_alpha   89.89598061
_cell_angle_beta   90.13243649
_cell_angle_gamma   89.91917244
_symmetry_Int_Tables_number   1
_chemical_formula_structural   In2Te3
_chemical_formula_sum   'In72 Te108'
_cell_volume   6882.66574010
_cell_formula_units_Z   36
loop_
 _symmetry_equiv_pos_site_id
 _symmetry_equiv_pos_as_xyz
  1  'x, y, z'
loop_
 _atom_site_type_symbol
 _atom_site_label
 _atom_site_symmetry_multiplicity
 _atom_site_fract_x
 _atom_site_fract_y
 _atom_site_fract_z
 _atom_site_occupancy
  In  In0  1  0.50584424  0.49507650  0.33873047  1
  In  In1  1  0.14259151  0.83084469  0.34636867  1
  In  In2  1  0.17194529  0.51106897  0.01693387  1
  In  In3  1  0.00515037  0.15355538  0.17422056  1
  In  In4  1  -0.00520646  0.87303186  0.56798414  1
  In  In5  1  0.27930613  0.48284180  0.53244763  1
  In  In6  1  0.66021757  0.31954027  0.34128907  1
  In  In7  1  0.88262475  0.69086964  0.86136316  1
  In  In8  1  0.51091478  0.47986748  0.00748267  1
  In  In9  1  0.67561900  0.84852695  0.81202056  1
  In  In10  1  0.35091666  0.32328341  -0.02036744  1
  In  In11  1  0.17137311  0.70173790  0.52797992  1
  In  In12  1  0.67293477  -0.00591809  0.67124846  1
  In  In13  1  -0.02655770  0.50225224  0.18701066  1
  In  In14  1  0.16792482  0.50429695  0.34035838  1
  In  In15  1  0.01850167  0.52415371  0.51055830  1
  In  In16  1  0.65548502  0.65837911  -0.02186003  1
  In  In17  1  0.82328388  0.14264352  -0.02357971  1
  In  In18  1  0.82039494  0.31311437  0.16630635  1
  In  In19  1  0.52963388  0.13775287  0.32480137  1
  In  In20  1  0.33405087  0.69821993  0.33687254  1
  In  In21  1  0.69038295  0.47839254  0.85459730  1
  In  In22  1  0.81938638  0.88436220  0.32476319  1
  In  In23  1  0.47775197  0.67458050  0.16424267  1
  In  In24  1  0.19307571  0.15917437  -0.00432980  1
  In  In25  1  0.14090652  0.32233605  0.19760941  1
  In  In26  1  0.34732601  0.17355690  0.15679519  1
  In  In27  1  0.18016539  -0.00802548  0.17235126  1
  In  In28  1  0.85694384  0.51445374  0.66140191  1
  In  In29  1  0.18402872  0.16284574  0.66290938  1
  In  In30  1  0.33989109  0.18365669  0.48653023  1
  In  In31  1  0.81166489  0.69029287  0.18011662  1
  In  In32  1  0.35402162  -0.02347978  0.64055400  1
  In  In33  1  0.48501418  0.80605863  -0.00600527  1
  In  In34  1  0.32445740  0.33278402  0.32134140  1
  In  In35  1  0.85322788  0.31805799  0.77125832  1
  In  In36  1  0.32055651  0.00178897  0.33450915  1
  In  In37  1  0.66705539  0.17264867  0.82648644  1
  In  In38  1  0.67195731  0.85154961  0.18553673  1
  In  In39  1  0.83874512  0.69080079  0.50312543  1
  In  In40  1  0.00017540  0.71053207  0.02805372  1
  In  In41  1  0.49630401  0.14514112  0.00873058  1
  In  In42  1  0.68684044  0.67338353  0.67462373  1
  In  In43  1  0.48388007  0.64591506  0.79614901  1
  In  In44  1  0.49443254  0.85549991  0.33869438  1
  In  In45  1  0.01187681  0.86899411  0.15480993  1
  In  In46  1  0.81002073  0.47032581  0.34783568  1
  In  In47  1  0.51133066  -0.01285037  0.80898728  1
  In  In48  1  -0.00037031  0.15068885  0.80995965  1
  In  In49  1  0.05004146  0.51345511  0.82373754  1
  In  In50  1  0.31968219  0.67515946  -0.02434032  1
  In  In51  1  0.85556464  0.14243951  0.35945336  1
  In  In52  1  0.86098649  0.83925660  0.01247802  1
  In  In53  1  0.33704721  0.82651262  0.80960018  1
  In  In54  1  0.85768059  0.47006586  0.00700238  1
  In  In55  1  0.15613713  -0.02040192  0.85306097  1
  In  In56  1  0.51310061  0.16180246  0.63998227  1
  In  In57  1  0.18149184  0.33103317  0.78783476  1
  In  In58  1  0.30107095  0.52394704  0.82992970  1
  In  In59  1  0.67914589  -0.01785973  0.01877302  1
  In  In60  1  0.00275435  0.33165142  -0.01879791  1
  In  In61  1  0.13165294  0.72466678  0.79610961  1
  In  In62  1  0.66091708  0.30110415  0.00414396  1
  In  In63  1  0.81294679  0.30409508  0.54012476  1
  In  In64  1  0.15219115  0.14197578  0.37744297  1
  In  In65  1  0.84195321  0.01026280  0.52423614  1
  In  In66  1  0.65665140  0.82533941  0.50533165  1
  In  In67  1  0.86125069  -0.00980284  0.79800884  1
  In  In68  1  0.66462788  0.64423991  0.34173215  1
  In  In69  1  -0.00581125  0.66108425  0.31985844  1
  In  In70  1  0.43486718  0.47632429  0.65078372  1
  In  In71  1  0.49091309  0.33646753  0.49124953  1
  Te  Te72  1  0.09420777  0.07962196  0.07843264  1
  Te  Te73  1  0.06031202  0.09041796  0.48524489  1
  Te  Te74  1  0.09482435  0.05981968  0.73631378  1
  Te  Te75  1  0.06266588  0.41353066  0.09415839  1
  Te  Te76  1  0.07250399  0.42657509  0.41685317  1
  Te  Te77  1  0.07105225  0.40565343  0.72582341  1
  Te  Te78  1  0.11100046  0.77715136  0.09629669  1
  Te  Te79  1  0.05732882  0.73917685  0.43141519  1
  Te  Te80  1  0.06088763  0.80494201  0.69578701  1
  Te  Te81  1  0.39814822  0.05455589  0.08182682  1
  Te  Te82  1  0.42227935  0.07826998  0.41602217  1
  Te  Te83  1  0.42333827  0.08005304  0.73230092  1
  Te  Te84  1  0.41860652  0.39802348  0.08418074  1
  Te  Te85  1  0.38104173  0.42675242  0.42605109  1
  Te  Te86  1  0.39471423  0.42380926  0.78044667  1
  Te  Te87  1  0.37940589  0.76190939  0.09067189  1
  Te  Te88  1  0.43275151  0.75577704  0.43088636  1
  Te  Te89  1  0.38809801  0.72305366  0.71893311  1
  Te  Te90  1  0.73727717  0.09836948  0.08494321  1
  Te  Te91  1  0.74825146  0.07940713  0.43576057  1
  Te  Te92  1  0.77158109  0.09906822  0.73902046  1
  Te  Te93  1  0.74104629  0.41000059  0.08024190  1
  Te  Te94  1  0.72898295  0.39856646  0.45077740  1
  Te  Te95  1  0.75297729  0.42237425  0.72865682  1
  Te  Te96  1  0.73602230  0.75862238  0.06201550  1
  Te  Te97  1  0.75420398  0.75734527  0.39305049  1
  Te  Te98  1  0.78255203  0.75373324  0.76274740  1
  Te  Te99  1  0.06155726  0.23359859  0.28906564  1
  Te  Te100  1  0.15661149  0.27893081  0.57295071  1
  Te  Te101  1  0.08562388  0.23391436  0.90474847  1
  Te  Te102  1  0.08964835  0.58668461  0.23220367  1
  Te  Te103  1  0.10902416  0.59034253  0.60634492  1
  Te  Te104  1  0.06973382  0.59696077  0.94746933  1
  Te  Te105  1  0.07418051  0.94378973  0.27079929  1
  Te  Te106  1  0.11652648  0.95080945  0.52356446  1
  Te  Te107  1  0.08277052  0.90385105  0.95532914  1
  Te  Te108  1  0.42856468  0.24145149  0.26514648  1
  Te  Te109  1  0.40499062  0.26388212  0.59456811  1
  Te  Te110  1  0.43345370  0.22910293  0.90714561  1
  Te  Te111  1  0.40823089  0.58470981  0.26269924  1
  Te  Te112  1  0.36604141  0.58905071  0.58747151  1
  Te  Te113  1  0.42955675  0.58327666  0.92283520  1
  Te  Te114  1  0.39518493  0.91195973  0.24719548  1
  Te  Te115  1  0.40061634  0.87741018  0.54033591  1
  Te  Te116  1  0.42166454  0.91000478  0.90341550  1
  Te  Te117  1  0.75570992  0.22758988  0.26979192  1
  Te  Te118  1  0.74002897  0.22147014  0.63810655  1
  Te  Te119  1  0.77424521  0.26405018  0.89793210  1
  Te  Te120  1  0.75043751  0.56742800  0.24350718  1
  Te  Te121  1  0.75618891  0.58482959  0.57197106  1
  Te  Te122  1  0.77574313  0.58792043  0.91686230  1
  Te  Te123  1  0.70456848  0.97270553  0.26867160  1
  Te  Te124  1  0.75807019  0.89844900  0.59181205  1
  Te  Te125  1  0.77079077  0.92223229  0.90535917  1
  Te  Te126  1  0.23854514  0.26895933  0.09161516  1
  Te  Te127  1  0.22901192  0.27054777  0.42193524  1
  Te  Te128  1  0.25954278  0.20750257  0.78250105  1
  Te  Te129  1  0.27230000  0.59013797  0.08486506  1
  Te  Te130  1  0.23920214  0.60497714  0.42631231  1
  Te  Te131  1  0.20039739  0.59916791  0.75024504  1
  Te  Te132  1  0.28433790  0.95195288  0.08095537  1
  Te  Te133  1  0.23733079  0.91747939  0.42898270  1
  Te  Te134  1  0.24999209  0.92625710  0.73838105  1
  Te  Te135  1  0.57850777  0.22694558  0.09802018  1
  Te  Te136  1  0.58371207  0.23072563  0.43601381  1
  Te  Te137  1  0.60195252  0.25314781  0.72058121  1
  Te  Te138  1  0.58061261  0.58920531  0.08883542  1
  Te  Te139  1  0.57832501  0.57603323  0.43561178  1
  Te  Te140  1  0.60950255  0.57289370  0.76213419  1
  Te  Te141  1  0.57030953  0.89819963  0.08102848  1
  Te  Te142  1  0.59933288  0.92529819  0.41380552  1
  Te  Te143  1  0.56731181  0.88566260  0.71396231  1
  Te  Te144  1  0.91821051  0.24191997  0.07161703  1
  Te  Te145  1  0.91747485  0.23254303  0.46267631  1
  Te  Te146  1  0.94836476  0.23354024  0.69622083  1
  Te  Te147  1  0.90469649  0.60074564  0.09066416  1
  Te  Te148  1  0.89875097  0.58101914  0.40644190  1
  Te  Te149  1  0.94193316  0.59734998  0.75674846  1
  Te  Te150  1  0.89381438  0.94447678  0.10846762  1
  Te  Te151  1  0.91437010  0.90922424  0.43590516  1
  Te  Te152  1  0.96239436  0.94350318  0.70295013  1
  Te  Te153  1  0.24293182  0.11466571  0.25382533  1
  Te  Te154  1  0.26738101  0.07854045  0.56755014  1
  Te  Te155  1  0.26323085  0.06880441  0.90563458  1
  Te  Te156  1  0.24464462  0.42687526  0.23432081  1
  Te  Te157  1  0.22494993  0.39410481  0.64346379  1
  Te  Te158  1  0.22924177  0.41409511  0.91695038  1
  Te  Te159  1  0.22685048  0.75459358  0.25485224  1
  Te  Te160  1  0.26037458  0.81540253  0.56087026  1
  Te  Te161  1  0.22753866  0.77067381  0.90290918  1
  Te  Te162  1  0.58899915  0.06043005  0.21734901  1
  Te  Te163  1  0.57405235  0.04517965  0.57707674  1
  Te  Te164  1  0.60096917  0.06236366  0.90574377  1
  Te  Te165  1  0.58605859  0.40991873  0.25376786  1
  Te  Te166  1  0.55586669  0.42902078  0.58432820  1
  Te  Te167  1  0.58149098  0.38932346  0.90857873  1
  Te  Te168  1  0.58428977  0.74463330  0.24983338  1
  Te  Te169  1  0.58327938  0.72796136  0.58658549  1
  Te  Te170  1  0.57930386  0.75240212  0.88500669  1
  Te  Te171  1  0.90632373  0.06775252  0.24076272  1
  Te  Te172  1  0.93809696  0.11187214  0.57811328  1
  Te  Te173  1  0.93316288  0.06249315  0.91380846  1
  Te  Te174  1  0.90814388  0.39023180  0.26469485  1
  Te  Te175  1  0.91684615  0.42096238  0.56142397  1
  Te  Te176  1  0.92588222  0.41593594  0.88192281  1
  Te  Te177  1  0.91901715  0.77234013  0.24712094  1
  Te  Te178  1  0.93700352  0.73525434  0.60143193  1
  Te  Te179  1  0.96981321  0.81367738  0.90422615  1
