# generated using pymatgen
data_In2Te3
_symmetry_space_group_name_H-M   'P 1'
_cell_length_a   18.74645020
_cell_length_b   18.74973042
_cell_length_c   18.75133399
_cell_angle_alpha   89.91356439
_cell_angle_beta   89.90060444
_cell_angle_gamma   90.08264232
_symmetry_Int_Tables_number   1
_chemical_formula_structural   In2Te3
_chemical_formula_sum   'In72 Te108'
_cell_volume   6590.89873001
_cell_formula_units_Z   36
loop_
 _symmetry_equiv_pos_site_id
 _symmetry_equiv_pos_as_xyz
  1  'x, y, z'
loop_
 _atom_site_type_symbol
 _atom_site_label
 _atom_site_symmetry_multiplicity
 _atom_site_fract_x
 _atom_site_fract_y
 _atom_site_fract_z
 _atom_site_occupancy
  In  In0  1  0.48419368  0.83982325  0.01920928  1
  In  In1  1  0.32757852  0.85040029  0.48262288  1
  In  In2  1  0.18280578  0.68277977  0.82822994  1
  In  In3  1  0.84959486  0.00761365  0.49434118  1
  In  In4  1  0.03037394  0.16485254  0.48933634  1
  In  In5  1  0.16998891  0.49461496  0.33966917  1
  In  In6  1  0.00854501  -0.01199696  0.33306632  1
  In  In7  1  -0.01057298  0.67847880  0.33114189  1
  In  In8  1  0.84099214  0.17961480  0.32557780  1
  In  In9  1  0.80644418  0.36139362  0.47150147  1
  In  In10  1  0.33436106  0.64964689  0.32145858  1
  In  In11  1  0.00740466  0.16672794  0.16987485  1
  In  In12  1  0.66021411  0.51066607  0.17578885  1
  In  In13  1  0.17081647  0.83925752  0.65796594  1
  In  In14  1  0.01668378  0.50158548  0.49593169  1
  In  In15  1  0.67073105  -0.00459131  0.00399904  1
  In  In16  1  0.82858615  0.51003896  0.01219882  1
  In  In17  1  0.64876138  0.16968534  0.83020537  1
  In  In18  1  0.02596018  0.46710109  0.83053458  1
  In  In19  1  0.00894854  0.31283946  0.65823630  1
  In  In20  1  0.65727965  0.35999026  0.00965450  1
  In  In21  1  0.34582364  0.66447192  0.64908674  1
  In  In22  1  0.33746433  0.68673765  -0.00699244  1
  In  In23  1  0.01751110  0.83085171  0.48983253  1
  In  In24  1  0.31156521  -0.00238499  0.32578503  1
  In  In25  1  0.48647550  0.35295129  0.48461626  1
  In  In26  1  0.65743416  0.85373969  0.84597499  1
  In  In27  1  0.67529507  0.48374352  0.85918873  1
  In  In28  1  0.17412721  0.32060259  0.81341795  1
  In  In29  1  0.16822308  0.00232429  0.17000438  1
  In  In30  1  -0.00720928  0.35374460  0.31385524  1
  In  In31  1  0.82815259  0.66830104  0.17434643  1
  In  In32  1  0.31642584  0.84872263  0.85516770  1
  In  In33  1  0.85420930  0.84828232  0.68362000  1
  In  In34  1  0.48576230  0.17974526  0.67431261  1
  In  In35  1  0.02407899  0.86845823  0.86352098  1
  In  In36  1  0.49594367  -0.01944102  0.50639845  1
  In  In37  1  0.49469626  0.32959440  0.17638394  1
  In  In38  1  0.82189306  0.32810259  0.83008643  1
  In  In39  1  0.69997961  -0.03729902  0.29434430  1
  In  In40  1  0.52678659  0.48958564  0.02494332  1
  In  In41  1  0.86186744  0.14422734  -0.01415405  1
  In  In42  1  0.52241709  0.64315080  0.48349958  1
  In  In43  1  0.16493130  0.32241490  0.17011550  1
  In  In44  1  0.52894327  0.80284345  0.30807278  1
  In  In45  1  0.16163967  0.49483600  -0.00769845  1
  In  In46  1  0.46328171  0.18469166  -0.02643094  1
  In  In47  1  0.01701704  0.31961734  0.01996956  1
  In  In48  1  0.66712538  -0.01103995  0.68708478  1
  In  In49  1  0.82822783  0.51740857  0.66356482  1
  In  In50  1  0.50103822  0.67087355  0.83846722  1
  In  In51  1  0.17530940  0.15535241  -0.00489852  1
  In  In52  1  0.66693792  0.66857803  0.64966305  1
  In  In53  1  0.33730018  0.02371620  0.67590000  1
  In  In54  1  0.82244985  0.64909812  0.85023334  1
  In  In55  1  0.65892272  0.18107438  0.49303138  1
  In  In56  1  0.49204142  0.02123499  0.15146066  1
  In  In57  1  0.83308105  0.15946355  0.65501490  1
  In  In58  1  0.82523298  0.83834488  0.02774109  1
  In  In59  1  0.67994396  0.17883157  0.17627160  1
  In  In60  1  0.00007722  0.68904467  0.02144423  1
  In  In61  1  0.29851881  0.17861686  0.49268607  1
  In  In62  1  0.49132120  0.17948819  0.33723198  1
  In  In63  1  0.31737492  0.84726146  0.17270214  1
  In  In64  1  0.15663464  0.13971640  0.69510352  1
  In  In65  1  0.34548305  0.50768234  0.17476422  1
  In  In66  1  0.32480706  0.47842323  0.83668567  1
  In  In67  1  0.49309206  0.47298386  0.67734757  1
  In  In68  1  0.83172696  0.66105187  0.46642928  1
  In  In69  1  0.01779991  0.65211868  0.64255904  1
  In  In70  1  0.66710890  0.80374066  0.49448937  1
  In  In71  1  0.15709459  0.68810110  0.17088270  1
  Te  Te72  1  0.06552721  0.07067051  0.06845338  1
  Te  Te73  1  0.10885021  0.07750072  0.39957414  1
  Te  Te74  1  0.05690535  0.07505115  0.78474303  1
  Te  Te75  1  0.07805613  0.43058384  0.10401917  1
  Te  Te76  1  0.09216056  0.39001743  0.42410252  1
  Te  Te77  1  0.11498023  0.42534902  0.70745343  1
  Te  Te78  1  0.07622083  0.79141331  0.09836795  1
  Te  Te79  1  0.09404521  0.72299940  0.42629158  1
  Te  Te80  1  0.07152210  0.75647268  0.75038154  1
  Te  Te81  1  0.39270436  0.09548014  0.07079427  1
  Te  Te82  1  0.41132793  0.08306166  0.43063365  1
  Te  Te83  1  0.41938279  0.09479264  0.77735388  1
  Te  Te84  1  0.40848059  0.40849111  0.07513526  1
  Te  Te85  1  0.37407745  0.41017198  0.40366896  1
  Te  Te86  1  0.39691535  0.37958882  0.74863690  1
  Te  Te87  1  0.41187651  0.74161673  0.11392022  1
  Te  Te88  1  0.42796355  0.75152347  0.41305646  1
  Te  Te89  1  0.39957367  0.75347354  0.76163663  1
  Te  Te90  1  0.76240592  0.08441741  0.08821569  1
  Te  Te91  1  0.74492139  0.08181629  0.41001301  1
  Te  Te92  1  0.75875081  0.08224392  0.76535041  1
  Te  Te93  1  0.76388792  0.40942040  0.11010675  1
  Te  Te94  1  0.72544267  0.45784018  0.39268435  1
  Te  Te95  1  0.73878361  0.41628658  0.73730406  1
  Te  Te96  1  0.72546164  0.74606357  0.09323857  1
  Te  Te97  1  0.74237230  0.74489262  0.38194588  1
  Te  Te98  1  0.74790136  0.75048989  0.75176038  1
  Te  Te99  1  0.08875306  0.23976587  0.27464874  1
  Te  Te100  1  0.12108367  0.24663618  0.58117003  1
  Te  Te101  1  0.07801561  0.24316512  0.90631774  1
  Te  Te102  1  0.08122383  0.58064034  0.24967826  1
  Te  Te103  1  0.12842074  0.57592004  0.56980930  1
  Te  Te104  1  0.07789720  0.59676919  0.91443937  1
  Te  Te105  1  0.08629504  0.89827450  0.24164325  1
  Te  Te106  1  0.06967481  0.92413323  0.59045826  1
  Te  Te107  1  0.12573131  0.95689911  0.94195689  1
  Te  Te108  1  0.39993796  0.22806251  0.23231146  1
  Te  Te109  1  0.40110559  0.25905934  0.57497201  1
  Te  Te110  1  0.39958155  0.26629073  0.86832865  1
  Te  Te111  1  0.44889070  0.57237545  0.26315503  1
  Te  Te112  1  0.42376217  0.56051739  0.56947528  1
  Te  Te113  1  0.41549422  0.57362173  0.92424050  1
  Te  Te114  1  0.42922933  0.92053997  0.26106243  1
  Te  Te115  1  0.40534776  0.90574529  0.60270014  1
  Te  Te116  1  0.41521646  0.93175840  0.92722403  1
  Te  Te117  1  0.74609830  0.27881096  0.26539377  1
  Te  Te118  1  0.75054240  0.26538076  0.58161927  1
  Te  Te119  1  0.74409687  0.24853346  0.93518850  1
  Te  Te120  1  0.75587847  0.57758119  0.27213593  1
  Te  Te121  1  0.73805348  0.57377197  0.55474169  1
  Te  Te122  1  0.71911791  0.59722446  0.95105236  1
  Te  Te123  1  0.80060838  0.89520496  0.19985382  1
  Te  Te124  1  0.75129254  0.91351884  0.58078537  1
  Te  Te125  1  0.77258222  0.92729778  0.91171476  1
  Te  Te126  1  0.25536872  0.24891732  0.07827491  1
  Te  Te127  1  0.27454751  0.29700046  0.40665037  1
  Te  Te128  1  0.26923939  0.22106407  0.75460745  1
  Te  Te129  1  0.24523661  0.58864084  0.08252949  1
  Te  Te130  1  0.27420684  0.56055969  0.42528581  1
  Te  Te131  1  0.25653294  0.57986365  0.74424511  1
  Te  Te132  1  0.26400642  0.94028311  0.07126377  1
  Te  Te133  1  0.21881586  0.92704967  0.41826953  1
  Te  Te134  1  0.23600396  0.93518422  0.75766879  1
  Te  Te135  1  0.57792628  0.23981329  0.07641377  1
  Te  Te136  1  0.59234169  0.27713762  0.39667102  1
  Te  Te137  1  0.59417265  0.26369252  0.73112552  1
  Te  Te138  1  0.56825117  0.60839577  0.10544350  1
  Te  Te139  1  0.59926033  0.55374869  0.39482739  1
  Te  Te140  1  0.58984156  0.58058732  0.75176857  1
  Te  Te141  1  0.58981218  0.91345497  0.10449703  1
  Te  Te142  1  0.59339876  0.91461620  0.40924333  1
  Te  Te143  1  0.55937826  0.91525973  0.75516335  1
  Te  Te144  1  0.90333818  0.24874142  0.09237572  1
  Te  Te145  1  0.91664498  0.25444377  0.43598162  1
  Te  Te146  1  0.92027748  0.23701708  0.75800999  1
  Te  Te147  1  0.93127638  0.57834209  0.10087368  1
  Te  Te148  1  0.91782963  0.55678952  0.39433866  1
  Te  Te149  1  0.92956810  0.57970774  0.76005947  1
  Te  Te150  1  0.91171916  0.93028409  0.10319709  1
  Te  Te151  1  0.90546772  0.89611474  0.40871451  1
  Te  Te152  1  0.94085803  0.94513124  0.75886006  1
  Te  Te153  1  0.25075613  0.10358001  0.24335846  1
  Te  Te154  1  0.23297381  0.06880905  0.57592171  1
  Te  Te155  1  0.22945734  0.05578828  0.89738754  1
  Te  Te156  1  0.26753630  0.40159623  0.25251548  1
  Te  Te157  1  0.20691600  0.44425475  0.58686444  1
  Te  Te158  1  0.24833522  0.38637378  0.93349038  1
  Te  Te159  1  0.24147670  0.76183801  0.27531160  1
  Te  Te160  1  0.24743516  0.74571464  0.56455419  1
  Te  Te161  1  0.21962827  0.77066378  0.94797112  1
  Te  Te162  1  0.58999393  0.08376928  0.25939490  1
  Te  Te163  1  0.58392049  0.08152666  0.58536034  1
  Te  Te164  1  0.57092999  0.07879714  0.92462537  1
  Te  Te165  1  0.55417305  0.43871064  0.26088823  1
  Te  Te166  1  0.58425173  0.41328489  0.57792421  1
  Te  Te167  1  0.55755788  0.39803443  0.90079262  1
  Te  Te168  1  0.61941913  0.73187075  0.21611429  1
  Te  Te169  1  0.55822818  0.75566343  0.59057653  1
  Te  Te170  1  0.58280846  0.75430321  0.93529399  1
  Te  Te171  1  0.91201399  0.07198850  0.24630408  1
  Te  Te172  1  0.94555701  0.07986419  0.58712391  1
  Te  Te173  1  0.95118460  0.06145575  0.90226350  1
  Te  Te174  1  0.88381571  0.39007111  0.22553428  1
  Te  Te175  1  0.91799480  0.41756006  0.58762884  1
  Te  Te176  1  0.91139727  0.41328697  0.92382088  1
  Te  Te177  1  0.92013884  0.77036880  0.23549005  1
  Te  Te178  1  0.90137372  0.73870070  0.58544001  1
  Te  Te179  1  0.91456587  0.75675251  0.91243150  1
