# generated using pymatgen
data_In2Te3
_symmetry_space_group_name_H-M   'P 1'
_cell_length_a   19.02229206
_cell_length_b   18.98958498
_cell_length_c   19.02362587
_cell_angle_alpha   89.83916380
_cell_angle_beta   90.11310104
_cell_angle_gamma   90.20390726
_symmetry_Int_Tables_number   1
_chemical_formula_structural   In2Te3
_chemical_formula_sum   'In72 Te108'
_cell_volume   6871.73361813
_cell_formula_units_Z   36
loop_
 _symmetry_equiv_pos_site_id
 _symmetry_equiv_pos_as_xyz
  1  'x, y, z'
loop_
 _atom_site_type_symbol
 _atom_site_label
 _atom_site_symmetry_multiplicity
 _atom_site_fract_x
 _atom_site_fract_y
 _atom_site_fract_z
 _atom_site_occupancy
  In  In0  1  -0.00346000  0.33314133  0.33428412  1
  In  In1  1  0.69748251  0.67946883  0.33885208  1
  In  In2  1  0.33401379  0.65038520  0.65929046  1
  In  In3  1  0.79565943  0.47415065  0.02904330  1
  In  In4  1  0.17111642  0.51133960  0.00103717  1
  In  In5  1  0.02871882  -0.03259806  0.30423415  1
  In  In6  1  -0.00348402  0.50285022  0.48887093  1
  In  In7  1  0.35134731  0.49661460  0.82548598  1
  In  In8  1  0.32963546  0.31015670  0.00050105  1
  In  In9  1  0.33855395  0.82986797  0.14816225  1
  In  In10  1  0.50696144  0.20235985  0.31596809  1
  In  In11  1  0.63128786  0.51917581  0.84941208  1
  In  In12  1  0.17345604  0.85304922  0.02439256  1
  In  In13  1  0.84510536  0.85439747  0.66762162  1
  In  In14  1  0.16358111  0.51133701  0.34166135  1
  In  In15  1  0.34479646  0.14870885  0.49060209  1
  In  In16  1  0.86206754  0.33500113  0.49008822  1
  In  In17  1  0.32339687  0.66983965  0.32833963  1
  In  In18  1  0.00304274  0.49647717  0.80927021  1
  In  In19  1  0.00464918  0.68176235  0.67457754  1
  In  In20  1  0.50297539  0.84306400  0.69338820  1
  In  In21  1  0.15027619  -0.00914599  0.53073791  1
  In  In22  1  0.16532573  0.01083733  0.82487235  1
  In  In23  1  0.48877342  0.32788681  0.48566362  1
  In  In24  1  0.79396778  -0.02323341  0.86819423  1
  In  In25  1  0.82134427  0.66582762  0.16288865  1
  In  In26  1  0.00052583  0.17138377  0.15539492  1
  In  In27  1  0.17252500  0.29816344  0.83970115  1
  In  In28  1  0.82880871  0.19026335  0.31549377  1
  In  In29  1  0.66930471  0.15054333  0.83680664  1
  In  In30  1  0.49155437  0.33509448  0.16107018  1
  In  In31  1  0.32550923  0.83462226  0.53868639  1
  In  In32  1  0.66688689  0.34633350  0.29108546  1
  In  In33  1  0.52288701  0.00220088  0.49840896  1
  In  In34  1  0.90084253  0.16502866  0.66753054  1
  In  In35  1  0.67989568  0.15393793  0.51049555  1
  In  In36  1  0.85427749  0.50569252  0.30514881  1
  In  In37  1  0.32086409  -0.01264806  0.33250529  1
  In  In38  1  0.20210155  0.47629838  0.67089373  1
  In  In39  1  -0.00658599  0.68893093  0.32838708  1
  In  In40  1  0.83473621  0.68623766  0.84881476  1
  In  In41  1  0.65489877  0.68065743  0.01956995  1
  In  In42  1  0.66006242  0.31390789  0.67435944  1
  In  In43  1  0.85743093  0.00603364  0.47707453  1
  In  In44  1  0.33324348  0.30303217  0.67986311  1
  In  In45  1  0.82696530  0.33550369  0.81567823  1
  In  In46  1  0.66145030  0.66775806  0.68834306  1
  In  In47  1  0.16598910  0.15300378  0.32918509  1
  In  In48  1  0.50615651  -0.00040065  0.14240653  1
  In  In49  1  0.32437962  0.52396131  0.17769610  1
  In  In50  1  0.49430075  0.17008220  -0.00605263  1
  In  In51  1  0.83310600  0.48472930  0.63539821  1
  In  In52  1  0.51541076  0.80241575  0.31781814  1
  In  In53  1  0.64804637  0.48493960  0.47211355  1
  In  In54  1  0.49768232  0.83679872  -0.00577708  1
  In  In55  1  0.15227042  0.67401711  0.18761948  1
  In  In56  1  0.63868202  -0.00679594  0.30932033  1
  In  In57  1  -0.01147006  0.67529251  0.01180374  1
  In  In58  1  0.68300223  -0.00752479  0.68911447  1
  In  In59  1  0.51021153  0.50046013  -0.00511135  1
  In  In60  1  0.16250009  0.71093149  0.84513816  1
  In  In61  1  0.82492261  0.16211603  0.00627709  1
  In  In62  1  0.50246333  0.67267178  0.51725992  1
  In  In63  1  -0.00950663  0.00897122  0.00708177  1
  In  In64  1  0.81327545  0.00353962  0.15310182  1
  In  In65  1  0.81595526  0.69668532  0.52028259  1
  In  In66  1  0.47995141  0.67214877  0.83390976  1
  In  In67  1  0.01381898  0.34591216  -0.01782456  1
  In  In68  1  0.15171024  0.66021761  0.48815531  1
  In  In69  1  0.17953756  0.14452425  0.00501439  1
  In  In70  1  0.33202044  0.32899513  0.33507968  1
  In  In71  1  0.34617007  0.03137436  0.71509600  1
  Te  Te72  1  0.09304733  0.06523732  0.10351859  1
  Te  Te73  1  0.08120675  0.06076251  0.41230789  1
  Te  Te74  1  0.09671079  0.11747733  0.74724485  1
  Te  Te75  1  0.08367728  0.42781732  0.08104965  1
  Te  Te76  1  0.09427226  0.40637824  0.42731937  1
  Te  Te77  1  0.09672135  0.39760836  0.74605739  1
  Te  Te78  1  0.06529634  0.76807875  0.10583253  1
  Te  Te79  1  0.08627527  0.76466389  0.41164826  1
  Te  Te80  1  0.07714742  0.78695438  0.75078528  1
  Te  Te81  1  0.40669981  0.08556710  0.07867499  1
  Te  Te82  1  0.44321739  0.08199859  0.39588407  1
  Te  Te83  1  0.43339721  0.13038550  0.77928905  1
  Te  Te84  1  0.39320754  0.42611733  0.07741152  1
  Te  Te85  1  0.42762646  0.42544438  0.39371243  1
  Te  Te86  1  0.42341043  0.38795500  0.76181401  1
  Te  Te87  1  0.44179809  0.74260424  0.09363701  1
  Te  Te88  1  0.40537453  0.76044234  0.43030668  1
  Te  Te89  1  0.39075904  0.76096666  0.75124033  1
  Te  Te90  1  0.72077205  0.08189149  0.06999883  1
  Te  Te91  1  0.74268148  0.07813425  0.39476612  1
  Te  Te92  1  0.77244872  0.10418054  0.73570254  1
  Te  Te93  1  0.71069735  0.37421803  0.09143568  1
  Te  Te94  1  0.76531704  0.41195296  0.40477899  1
  Te  Te95  1  0.73631823  0.43509360  0.74254877  1
  Te  Te96  1  0.77422950  0.76100739  0.05595742  1
  Te  Te97  1  0.75665571  0.78481371  0.42195305  1
  Te  Te98  1  0.74902941  0.76959311  0.75577375  1
  Te  Te99  1  0.08994300  0.25428537  0.24538798  1
  Te  Te100  1  0.04211232  0.16274781  0.60840760  1
  Te  Te101  1  0.07414090  0.22064718  0.92386445  1
  Te  Te102  1  0.05848300  0.57392788  0.25360042  1
  Te  Te103  1  0.07951189  0.57312165  0.59686327  1
  Te  Te104  1  0.07217459  0.59207852  0.90569093  1
  Te  Te105  1  0.11088050  0.87924112  0.22448444  1
  Te  Te106  1  0.11436250  0.91222352  0.65054643  1
  Te  Te107  1  0.08645451  0.92593332  0.92425508  1
  Te  Te108  1  0.39122364  0.24111174  0.22764921  1
  Te  Te109  1  0.43206741  0.22879079  0.58254776  1
  Te  Te110  1  0.39176453  0.22562022  0.89550895  1
  Te  Te111  1  0.42232158  0.61830597  0.23427243  1
  Te  Te112  1  0.42274167  0.56723118  0.58063498  1
  Te  Te113  1  0.40258758  0.59006025  0.93295095  1
  Te  Te114  1  0.43086185  0.90975473  0.25116374  1
  Te  Te115  1  0.42635288  0.93629059  0.59643137  1
  Te  Te116  1  0.46979436  0.94603991  0.89698429  1
  Te  Te117  1  0.74879832  0.25660514  0.20874986  1
  Te  Te118  1  0.76632718  0.25718156  0.58176971  1
  Te  Te119  1  0.74483591  0.25751631  0.91403771  1
  Te  Te120  1  0.73343885  0.56597160  0.24247117  1
  Te  Te121  1  0.72340491  0.57881392  0.57424975  1
  Te  Te122  1  0.74824055  0.57987291  0.92272913  1
  Te  Te123  1  0.72964835  0.90739131  0.23347124  1
  Te  Te124  1  0.75672076  0.93330573  0.57249104  1
  Te  Te125  1  0.73247763  0.90222154  0.97830495  1
  Te  Te126  1  0.22386591  0.25902653  0.08560534  1
  Te  Te127  1  0.24664275  0.24078160  0.42461985  1
  Te  Te128  1  0.22291042  0.21240647  0.72883455  1
  Te  Te129  1  0.24417774  0.61426289  0.08455987  1
  Te  Te130  1  0.26445896  0.57683890  0.43274424  1
  Te  Te131  1  0.23634606  0.58942438  0.76701681  1
  Te  Te132  1  0.29078494  0.93964572  0.06019059  1
  Te  Te133  1  0.24344770  0.91221725  0.43649280  1
  Te  Te134  1  0.24709506  0.92029318  0.73473191  1
  Te  Te135  1  0.58202992  0.27026876  0.06505319  1
  Te  Te136  1  0.61129806  0.25465001  0.41482758  1
  Te  Te137  1  0.57059036  0.22665546  0.75330940  1
  Te  Te138  1  0.59847238  0.56631542  0.09030134  1
  Te  Te139  1  0.58045249  0.60347526  0.40786576  1
  Te  Te140  1  0.54887893  0.57842134  0.73699230  1
  Te  Te141  1  0.60435624  0.91490725  0.06919664  1
  Te  Te142  1  0.58810087  0.89613506  0.41671441  1
  Te  Te143  1  0.58419242  0.93016821  0.78420944  1
  Te  Te144  1  0.91711743  0.26357694  0.07033191  1
  Te  Te145  1  0.93274731  0.22272447  0.42228731  1
  Te  Te146  1  0.94272601  0.26230026  0.76927302  1
  Te  Te147  1  0.90610582  0.56965480  0.08160045  1
  Te  Te148  1  0.89391508  0.59255499  0.42824487  1
  Te  Te149  1  0.89569109  0.59070838  0.73393883  1
  Te  Te150  1  0.90865696  0.91693270  0.08518089  1
  Te  Te151  1  0.93100637  0.90871336  0.39720932  1
  Te  Te152  1  0.90206181  0.92008714  0.78622272  1
  Te  Te153  1  0.25128828  0.07422702  0.24114360  1
  Te  Te154  1  0.26397092  0.07270469  0.59118293  1
  Te  Te155  1  0.26360803  0.04935470  0.92912567  1
  Te  Te156  1  0.24172008  0.42081279  0.25086799  1
  Te  Te157  1  0.28197758  0.39851478  0.57972098  1
  Te  Te158  1  0.24398846  0.41472037  0.90674635  1
  Te  Te159  1  0.24037930  0.77754396  0.25946199  1
  Te  Te160  1  0.22671891  0.73667371  0.59675534  1
  Te  Te161  1  0.25779384  0.77206703  0.93480104  1
  Te  Te162  1  0.58162125  0.10671497  0.22720946  1
  Te  Te163  1  0.58874307  0.08308487  0.60648303  1
  Te  Te164  1  0.57059981  0.06537767  0.91465933  1
  Te  Te165  1  0.54474955  0.42308061  0.26826785  1
  Te  Te166  1  0.58007349  0.40512278  0.58218216  1
  Te  Te167  1  0.55715498  0.40250791  0.89585919  1
  Te  Te168  1  0.63203183  0.76769016  0.23614706  1
  Te  Te169  1  0.59078026  0.76721973  0.59674552  1
  Te  Te170  1  0.58885764  0.74834062  0.90208728  1
  Te  Te171  1  0.91487778  0.08642052  0.24714299  1
  Te  Te172  1  0.94518838  0.03961943  0.59393498  1
  Te  Te173  1  0.90074896  0.07933999  0.90650407  1
  Te  Te174  1  0.90808217  0.39174680  0.23378298  1
  Te  Te175  1  0.95005839  0.39866045  0.59462766  1
  Te  Te176  1  0.90825170  0.43403210  0.91063725  1
  Te  Te177  1  0.89153853  0.75829770  0.25225522  1
  Te  Te178  1  0.93520922  0.77281880  0.57546583  1
  Te  Te179  1  0.93616391  0.76909184  0.91162116  1
