# generated using pymatgen
data_In2Te3
_symmetry_space_group_name_H-M   'P 1'
_cell_length_a   18.91488390
_cell_length_b   18.90303398
_cell_length_c   18.90563423
_cell_angle_alpha   90.10883692
_cell_angle_beta   89.93580615
_cell_angle_gamma   89.97683908
_symmetry_Int_Tables_number   1
_chemical_formula_structural   In2Te3
_chemical_formula_sum   'In72 Te108'
_cell_volume   6759.66781376
_cell_formula_units_Z   36
loop_
 _symmetry_equiv_pos_site_id
 _symmetry_equiv_pos_as_xyz
  1  'x, y, z'
loop_
 _atom_site_type_symbol
 _atom_site_label
 _atom_site_symmetry_multiplicity
 _atom_site_fract_x
 _atom_site_fract_y
 _atom_site_fract_z
 _atom_site_occupancy
  In  In0  1  0.16634037  -0.01011214  0.82628373  1
  In  In1  1  0.83193724  0.83243946  0.00554548  1
  In  In2  1  0.30788793  0.16279437  0.51009408  1
  In  In3  1  0.86269394  0.34493526  0.86964994  1
  In  In4  1  -0.00737188  0.63416468  -0.01433746  1
  In  In5  1  0.32279997  -0.00086144  -0.00713670  1
  In  In6  1  0.83297707  0.17132720  0.32200615  1
  In  In7  1  0.02209021  0.18021334  0.13629694  1
  In  In8  1  0.33223311  0.85203537  0.50946940  1
  In  In9  1  0.14673119  0.82175045  0.65761512  1
  In  In10  1  0.65700961  0.68486778  0.67955651  1
  In  In11  1  0.49151604  -0.00778301  0.83776877  1
  In  In12  1  0.33540760  0.49822986  0.51370243  1
  In  In13  1  0.84687646  0.48925668  0.66809345  1
  In  In14  1  0.48430769  0.33834593  0.84625771  1
  In  In15  1  0.00116165  -0.00278319  0.65005827  1
  In  In16  1  0.31625901  0.68011968  0.32761551  1
  In  In17  1  0.16754100  0.50148316  0.68619036  1
  In  In18  1  0.67772596  0.50451485  0.82855081  1
  In  In19  1  -0.00751501  0.15782760  0.48045708  1
  In  In20  1  0.00152691  0.34792840  0.67883729  1
  In  In21  1  0.52211913  0.49312355  0.68738044  1
  In  In22  1  0.66475140  0.81497739  0.17414306  1
  In  In23  1  0.51674329  0.33724197  0.50133485  1
  In  In24  1  0.85175719  0.65856943  0.50457934  1
  In  In25  1  0.85729347  0.18223397  -0.00349078  1
  In  In26  1  -0.00064875  0.81844579  0.47804180  1
  In  In27  1  -0.00468303  -0.02249678  -0.01231521  1
  In  In28  1  0.17091199  -0.01042158  0.17389791  1
  In  In29  1  0.46899049  -0.00009279  0.16385712  1
  In  In30  1  0.65600177  0.00746819  -0.02490927  1
  In  In31  1  0.32880707  -0.01646247  0.32613996  1
  In  In32  1  0.50125317  -0.01617842  0.51247342  1
  In  In33  1  0.47995383  0.14920328  0.68074944  1
  In  In34  1  0.13711996  0.52887937  0.29970360  1
  In  In35  1  0.01390785  0.83166182  0.82948479  1
  In  In36  1  0.47334777  0.53340043  -0.00808434  1
  In  In37  1  0.68740539  0.65211170  0.00778424  1
  In  In38  1  0.18050363  0.16494035  0.68775611  1
  In  In39  1  0.65978551  0.30869059  0.66190565  1
  In  In40  1  0.65172803  0.84802935  0.84200625  1
  In  In41  1  0.47538181  0.16175116  0.30940651  1
  In  In42  1  0.15903375  0.66750376  0.14425232  1
  In  In43  1  0.86770968  0.81836377  0.31446545  1
  In  In44  1  0.01806224  0.65769764  0.68635178  1
  In  In45  1  0.65824094  0.16900314  0.17823722  1
  In  In46  1  0.67164819  0.67572868  0.32715235  1
  In  In47  1  0.47988926  0.67486694  0.13172770  1
  In  In48  1  0.83012355  -0.00808004  0.15852759  1
  In  In49  1  0.86535943  0.50099983  0.33791207  1
  In  In50  1  0.47916848  0.84944004  0.00857601  1
  In  In51  1  0.30165843  0.33375201  0.01736178  1
  In  In52  1  0.49615776  0.53273560  0.35339046  1
  In  In53  1  0.31027528  0.29593698  0.69697063  1
  In  In54  1  0.80856767  0.84008776  0.67234556  1
  In  In55  1  0.01957377  0.32502993  0.29447193  1
  In  In56  1  0.01142218  0.19624789  0.87148390  1
  In  In57  1  0.15441635  0.32034677  0.48699665  1
  In  In58  1  0.50699492  0.33724749  0.18053535  1
  In  In59  1  0.70209367  0.34113797  0.34858031  1
  In  In60  1  0.14559905  0.67025318  0.49180657  1
  In  In61  1  0.70017118  0.48258188  0.17501507  1
  In  In62  1  0.80813222  0.14727329  0.68291194  1
  In  In63  1  0.35800256  0.70486880  0.69616523  1
  In  In64  1  0.34718823  0.51848632  0.86314069  1
  In  In65  1  0.51833699  0.68171369  0.50593254  1
  In  In66  1  0.67935229  0.33325176  0.00481465  1
  In  In67  1  0.01682411  0.00511410  0.33429152  1
  In  In68  1  0.30698291  0.36104868  0.29012968  1
  In  In69  1  0.31262985  0.54045484  0.11951636  1
  In  In70  1  0.68103353  0.17233744  0.48957554  1
  In  In71  1  0.65770367  0.83758971  0.51130774  1
  Te  Te72  1  0.09081875  0.06521407  0.06490792  1
  Te  Te73  1  0.10432842  0.08914591  0.41696859  1
  Te  Te74  1  0.06316357  0.08467146  0.75883873  1
  Te  Te75  1  0.03644154  0.38231677  0.06588752  1
  Te  Te76  1  0.08658695  0.41936456  0.39757801  1
  Te  Te77  1  0.10648740  0.39594876  0.77039569  1
  Te  Te78  1  0.06969444  0.74205899  0.05248205  1
  Te  Te79  1  0.09663294  0.75640531  0.38175445  1
  Te  Te80  1  0.11530521  0.73050088  0.77775041  1
  Te  Te81  1  0.42168950  0.08916307  0.05823594  1
  Te  Te82  1  0.41573361  0.08878026  0.42865159  1
  Te  Te83  1  0.39032896  0.07685746  0.76985810  1
  Te  Te84  1  0.41980236  0.42488833  0.08814083  1
  Te  Te85  1  0.41170464  0.41235657  0.40755473  1
  Te  Te86  1  0.40095268  0.41877057  0.74323317  1
  Te  Te87  1  0.36932238  0.76462816  0.08115947  1
  Te  Te88  1  0.41236813  0.75038993  0.42279749  1
  Te  Te89  1  0.43910428  0.77642560  0.79463068  1
  Te  Te90  1  0.75050691  0.09252726  0.07590161  1
  Te  Te91  1  0.74386977  0.08110336  0.39417429  1
  Te  Te92  1  0.71588916  0.06115328  0.75123294  1
  Te  Te93  1  0.78086270  0.42836603  0.06086608  1
  Te  Te94  1  0.77167412  0.43651405  0.43267766  1
  Te  Te95  1  0.75267403  0.39491831  0.75459025  1
  Te  Te96  1  0.77339262  0.73396313  0.10531564  1
  Te  Te97  1  0.76493350  0.75372200  0.42140513  1
  Te  Te98  1  0.75179798  0.74775705  0.77884021  1
  Te  Te99  1  0.12247425  0.23692828  0.23222433  1
  Te  Te100  1  0.08057447  0.23483198  0.58975124  1
  Te  Te101  1  0.09362730  0.26259757  0.98343313  1
  Te  Te102  1  0.04236640  0.58726492  0.20029355  1
  Te  Te103  1  0.07818996  0.56630074  0.58046287  1
  Te  Te104  1  0.04907275  0.55009132  0.87440432  1
  Te  Te105  1  0.06941188  0.90484788  0.24159878  1
  Te  Te106  1  0.08810409  0.91734164  0.55530228  1
  Te  Te107  1  0.10955172  0.89347651  0.93103216  1
  Te  Te108  1  0.38864384  0.25031020  0.22084001  1
  Te  Te109  1  0.41577732  0.25967679  0.58389117  1
  Te  Te110  1  0.39564595  0.25967850  0.93079979  1
  Te  Te111  1  0.40361665  0.57928596  0.24097462  1
  Te  Te112  1  0.43549314  0.58270230  0.59239688  1
  Te  Te113  1  0.41981414  0.65003688  0.90799301  1
  Te  Te114  1  0.41805865  0.89489422  0.25001845  1
  Te  Te115  1  0.40778483  0.92620179  0.61081100  1
  Te  Te116  1  0.38521919  0.88621214  0.89336864  1
  Te  Te117  1  0.75986419  0.27055869  0.22871382  1
  Te  Te118  1  0.77281045  0.25675931  0.57490126  1
  Te  Te119  1  0.74867845  0.24161793  0.90769434  1
  Te  Te120  1  0.77167657  0.59160045  0.25033487  1
  Te  Te121  1  0.75404562  0.59543717  0.60430121  1
  Te  Te122  1  0.77773286  0.57502694  0.91492904  1
  Te  Te123  1  0.75312518  0.90626190  0.25712685  1
  Te  Te124  1  0.75050207  0.93141852  0.57508708  1
  Te  Te125  1  0.76756261  0.92981664  0.90924625  1
  Te  Te126  1  0.20594825  0.24206773  0.08625119  1
  Te  Te127  1  0.26459058  0.26117002  0.40074774  1
  Te  Te128  1  0.23120709  0.23755869  0.80744901  1
  Te  Te129  1  0.19733535  0.56531827  0.02491470  1
  Te  Te130  1  0.24655409  0.56539855  0.40930126  1
  Te  Te131  1  0.26842403  0.59430729  0.75330869  1
  Te  Te132  1  0.26171977  0.90430777  0.08887676  1
  Te  Te133  1  0.23750741  0.91446111  0.41820824  1
  Te  Te134  1  0.24211134  0.90017153  0.73609818  1
  Te  Te135  1  0.57581241  0.24842343  0.07808040  1
  Te  Te136  1  0.57752882  0.24913580  0.39168647  1
  Te  Te137  1  0.57085607  0.24196243  0.76299302  1
  Te  Te138  1  0.59122742  0.57121398  0.10057442  1
  Te  Te139  1  0.61251018  0.58522427  0.43505984  1
  Te  Te140  1  0.57356283  0.60307814  0.77828327  1
  Te  Te141  1  0.59612262  0.91965720  0.08744513  1
  Te  Te142  1  0.57060914  0.90165285  0.41297223  1
  Te  Te143  1  0.60532238  0.95166913  0.74356118  1
  Te  Te144  1  0.91787315  0.28099744  0.09052821  1
  Te  Te145  1  0.92247377  0.26447552  0.40079471  1
  Te  Te146  1  0.91342002  0.24784022  0.75594891  1
  Te  Te147  1  0.87600796  0.56043911  0.04284911  1
  Te  Te148  1  0.95094391  0.60524854  0.40655111  1
  Te  Te149  1  0.92483005  0.57153994  0.76523800  1
  Te  Te150  1  0.93296937  0.89573597  0.10123679  1
  Te  Te151  1  0.91236979  0.92483463  0.41306606  1
  Te  Te152  1  0.91781892  0.91758169  0.74841650  1
  Te  Te153  1  0.26140428  0.08333872  0.24315413  1
  Te  Te154  1  0.25672866  0.06714375  0.60822717  1
  Te  Te155  1  0.24509512  0.09034840  0.90348939  1
  Te  Te156  1  0.21904306  0.44379483  0.20195769  1
  Te  Te157  1  0.24328493  0.39964273  0.58603109  1
  Te  Te158  1  0.24084581  0.43357462  0.92425548  1
  Te  Te159  1  0.22687807  0.75691807  0.24148045  1
  Te  Te160  1  0.25437724  0.72639782  0.58005677  1
  Te  Te161  1  0.28461871  0.68400973  0.97563130  1
  Te  Te162  1  0.58042535  0.06623706  0.25508877  1
  Te  Te163  1  0.58141917  0.09892247  0.57673991  1
  Te  Te164  1  0.54791926  0.09493793  0.92930249  1
  Te  Te165  1  0.58596005  0.42992380  0.27213275  1
  Te  Te166  1  0.60905272  0.42778055  0.58038893  1
  Te  Te167  1  0.58131287  0.42974114  0.92416558  1
  Te  Te168  1  0.55737072  0.73971377  0.25020189  1
  Te  Te169  1  0.56026450  0.77977943  0.61407508  1
  Te  Te170  1  0.59587046  0.76060017  0.95483763  1
  Te  Te171  1  0.92497113  0.09189670  0.22856773  1
  Te  Te172  1  0.90088273  0.08260620  0.57532674  1
  Te  Te173  1  0.91718127  0.07744088  0.90471631  1
  Te  Te174  1  0.93518731  0.42797445  0.22894897  1
  Te  Te175  1  0.93408805  0.42152361  0.57146450  1
  Te  Te176  1  0.98033977  0.41939721  0.92375727  1
  Te  Te177  1  0.96221362  0.70947245  0.28172306  1
  Te  Te178  1  0.92900008  0.75377163  0.60362884  1
  Te  Te179  1  0.91619809  0.74976183  0.91074916  1
