# generated using pymatgen
data_In2Te3
_symmetry_space_group_name_H-M   'P 1'
_cell_length_a   18.94532916
_cell_length_b   18.92383685
_cell_length_c   18.92518988
_cell_angle_alpha   89.95728948
_cell_angle_beta   89.99147553
_cell_angle_gamma   90.00592742
_symmetry_Int_Tables_number   1
_chemical_formula_structural   In2Te3
_chemical_formula_sum   'In72 Te108'
_cell_volume   6785.02524885
_cell_formula_units_Z   36
loop_
 _symmetry_equiv_pos_site_id
 _symmetry_equiv_pos_as_xyz
  1  'x, y, z'
loop_
 _atom_site_type_symbol
 _atom_site_label
 _atom_site_symmetry_multiplicity
 _atom_site_fract_x
 _atom_site_fract_y
 _atom_site_fract_z
 _atom_site_occupancy
  In  In0  1  0.31946215  0.65447845  0.32276796  1
  In  In1  1  0.82690182  0.65912048  0.15956374  1
  In  In2  1  -0.02184200  0.80890586  0.51024614  1
  In  In3  1  0.15203179  0.18299740  0.66938279  1
  In  In4  1  0.14662905  0.50622556  -0.00536128  1
  In  In5  1  0.17051329  0.33517250  0.81509961  1
  In  In6  1  0.17416867  0.17812209  0.35588814  1
  In  In7  1  0.84390612  -0.00712179  0.18141369  1
  In  In8  1  0.82047195  0.02834352  0.47934215  1
  In  In9  1  0.16042008  0.03275337  0.82974823  1
  In  In10  1  0.35577722  -0.00032873  0.67378168  1
  In  In11  1  0.65253430  0.87540241  0.16594199  1
  In  In12  1  0.33948778  0.86729087  0.19444174  1
  In  In13  1  0.52244650  0.29521265  0.80177272  1
  In  In14  1  0.15465828  0.83451344  0.02700821  1
  In  In15  1  0.47975750  0.64803225  0.81626000  1
  In  In16  1  0.14811931  0.64108968  0.18953220  1
  In  In17  1  0.50637425  0.84766427  0.35571563  1
  In  In18  1  0.16687226  0.83257543  0.38082515  1
  In  In19  1  0.84648220  0.33543913  0.81297171  1
  In  In20  1  0.17705323  0.17820459  0.00456196  1
  In  In21  1  0.35585316  0.30690770  0.00066737  1
  In  In22  1  0.66501884  0.49820823  0.15839904  1
  In  In23  1  0.63478205  0.14125559  0.18764225  1
  In  In24  1  0.51698049  0.31896779  0.49324651  1
  In  In25  1  0.00449527  0.34678881  -0.01395947  1
  In  In26  1  0.66694749  0.68188189  -0.01850417  1
  In  In27  1  0.33894012  0.15724969  0.49654927  1
  In  In28  1  -0.00753251  0.48962395  0.16762702  1
  In  In29  1  0.68981056  0.81354877  0.54274696  1
  In  In30  1  0.49824486  0.46732255  0.66192826  1
  In  In31  1  0.83244154  -0.00909553  0.83204348  1
  In  In32  1  0.82646544  0.32867416  0.51162520  1
  In  In33  1  0.82991141  0.83458059  -0.03216125  1
  In  In34  1  0.81778821  0.83673652  0.31533454  1
  In  In35  1  0.32150378  0.69684576  0.03935846  1
  In  In36  1  -0.00839760  0.32482324  0.33950683  1
  In  In37  1  0.65031680  0.33359045  0.00253255  1
  In  In38  1  -0.00389120  0.81611609  0.80628975  1
  In  In39  1  0.50286949  0.31362351  0.17977061  1
  In  In40  1  0.36632141  0.47741082  0.85197903  1
  In  In41  1  0.18822397  0.02135901  0.15551487  1
  In  In42  1  0.32430700  0.48212733  0.50719617  1
  In  In43  1  0.15452727  0.47777667  0.65925008  1
  In  In44  1  0.85112381  0.47961071  0.36367032  1
  In  In45  1  -0.00240288  0.17162296  0.15803502  1
  In  In46  1  0.68963729  0.50023620  0.80858564  1
  In  In47  1  0.51968941  0.51783009  0.36250442  1
  In  In48  1  0.50367325  0.01021549  0.51025357  1
  In  In49  1  0.67054191  0.00229562  -0.02744616  1
  In  In50  1  0.02571154  0.81571805  0.17198132  1
  In  In51  1  0.66446306  0.67466896  0.35157652  1
  In  In52  1  0.52687609  0.51065246  -0.00112655  1
  In  In53  1  0.84561816  0.17104451  0.67014652  1
  In  In54  1  -0.01213472  0.51823114  0.52655372  1
  In  In55  1  0.36916316  0.14614307  0.17712484  1
  In  In56  1  0.50864941  0.67939214  0.51074857  1
  In  In57  1  0.82979586  0.65836244  0.79907373  1
  In  In58  1  0.33767687  0.83401530  0.84421412  1
  In  In59  1  0.34847557  0.48615944  0.19923458  1
  In  In60  1  0.82410210  0.18176495  -0.02272001  1
  In  In61  1  0.16053188  -0.00172108  0.49046580  1
  In  In62  1  0.51127528  0.84527149  -0.00676452  1
  In  In63  1  0.75388917  0.21470135  0.34975625  1
  In  In64  1  0.02889957  0.01160531  0.35429663  1
  In  In65  1  0.15956423  0.63275758  0.83281988  1
  In  In66  1  0.16866596  0.83858436  0.64330940  1
  In  In67  1  0.66441834  0.02060413  0.64790137  1
  In  In68  1  0.29453915  0.66687039  0.65135184  1
  In  In69  1  0.15466686  0.46681014  0.35056237  1
  In  In70  1  0.51489988  0.03388919  0.80011629  1
  In  In71  1  -0.02958609  -0.00835410  -0.02797136  1
  Te  Te72  1  0.06715224  0.06731244  0.07068779  1
  Te  Te73  1  0.06811021  0.12439424  0.45808388  1
  Te  Te74  1  0.06606205  0.07831941  0.72953991  1
  Te  Te75  1  0.09609008  0.40496046  0.09451373  1
  Te  Te76  1  0.06151527  0.39885586  0.45068076  1
  Te  Te77  1  0.06030368  0.38505627  0.72742209  1
  Te  Te78  1  0.07683878  0.71179000  0.07247240  1
  Te  Te79  1  0.05986277  0.74011998  0.40880264  1
  Te  Te80  1  0.10167469  0.73341770  0.73518926  1
  Te  Te81  1  0.42894191  0.05007373  0.08699854  1
  Te  Te82  1  0.44279515  0.09839342  0.40389694  1
  Te  Te83  1  0.39478165  0.11338444  0.75937102  1
  Te  Te84  1  0.43382130  0.42049363  0.07956667  1
  Te  Te85  1  0.42233468  0.41489261  0.41358727  1
  Te  Te86  1  0.40670600  0.37950978  0.74499213  1
  Te  Te87  1  0.43009627  0.77831356  0.10416532  1
  Te  Te88  1  0.41276941  0.74122376  0.41029365  1
  Te  Te89  1  0.39583154  0.74607190  0.73523226  1
  Te  Te90  1  0.77704007  0.06375033  0.06245793  1
  Te  Te91  1  0.69970490  0.10873570  0.44354950  1
  Te  Te92  1  0.74817505  0.08968317  0.75496138  1
  Te  Te93  1  0.74649229  0.42599276  0.06183479  1
  Te  Te94  1  0.73962496  0.39804406  0.41278287  1
  Te  Te95  1  0.76957842  0.41965025  0.71326724  1
  Te  Te96  1  0.74191041  0.77804235  0.08511654  1
  Te  Te97  1  0.77160217  0.74741998  0.43034911  1
  Te  Te98  1  0.75879599  0.76255519  0.72064916  1
  Te  Te99  1  0.08944270  0.24991375  0.24982407  1
  Te  Te100  1  0.09678845  0.24637522  0.54769869  1
  Te  Te101  1  0.08488117  0.24605692  0.90656987  1
  Te  Te102  1  0.05788217  0.56452446  0.28271860  1
  Te  Te103  1  0.10360961  0.59131717  0.58317483  1
  Te  Te104  1  0.05304584  0.54549136  0.88719718  1
  Te  Te105  1  0.09856974  0.92773591  0.24551243  1
  Te  Te106  1  0.05901090  0.91835871  0.57678425  1
  Te  Te107  1  0.08069598  0.90447350  0.91342071  1
  Te  Te108  1  0.42109878  0.24067641  0.27715843  1
  Te  Te109  1  0.43108785  0.23565524  0.58496366  1
  Te  Te110  1  0.44658780  0.23247903  0.91356515  1
  Te  Te111  1  0.43998093  0.59321686  0.25420712  1
  Te  Te112  1  0.41092769  0.57943556  0.58784854  1
  Te  Te113  1  0.40751661  0.60125578  0.94468327  1
  Te  Te114  1  0.44512502  0.94872834  0.26202404  1
  Te  Te115  1  0.41422604  0.91211904  0.57302316  1
  Te  Te116  1  0.43605761  0.93347697  0.89690673  1
  Te  Te117  1  0.74217753  0.23753946  0.20445604  1
  Te  Te118  1  0.73564804  0.24795124  0.60089203  1
  Te  Te119  1  0.73335032  0.26705325  0.89240431  1
  Te  Te120  1  0.74772139  0.58079802  0.26411914  1
  Te  Te121  1  0.78198420  0.63347924  0.64715682  1
  Te  Te122  1  0.75709261  0.58148665  0.91767585  1
  Te  Te123  1  0.72836778  0.95392040  0.27232050  1
  Te  Te124  1  0.77395719  0.93045543  0.58952629  1
  Te  Te125  1  0.72323186  0.89337342  0.88010203  1
  Te  Te126  1  0.26642131  0.24509949  0.10461371  1
  Te  Te127  1  0.24868156  0.26650144  0.44919290  1
  Te  Te128  1  0.25789691  0.22635870  0.76525767  1
  Te  Te129  1  0.25353447  0.57211053  0.09806370  1
  Te  Te130  1  0.23790024  0.57457340  0.42090968  1
  Te  Te131  1  0.26960580  0.55502843  0.76131741  1
  Te  Te132  1  0.26949923  0.92413028  0.07011260  1
  Te  Te133  1  0.26347510  0.93777425  0.40296806  1
  Te  Te134  1  0.24163655  0.91501624  0.75555245  1
  Te  Te135  1  0.57222599  0.22543293  0.07714624  1
  Te  Te136  1  0.61390323  0.24417736  0.40784220  1
  Te  Te137  1  0.60819680  0.24107577  0.69256084  1
  Te  Te138  1  0.58721830  0.61351340  0.09147239  1
  Te  Te139  1  0.61582646  0.58192222  0.46231417  1
  Te  Te140  1  0.58178427  0.57677166  0.73149281  1
  Te  Te141  1  0.56225684  0.96805225  0.08207898  1
  Te  Te142  1  0.60304274  0.90767965  0.45203249  1
  Te  Te143  1  0.56941751  0.92769424  0.71232299  1
  Te  Te144  1  0.91139920  0.26217083  0.07278271  1
  Te  Te145  1  0.89447679  0.23510569  0.41213020  1
  Te  Te146  1  0.94617209  0.26815125  0.72408182  1
  Te  Te147  1  0.91742715  0.57863714  0.07869919  1
  Te  Te148  1  0.89605190  0.59516037  0.43986629  1
  Te  Te149  1  0.93075420  0.59873687  0.70385897  1
  Te  Te150  1  0.92231233  0.89540088  0.08755201  1
  Te  Te151  1  0.91729723  0.91663637  0.40095655  1
  Te  Te152  1  0.92647528  0.92601673  0.74003210  1
  Te  Te153  1  0.25868832  0.08370128  0.27202399  1
  Te  Te154  1  0.24404144  0.07404929  0.59286452  1
  Te  Te155  1  0.25500479  0.07971428  0.93006485  1
  Te  Te156  1  0.25208932  0.39919574  0.26443168  1
  Te  Te157  1  0.25027813  0.38820416  0.59191290  1
  Te  Te158  1  0.25423506  0.40866006  0.93089583  1
  Te  Te159  1  0.23705211  0.75557457  0.24249124  1
  Te  Te160  1  0.25441640  0.76482201  0.54950077  1
  Te  Te161  1  0.23893734  0.74010275  0.91738363  1
  Te  Te162  1  0.54248457  0.07785998  0.28207628  1
  Te  Te163  1  0.55003213  0.12354608  0.60560307  1
  Te  Te164  1  0.59906431  0.10650343  0.89770232  1
  Te  Te165  1  0.57937362  0.42125689  0.25557404  1
  Te  Te166  1  0.59972684  0.41102711  0.57405870  1
  Te  Te167  1  0.57816369  0.42175083  0.88693084  1
  Te  Te168  1  0.59062690  0.76666799  0.25695183  1
  Te  Te169  1  0.57568779  0.75573286  0.61694929  1
  Te  Te170  1  0.56930364  0.75006785  0.88809730  1
  Te  Te171  1  0.92818756  0.08803352  0.26422514  1
  Te  Te172  1  0.91655689  0.08188211  0.57499351  1
  Te  Te173  1  0.92309198  0.10725496  0.89001206  1
  Te  Te174  1  0.89798703  0.39810108  0.24430192  1
  Te  Te175  1  0.88418185  0.43534438  0.59938397  1
  Te  Te176  1  0.92018123  0.43172082  0.89913200  1
  Te  Te177  1  0.91755146  0.74058045  0.25017394  1
  Te  Te178  1  0.90800144  0.72899792  0.61689585  1
  Te  Te179  1  0.92090921  0.73351561  0.90801730  1
