# generated using pymatgen
data_In2Te3
_symmetry_space_group_name_H-M   'P 1'
_cell_length_a   19.01778993
_cell_length_b   19.00349867
_cell_length_c   19.04104865
_cell_angle_alpha   90.09109466
_cell_angle_beta   90.13815022
_cell_angle_gamma   89.88658495
_symmetry_Int_Tables_number   1
_chemical_formula_structural   In2Te3
_chemical_formula_sum   'In72 Te108'
_cell_volume   6881.47940663
_cell_formula_units_Z   36
loop_
 _symmetry_equiv_pos_site_id
 _symmetry_equiv_pos_as_xyz
  1  'x, y, z'
loop_
 _atom_site_type_symbol
 _atom_site_label
 _atom_site_symmetry_multiplicity
 _atom_site_fract_x
 _atom_site_fract_y
 _atom_site_fract_z
 _atom_site_occupancy
  In  In0  1  -0.07334425  0.15904301  0.29551334  1
  In  In1  1  0.17197271  0.50950648  0.00467689  1
  In  In2  1  0.53620006  0.02716432  0.47730887  1
  In  In3  1  0.15402001  -0.01129478  0.83139418  1
  In  In4  1  0.53646543  0.86037024  0.10798658  1
  In  In5  1  -0.04256368  0.53024125  0.45713924  1
  In  In6  1  0.01043127  0.66128915  0.03183601  1
  In  In7  1  0.82105627  0.34045790  0.16118809  1
  In  In8  1  0.17410222  0.67379193  0.50980276  1
  In  In9  1  -0.00785731  0.84324884  0.50950203  1
  In  In10  1  0.16470159  0.14632179  0.01324557  1
  In  In11  1  0.79239545  0.50153463  -0.00271608  1
  In  In12  1  0.82961653  0.48427536  0.67195000  1
  In  In13  1  0.74316079  0.86391650  0.40145504  1
  In  In14  1  0.35057518  0.50616635  0.48353063  1
  In  In15  1  0.52137568  0.48710731  0.31039663  1
  In  In16  1  0.33016112  0.00807544  0.00537220  1
  In  In17  1  0.83360431  0.01022596  0.49432441  1
  In  In18  1  0.15004172  0.85546439  0.64738878  1
  In  In19  1  -0.04548478  0.30318116  0.64301195  1
  In  In20  1  0.16910028  0.47280444  0.67555302  1
  In  In21  1  0.34089128  0.85959981  0.17424475  1
  In  In22  1  0.17911697  0.34324370  0.82887887  1
  In  In23  1  0.15013899  0.32810326  0.48157059  1
  In  In24  1  0.16375273  -0.00485988  0.17738711  1
  In  In25  1  0.81654862  0.66258579  0.17630226  1
  In  In26  1  0.66460462  0.01756305  0.64618066  1
  In  In27  1  0.36017320  0.43348778  0.18792066  1
  In  In28  1  0.67686670  0.67337764  0.69079306  1
  In  In29  1  -0.01133993  0.49063911  0.86005521  1
  In  In30  1  0.15151880  0.16007714  0.34099006  1
  In  In31  1  0.67575131  0.83563150  0.85008427  1
  In  In32  1  -0.00411234  0.85160444  0.78690905  1
  In  In33  1  0.01975656  -0.01476483  0.00087971  1
  In  In34  1  0.52698640  0.68264424  0.85765315  1
  In  In35  1  0.83307856  0.66758793  0.84234418  1
  In  In36  1  0.48375958  0.82267599  0.66181795  1
  In  In37  1  0.48970014  0.32196907  0.83886048  1
  In  In38  1  0.33801558  0.32290295  0.67435135  1
  In  In39  1  0.18073872  0.66604128  0.16887261  1
  In  In40  1  0.49680029  0.54384436  0.09528505  1
  In  In41  1  0.35326322  0.15883015  0.49934204  1
  In  In42  1  0.36793238  0.85824575  0.45607910  1
  In  In43  1  0.15722774  0.30680238  0.17311287  1
  In  In44  1  0.68715056  0.50007367  0.49711449  1
  In  In45  1  0.78440403  0.31212681  0.48593649  1
  In  In46  1  0.84945171  0.15797142  0.01611221  1
  In  In47  1  0.55989436  0.33644110  0.45927300  1
  In  In48  1  -0.00146118  0.66876817  0.63670484  1
  In  In49  1  0.49863703  0.67494419  0.50610943  1
  In  In50  1  0.81329589  0.83541226  0.01319476  1
  In  In51  1  0.66416041  0.15022375  0.16720723  1
  In  In52  1  -0.01458471  0.15564689  0.50681406  1
  In  In53  1  0.35447795  0.18063170  0.17274760  1
  In  In54  1  0.31361787  0.66176818  0.65794703  1
  In  In55  1  0.67196568  0.31390501  -0.00322962  1
  In  In56  1  0.65731422  0.00067485  0.30733997  1
  In  In57  1  0.30322362  0.80182118  0.85931834  1
  In  In58  1  0.51775382  0.15239901  0.64891604  1
  In  In59  1  0.35102444  0.52735639  0.85528664  1
  In  In60  1  0.64643535  0.68168856  0.30339698  1
  In  In61  1  0.48606103  -0.00602815  0.82524250  1
  In  In62  1  0.32966967  0.00804937  0.65419583  1
  In  In63  1  0.67189202  0.49144220  0.82055391  1
  In  In64  1  0.16051365  0.50804319  0.34020465  1
  In  In65  1  0.02149264  0.16860615  0.82216658  1
  In  In66  1  -0.01822304  0.83314767  0.18378851  1
  In  In67  1  0.49062613  0.14765472  -0.01386267  1
  In  In68  1  0.00118749  0.36867419  -0.00412216  1
  In  In69  1  0.64521696  0.13569142  0.83941158  1
  In  In70  1  0.17081303  0.84092206  0.34682218  1
  In  In71  1  -0.01897558  0.50456531  0.20621667  1
  Te  Te72  1  0.06464435  0.08642238  0.10720456  1
  Te  Te73  1  0.05929042  0.06946424  0.41205708  1
  Te  Te74  1  0.08355703  0.06944515  0.72967380  1
  Te  Te75  1  0.08846954  0.43578310  0.10870804  1
  Te  Te76  1  0.05796546  0.42149134  0.40776342  1
  Te  Te77  1  0.05810683  0.40502397  0.75394672  1
  Te  Te78  1  0.09113019  0.76778639  0.09983966  1
  Te  Te79  1  0.07759789  0.74768224  0.42286663  1
  Te  Te80  1  0.08932756  0.74586360  0.73224627  1
  Te  Te81  1  0.42830534  0.06890967  0.10130810  1
  Te  Te82  1  0.44183223  0.10333687  0.39397088  1
  Te  Te83  1  0.41297218  0.09785240  0.74389497  1
  Te  Te84  1  0.43678609  0.41360912  0.06572675  1
  Te  Te85  1  0.43245064  0.40646877  0.40954787  1
  Te  Te86  1  0.41157699  0.42472999  0.75669591  1
  Te  Te87  1  0.42170684  0.76980896  0.09046746  1
  Te  Te88  1  0.41895454  0.73542872  0.40029271  1
  Te  Te89  1  0.41118416  0.73413760  0.76059131  1
  Te  Te90  1  0.74943350  0.06586566  0.07641092  1
  Te  Te91  1  0.76084210  0.08529364  0.38442837  1
  Te  Te92  1  0.74335244  0.05860153  0.76115251  1
  Te  Te93  1  0.71115624  0.42259107  0.09588574  1
  Te  Te94  1  0.76011851  0.42344122  0.39338994  1
  Te  Te95  1  0.74848982  0.39151864  0.74744452  1
  Te  Te96  1  0.72614175  0.73480971  0.08214776  1
  Te  Te97  1  0.74359626  0.71334374  0.41291789  1
  Te  Te98  1  0.77495251  0.77211728  0.75043079  1
  Te  Te99  1  0.05339027  0.24512809  0.26189537  1
  Te  Te100  1  0.08222237  0.24494390  0.58654496  1
  Te  Te101  1  0.09187824  0.26192721  0.93451242  1
  Te  Te102  1  0.07657204  0.60690130  0.26245324  1
  Te  Te103  1  0.09330318  0.56454712  0.57748448  1
  Te  Te104  1  0.08349807  0.59447685  0.91590078  1
  Te  Te105  1  0.06806509  0.92395087  0.26895190  1
  Te  Te106  1  0.09602245  0.94216142  0.54401992  1
  Te  Te107  1  0.08275671  0.88120500  0.90827976  1
  Te  Te108  1  0.42651935  0.29795038  0.22684145  1
  Te  Te109  1  0.43570723  0.26101427  0.57729398  1
  Te  Te110  1  0.40023373  0.23315492  0.91088701  1
  Te  Te111  1  0.42114233  0.56722982  0.23031058  1
  Te  Te112  1  0.42277695  0.57760160  0.59505686  1
  Te  Te113  1  0.45745215  0.58425938  0.94610230  1
  Te  Te114  1  0.46794224  0.91216439  0.23427022  1
  Te  Te115  1  0.44165159  0.94114481  0.57361359  1
  Te  Te116  1  0.39789269  0.90779296  0.91363068  1
  Te  Te117  1  0.75826284  0.23600739  0.24643096  1
  Te  Te118  1  0.75033805  0.21724796  0.58786103  1
  Te  Te119  1  0.75183747  0.21795554  0.91561717  1
  Te  Te120  1  0.71658114  0.56823784  0.23481826  1
  Te  Te121  1  0.76072088  0.59261230  0.59357152  1
  Te  Te122  1  0.71803830  0.60394785  0.91571088  1
  Te  Te123  1  0.75146491  0.89399057  0.24622304  1
  Te  Te124  1  0.73612604  0.91870128  0.56284075  1
  Te  Te125  1  0.78117710  0.92379272  0.90034172  1
  Te  Te126  1  0.25737245  0.24833319  0.07647609  1
  Te  Te127  1  0.25391866  0.24471755  0.41326239  1
  Te  Te128  1  0.23676124  0.24354821  0.74026736  1
  Te  Te129  1  0.27137639  0.60342379  0.06727535  1
  Te  Te130  1  0.26002348  0.59984855  0.40757347  1
  Te  Te131  1  0.24048876  0.57674644  0.75853183  1
  Te  Te132  1  0.23596038  0.91385651  0.07396674  1
  Te  Te133  1  0.26840261  0.94085716  0.39338755  1
  Te  Te134  1  0.26143613  0.90779297  0.74708297  1
  Te  Te135  1  0.57452131  0.23458530  0.07771883  1
  Te  Te136  1  0.62089631  0.26319686  0.34599193  1
  Te  Te137  1  0.58536826  0.24290723  0.75072387  1
  Te  Te138  1  0.61932185  0.62290317  0.12114641  1
  Te  Te139  1  0.58030936  0.58200780  0.41490297  1
  Te  Te140  1  0.57392815  0.58227589  0.74958199  1
  Te  Te141  1  0.65878976  0.94799186  0.13836997  1
  Te  Te142  1  0.59405129  0.90623254  0.41375661  1
  Te  Te143  1  0.57978121  0.90814559  0.74287586  1
  Te  Te144  1  0.92908257  0.26749972  0.08433471  1
  Te  Te145  1  0.90593800  0.24501502  0.41521849  1
  Te  Te146  1  0.90699415  0.23677621  0.76187455  1
  Te  Te147  1  0.90466799  0.56177196  0.08085043  1
  Te  Te148  1  0.87271218  0.62702354  0.39066670  1
  Te  Te149  1  0.92405362  0.58427376  0.75246576  1
  Te  Te150  1  0.91173347  0.92562595  0.08833616  1
  Te  Te151  1  0.89386340  0.89875828  0.40960393  1
  Te  Te152  1  0.95246881  0.96779978  0.71238000  1
  Te  Te153  1  0.25339793  0.09405122  0.24756862  1
  Te  Te154  1  0.24573400  0.08919412  0.56809517  1
  Te  Te155  1  0.24710180  0.08420506  0.90335923  1
  Te  Te156  1  0.23339855  0.39708786  0.26856579  1
  Te  Te157  1  0.25537443  0.41490801  0.56427739  1
  Te  Te158  1  0.26505818  0.42170918  0.92506268  1
  Te  Te159  1  0.26126760  0.75915944  0.25610743  1
  Te  Te160  1  0.26805537  0.77686694  0.57035736  1
  Te  Te161  1  0.25219693  0.70265227  0.94881993  1
  Te  Te162  1  0.56340200  0.11491312  0.27277033  1
  Te  Te163  1  0.62938774  0.13689288  0.54127717  1
  Te  Te164  1  0.58081857  0.03723854  0.93525760  1
  Te  Te165  1  0.57484278  0.36575858  0.24348976  1
  Te  Te166  1  0.60129485  0.41129953  0.57623842  1
  Te  Te167  1  0.58681006  0.40910891  0.91546094  1
  Te  Te168  1  0.55546538  0.77974270  0.23962657  1
  Te  Te169  1  0.59650687  0.75473206  0.58788247  1
  Te  Te170  1  0.57462547  0.79046909  0.94700897  1
  Te  Te171  1  0.84546875  0.03909881  0.26760465  1
  Te  Te172  1  0.90770763  0.07579570  0.60734669  1
  Te  Te173  1  0.93879564  0.08190645  0.91889189  1
  Te  Te174  1  0.88299867  0.41999458  0.27199951  1
  Te  Te175  1  0.91418119  0.42383359  0.56216909  1
  Te  Te176  1  0.87637955  0.40570041  0.91494222  1
  Te  Te177  1  0.91071174  0.73226279  0.26654322  1
  Te  Te178  1  0.89984847  0.76415296  0.59121315  1
  Te  Te179  1  0.91616412  0.74246343  0.94304972  1
