# generated using pymatgen
data_In2Te3
_symmetry_space_group_name_H-M   'P 1'
_cell_length_a   18.93021546
_cell_length_b   18.94961075
_cell_length_c   18.92419412
_cell_angle_alpha   90.07553764
_cell_angle_beta   89.78862959
_cell_angle_gamma   89.94007662
_symmetry_Int_Tables_number   1
_chemical_formula_structural   In2Te3
_chemical_formula_sum   'In72 Te108'
_cell_volume   6788.43512910
_cell_formula_units_Z   36
loop_
 _symmetry_equiv_pos_site_id
 _symmetry_equiv_pos_as_xyz
  1  'x, y, z'
loop_
 _atom_site_type_symbol
 _atom_site_label
 _atom_site_symmetry_multiplicity
 _atom_site_fract_x
 _atom_site_fract_y
 _atom_site_fract_z
 _atom_site_occupancy
  In  In0  1  0.50267860  0.32675530  0.19318200  1
  In  In1  1  0.66808308  0.85087934  0.83900286  1
  In  In2  1  0.82883877  0.00324870  0.16667391  1
  In  In3  1  0.00319424  0.18575681  0.79825394  1
  In  In4  1  -0.00374610  0.65346294  0.32896540  1
  In  In5  1  0.83936118  0.49661884  0.00540186  1
  In  In6  1  0.83717323  0.50300831  0.36750932  1
  In  In7  1  0.85853891  0.16061762  -0.03061294  1
  In  In8  1  0.16341764  0.33820222  0.81128447  1
  In  In9  1  0.32894592  0.51218948  0.17832728  1
  In  In10  1  0.31789844  0.65804287  0.36441504  1
  In  In11  1  0.16251838  0.32665911  0.16014220  1
  In  In12  1  -0.01965432  0.82330387  0.14527220  1
  In  In13  1  0.66655931  0.66317118  0.00031940  1
  In  In14  1  0.33162010  0.84673390  0.17267809  1
  In  In15  1  0.65759544  -0.00471037  -0.02896408  1
  In  In16  1  -0.02526495  0.18619942  0.51894668  1
  In  In17  1  0.15889702  0.89108548  -0.06339495  1
  In  In18  1  0.66358013  0.64917150  0.67048689  1
  In  In19  1  0.50319983  0.51277109  0.66868924  1
  In  In20  1  0.65772185  0.18661845  0.14804851  1
  In  In21  1  0.46317632  -0.00922279  0.15682964  1
  In  In22  1  0.50056504  0.13433975  0.00153553  1
  In  In23  1  0.69333498  0.35490476  0.66875971  1
  In  In24  1  0.16583283  -0.01847643  0.14505600  1
  In  In25  1  0.64928026  0.65183767  0.32923081  1
  In  In26  1  0.48605840  -0.00056182  0.50837039  1
  In  In27  1  -0.00354569  0.51135769  0.82199262  1
  In  In28  1  -0.00162591  0.32401804  -0.00254670  1
  In  In29  1  0.01479202  0.67864470  0.66839997  1
  In  In30  1  0.02112128  0.00478877  0.32882276  1
  In  In31  1  0.82219406  0.34394522  0.17816602  1
  In  In32  1  0.66585932  0.02383275  0.34700534  1
  In  In33  1  0.48863298  0.32929780  0.50519879  1
  In  In34  1  0.32127455  0.31538629  -0.00846216  1
  In  In35  1  0.34437305  0.33437149  0.34054882  1
  In  In36  1  0.30752624  0.12280298  0.86330458  1
  In  In37  1  0.33394296  0.85649863  0.82706389  1
  In  In38  1  0.14063257  0.65650026  0.15254351  1
  In  In39  1  0.02658070  -0.00345271  0.65922169  1
  In  In40  1  0.50690987  0.14683014  0.68424516  1
  In  In41  1  0.84329735  -0.00113865  0.51045184  1
  In  In42  1  0.17825550  0.15166837  0.32858684  1
  In  In43  1  0.15178731  0.32970414  0.50884681  1
  In  In44  1  0.69027761  0.84734877  0.50108260  1
  In  In45  1  0.50010831  0.67520289  0.17765788  1
  In  In46  1  0.79822011  0.66717998  0.15189830  1
  In  In47  1  0.48442725  0.14836572  0.34381059  1
  In  In48  1  0.69494638  0.31387315  -0.02405823  1
  In  In49  1  0.32583900  0.84077468  0.50535728  1
  In  In50  1  0.19675161  0.14799535  0.63284992  1
  In  In51  1  0.50661865  0.81508100  0.69145695  1
  In  In52  1  0.15981234  0.84022389  0.68756276  1
  In  In53  1  0.69050463  0.19773254  0.52050235  1
  In  In54  1  0.31320472  0.50052063  0.80645939  1
  In  In55  1  -0.00702325  0.50280743  0.17755912  1
  In  In56  1  0.16145999  0.65617350  0.51523019  1
  In  In57  1  0.82779513  0.86223137  0.33851651  1
  In  In58  1  0.31235674  0.33281893  0.65316244  1
  In  In59  1  0.49522449  0.48405474  -0.00740600  1
  In  In60  1  0.83433171  0.67466487  0.53677833  1
  In  In61  1  0.85623596  0.82961227  -0.00689299  1
  In  In62  1  0.48843895  0.85040814  -0.02634330  1
  In  In63  1  0.67366358  0.35615972  0.34044770  1
  In  In64  1  0.84029728  0.83824421  0.66491084  1
  In  In65  1  0.31503422  0.67269136  -0.01603251  1
  In  In66  1  0.86041866  0.47724528  0.65248597  1
  In  In67  1  0.01572647  0.14220972  0.17188822  1
  In  In68  1  0.51944782  0.33307385  0.84466992  1
  In  In69  1  0.48489379  0.65694395  0.50385032  1
  In  In70  1  0.19484731  0.82938557  0.33852208  1
  In  In71  1  0.02187206  0.66529254  -0.02730310  1
  Te  Te72  1  0.09198758  0.08122559  0.06307775  1
  Te  Te73  1  0.07179989  0.10456573  0.42979613  1
  Te  Te74  1  0.11356327  0.08627210  0.74371954  1
  Te  Te75  1  0.07804004  0.42480060  0.07886632  1
  Te  Te76  1  0.04209139  0.40134191  0.44133525  1
  Te  Te77  1  0.08773073  0.43473028  0.72911014  1
  Te  Te78  1  0.09447945  0.76899145  0.06033498  1
  Te  Te79  1  0.09198683  0.74318404  0.40759222  1
  Te  Te80  1  0.08772290  0.74646984  0.77671850  1
  Te  Te81  1  0.38679144  0.08874461  0.07974117  1
  Te  Te82  1  0.38551545  0.08691336  0.43816251  1
  Te  Te83  1  0.40693412  0.06950222  0.76450331  1
  Te  Te84  1  0.40400679  0.40700697  0.09079024  1
  Te  Te85  1  0.42503766  0.42781344  0.41864688  1
  Te  Te86  1  0.42002835  0.39982951  0.74950768  1
  Te  Te87  1  0.41508387  0.74960534  0.07351692  1
  Te  Te88  1  0.41810987  0.76016536  0.41421302  1
  Te  Te89  1  0.41282345  0.74257965  0.77600126  1
  Te  Te90  1  0.74753386  0.09371733  0.06714076  1
  Te  Te91  1  0.76738564  0.10095675  0.42812263  1
  Te  Te92  1  0.69126768  0.03710683  0.79485760  1
  Te  Te93  1  0.73337213  0.41829030  0.08167762  1
  Te  Te94  1  0.76579598  0.39853044  0.44890468  1
  Te  Te95  1  0.76220811  0.44705172  0.75831840  1
  Te  Te96  1  0.73655343  0.77981914  0.07407532  1
  Te  Te97  1  0.76617010  0.74222182  0.41765080  1
  Te  Te98  1  0.74427670  0.75488122  0.74678919  1
  Te  Te99  1  0.07803835  0.24699251  0.25961331  1
  Te  Te100  1  0.08027656  0.24330492  0.61272458  1
  Te  Te101  1  0.09364806  0.24613698  0.91040969  1
  Te  Te102  1  0.10047532  0.56210897  0.26652948  1
  Te  Te103  1  0.10558808  0.56736215  0.62414889  1
  Te  Te104  1  0.10516559  0.56690492  0.90418981  1
  Te  Te105  1  0.07972468  0.88980117  0.24386114  1
  Te  Te106  1  0.10521332  0.91063428  0.56705513  1
  Te  Te107  1  0.03057501  0.93187956  0.87627243  1
  Te  Te108  1  0.40106773  0.22817750  0.24489807  1
  Te  Te109  1  0.41473221  0.23469731  0.59565205  1
  Te  Te110  1  0.41913904  0.23389401  0.90496715  1
  Te  Te111  1  0.42049477  0.58631222  0.27145698  1
  Te  Te112  1  0.39310388  0.59365504  0.60523101  1
  Te  Te113  1  0.40443724  0.57250216  0.90990817  1
  Te  Te114  1  0.39949472  0.92767949  0.27396492  1
  Te  Te115  1  0.41691892  0.90783454  0.60636617  1
  Te  Te116  1  0.43042596  0.95551061  0.88831161  1
  Te  Te117  1  0.74331227  0.24307276  0.25902128  1
  Te  Te118  1  0.77837516  0.23323998  0.63688131  1
  Te  Te119  1  0.77942965  0.24411524  0.87389015  1
  Te  Te120  1  0.75203426  0.56677734  0.25309206  1
  Te  Te121  1  0.74805439  0.56126579  0.58112562  1
  Te  Te122  1  0.78155701  0.60666929  0.92590068  1
  Te  Te123  1  0.72717129  0.92285691  0.24494585  1
  Te  Te124  1  0.74248759  0.94054792  0.60787662  1
  Te  Te125  1  0.78235415  0.93195612  0.90650616  1
  Te  Te126  1  0.24193756  0.23155474  0.08111743  1
  Te  Te127  1  0.24992948  0.24779609  0.42205687  1
  Te  Te128  1  0.26389467  0.23309928  0.75922109  1
  Te  Te129  1  0.23974924  0.57266259  0.07137007  1
  Te  Te130  1  0.23614353  0.55760437  0.43214529  1
  Te  Te131  1  0.27083241  0.59616829  0.70490035  1
  Te  Te132  1  0.26743497  0.91131730  0.05395665  1
  Te  Te133  1  0.22105431  0.93171451  0.44447717  1
  Te  Te134  1  0.24086255  0.94500205  0.75282856  1
  Te  Te135  1  0.56492929  0.26792272  0.05977731  1
  Te  Te136  1  0.58382008  0.24229277  0.41042086  1
  Te  Te137  1  0.59619195  0.25625231  0.73953704  1
  Te  Te138  1  0.57341955  0.57851212  0.08525212  1
  Te  Te139  1  0.58817402  0.57604013  0.43766376  1
  Te  Te140  1  0.58185917  0.58156588  0.77087870  1
  Te  Te141  1  0.57268021  0.92156809  0.07745760  1
  Te  Te142  1  0.58344781  0.91963196  0.41960922  1
  Te  Te143  1  0.58368203  0.93332622  0.74535557  1
  Te  Te144  1  0.90797919  0.24654342  0.09473195  1
  Te  Te145  1  0.89381435  0.28991753  0.44919000  1
  Te  Te146  1  0.88737249  0.26430538  0.75172972  1
  Te  Te147  1  0.92498661  0.60552256  0.08904440  1
  Te  Te148  1  0.93179112  0.58846810  0.44965775  1
  Te  Te149  1  0.90525325  0.59739679  0.73616427  1
  Te  Te150  1  0.92982555  0.94415779  0.07124043  1
  Te  Te151  1  0.93824225  0.91673538  0.42443316  1
  Te  Te152  1  0.94134797  0.90879059  0.75013039  1
  Te  Te153  1  0.24568452  0.04429159  0.25212123  1
  Te  Te154  1  0.27504857  0.05850937  0.54768918  1
  Te  Te155  1  0.21258606  0.03658430  0.93573260  1
  Te  Te156  1  0.24460593  0.41320948  0.25602906  1
  Te  Te157  1  0.25630126  0.42539691  0.55540149  1
  Te  Te158  1  0.24112166  0.41781304  0.91525027  1
  Te  Te159  1  0.25229516  0.72725564  0.23157735  1
  Te  Te160  1  0.25029823  0.74864097  0.59742242  1
  Te  Te161  1  0.23188354  0.75915812  0.89522968  1
  Te  Te162  1  0.57861439  0.08737048  0.23378563  1
  Te  Te163  1  0.59161445  0.09003567  0.57069107  1
  Te  Te164  1  0.61007889  0.11663917  0.89466080  1
  Te  Te165  1  0.58746631  0.43047147  0.24869204  1
  Te  Te166  1  0.58464669  0.41830029  0.58165652  1
  Te  Te167  1  0.61330552  0.43019898  0.91176174  1
  Te  Te168  1  0.59050239  0.76128106  0.25385407  1
  Te  Te169  1  0.59374331  0.75301706  0.57286017  1
  Te  Te170  1  0.57826451  0.74746173  0.90819267  1
  Te  Te171  1  0.90850844  0.08671434  0.26497877  1
  Te  Te172  1  0.91140956  0.08515829  0.61439201  1
  Te  Te173  1  0.94888047  0.07636319  0.88631282  1
  Te  Te174  1  0.91886495  0.41202243  0.27239816  1
  Te  Te175  1  0.94378725  0.39081061  0.55796351  1
  Te  Te176  1  0.91454357  0.41004412  0.90662034  1
  Te  Te177  1  0.89950970  0.74904804  0.25161323  1
  Te  Te178  1  0.94220338  0.77338727  0.57248791  1
  Te  Te179  1  0.91483953  0.73342769  0.89855040  1
