# generated using pymatgen
data_In2Te3
_symmetry_space_group_name_H-M   'P 1'
_cell_length_a   18.93954259
_cell_length_b   18.97613213
_cell_length_c   18.98607160
_cell_angle_alpha   90.00124920
_cell_angle_beta   90.01924014
_cell_angle_gamma   89.94061445
_symmetry_Int_Tables_number   1
_chemical_formula_structural   In2Te3
_chemical_formula_sum   'In72 Te108'
_cell_volume   6823.57608259
_cell_formula_units_Z   36
loop_
 _symmetry_equiv_pos_site_id
 _symmetry_equiv_pos_as_xyz
  1  'x, y, z'
loop_
 _atom_site_type_symbol
 _atom_site_label
 _atom_site_symmetry_multiplicity
 _atom_site_fract_x
 _atom_site_fract_y
 _atom_site_fract_z
 _atom_site_occupancy
  In  In0  1  0.50829569  0.00335921  0.17658571  1
  In  In1  1  0.31421766  0.64937693  0.00466837  1
  In  In2  1  0.31400440  0.32440107  0.66760369  1
  In  In3  1  0.85070795  0.85227330  0.32562150  1
  In  In4  1  0.84530423  0.33653477  0.45293611  1
  In  In5  1  -0.00416273  0.15509887  0.82078998  1
  In  In6  1  0.13066550  0.80796741  0.03051977  1
  In  In7  1  0.85175840  0.15509830  0.32921525  1
  In  In8  1  0.49005988  0.66032567  0.83636099  1
  In  In9  1  0.16363820  0.64336368  0.84021199  1
  In  In10  1  0.70056630  0.48884008  0.48861378  1
  In  In11  1  0.69488320  0.49670267  0.20646457  1
  In  In12  1  0.67067167  0.81992190  0.81474678  1
  In  In13  1  0.68804887  0.50338167  0.82551015  1
  In  In14  1  0.30057736  0.67348980  0.33309791  1
  In  In15  1  0.14998281  0.00924788  0.15641579  1
  In  In16  1  0.69380915  0.84592121  0.17898767  1
  In  In17  1  0.16452726  0.83947876  0.69450255  1
  In  In18  1  0.30954128  0.34925616  0.00508197  1
  In  In19  1  0.15967012  0.18733128  0.01272350  1
  In  In20  1  0.66292757  0.18451092  0.83181744  1
  In  In21  1  0.32841930  -0.00005306  0.01057269  1
  In  In22  1  0.50594547  0.50714051  0.33161377  1
  In  In23  1  0.68873966  0.00161789  0.64032267  1
  In  In24  1  0.31759587  0.00508280  0.29776513  1
  In  In25  1  0.66145845  0.68089706  0.03536674  1
  In  In26  1  0.70099224  0.66053115  0.29611941  1
  In  In27  1  0.54056516  0.20581949  0.35775100  1
  In  In28  1  0.68500684  0.17179038  0.17043780  1
  In  In29  1  0.84434530  0.00696938  0.48016359  1
  In  In30  1  0.00519054  -0.00825705  0.67083994  1
  In  In31  1  0.49385172  0.82944416  0.34435055  1
  In  In32  1  0.06545845  0.15680858  0.29251311  1
  In  In33  1  0.17566126  0.48498896  0.32110358  1
  In  In34  1  0.33535750  0.34173594  0.33860707  1
  In  In35  1  0.02047558  0.36139374  0.68965424  1
  In  In36  1  0.30460872  0.20101944  0.84152098  1
  In  In37  1  0.83667477  0.66488205  0.84334689  1
  In  In38  1  0.14352519  0.83260118  0.28204422  1
  In  In39  1  0.32240708  -0.01339248  0.66707084  1
  In  In40  1  0.02094124  0.65849004  0.31997868  1
  In  In41  1  0.69853195  0.00321019  0.02526211  1
  In  In42  1  -0.01809832  0.34465571  -0.01169032  1
  In  In43  1  0.83687770  0.49588364  0.67380583  1
  In  In44  1  0.86368036  0.51374208  0.02316153  1
  In  In45  1  0.68398273  0.34364446  -0.01689752  1
  In  In46  1  0.35062388  0.15489637  0.49611155  1
  In  In47  1  0.16525484  0.01092729  0.47942996  1
  In  In48  1  0.51838932  -0.01960380  0.48796266  1
  In  In49  1  0.33344965  0.51756732  0.50557304  1
  In  In50  1  0.30547923  0.81095626  0.50625517  1
  In  In51  1  0.09928136  0.69222307  0.54421510  1
  In  In52  1  0.49224274  0.82269582  0.69014084  1
  In  In53  1  0.48276911  0.33490693  0.16288431  1
  In  In54  1  0.50469171  0.15469025  0.65160986  1
  In  In55  1  0.49136678  0.52809549  -0.00625638  1
  In  In56  1  0.87130505  0.65056893  0.50709776  1
  In  In57  1  0.50784336  0.48090150  0.67109349  1
  In  In58  1  0.51106676  0.63627144  0.52209966  1
  In  In59  1  0.67181579  0.82008923  0.48957747  1
  In  In60  1  0.02372947  0.49506791  0.50208061  1
  In  In61  1  -0.03092222  -0.02930524  0.02581849  1
  In  In62  1  0.15169273  0.50102246  -0.00570289  1
  In  In63  1  0.89208033  0.30443005  0.19342645  1
  In  In64  1  0.49839806  0.31538994  0.82602403  1
  In  In65  1  -0.01391452  0.83351209  0.85608261  1
  In  In66  1  0.15361454  0.31471499  0.50318542  1
  In  In67  1  0.47048201  0.66052901  0.17497262  1
  In  In68  1  0.82464182  -0.00540838  0.81801996  1
  In  In69  1  0.84290392  0.20691634  0.63785622  1
  In  In70  1  0.50908395  0.13718819  0.01336272  1
  In  In71  1  0.47256136  -0.00237208  0.83271834  1
  Te  Te72  1  0.05777724  0.09162629  0.07007259  1
  Te  Te73  1  0.06562876  0.11174961  0.43674428  1
  Te  Te74  1  0.09282188  0.06175691  0.76344716  1
  Te  Te75  1  0.07386287  0.40939335  0.09115397  1
  Te  Te76  1  0.07925164  0.39663292  0.40034418  1
  Te  Te77  1  0.11131759  0.43037662  0.78637675  1
  Te  Te78  1  0.02327930  0.75191644  0.11651180  1
  Te  Te79  1  0.09225271  0.76110131  0.40529899  1
  Te  Te80  1  0.07202546  0.74502460  0.76853676  1
  Te  Te81  1  0.40251233  0.09029897  0.10914624  1
  Te  Te82  1  0.42004808  0.05897759  0.40181451  1
  Te  Te83  1  0.40301878  0.10849475  0.75544288  1
  Te  Te84  1  0.40504937  0.43767631  0.08307692  1
  Te  Te85  1  0.42456189  0.42387075  0.42937411  1
  Te  Te86  1  0.40262262  0.41003488  0.75722988  1
  Te  Te87  1  0.42117052  0.73490672  0.06059603  1
  Te  Te88  1  0.41805749  0.72823299  0.43025358  1
  Te  Te89  1  0.39575175  0.75555051  0.77426130  1
  Te  Te90  1  0.78193318  0.11280707  0.07569172  1
  Te  Te91  1  0.74799914  0.09257115  0.41218207  1
  Te  Te92  1  0.75797832  0.10327590  0.73063363  1
  Te  Te93  1  0.75866306  0.42060540  0.08802273  1
  Te  Te94  1  0.77509943  0.43951166  0.37199711  1
  Te  Te95  1  0.74145102  0.40263113  0.73586795  1
  Te  Te96  1  0.77530119  0.76282846  0.08596901  1
  Te  Te97  1  0.77226847  0.73894539  0.40745416  1
  Te  Te98  1  0.76422796  0.73961298  0.73879551  1
  Te  Te99  1  0.04356766  0.28224681  0.21481059  1
  Te  Te100  1  0.08548641  0.24893889  0.61727529  1
  Te  Te101  1  0.07517881  0.25479953  0.90736511  1
  Te  Te102  1  0.11790702  0.58948076  0.22990297  1
  Te  Te103  1  0.07566983  0.56483954  0.62186269  1
  Te  Te104  1  0.05755843  0.60514333  0.94006565  1
  Te  Te105  1  0.05060321  0.94204112  0.24670564  1
  Te  Te106  1  0.09935945  0.91581457  0.57867161  1
  Te  Te107  1  0.08152099  0.91877999  0.93688678  1
  Te  Te108  1  0.42492776  0.23962546  0.26588438  1
  Te  Te109  1  0.42120019  0.25934018  0.57911072  1
  Te  Te110  1  0.42269654  0.24223938  0.93572971  1
  Te  Te111  1  0.38677100  0.56846566  0.26010013  1
  Te  Te112  1  0.40650733  0.58694629  0.61864855  1
  Te  Te113  1  0.38382473  0.56752208  0.89558236  1
  Te  Te114  1  0.41323625  0.90124564  0.23781467  1
  Te  Te115  1  0.41303788  0.90690989  0.57187373  1
  Te  Te116  1  0.42440978  0.91335267  0.94013162  1
  Te  Te117  1  0.76058906  0.26419010  0.26103767  1
  Te  Te118  1  0.74669180  0.26128350  0.53791831  1
  Te  Te119  1  0.76811371  0.25140331  0.90794125  1
  Te  Te120  1  0.80373123  0.59561498  0.21453512  1
  Te  Te121  1  0.75439760  0.59193629  0.58489844  1
  Te  Te122  1  0.73912456  0.58104299  0.94545616  1
  Te  Te123  1  0.78016183  0.95246399  0.23718606  1
  Te  Te124  1  0.77108100  0.89796502  0.57246852  1
  Te  Te125  1  0.74443141  0.90897398  0.91301517  1
  Te  Te126  1  0.25065195  0.25957714  0.10425735  1
  Te  Te127  1  0.25333904  0.23965674  0.41614775  1
  Te  Te128  1  0.21055863  0.24252978  0.73540910  1
  Te  Te129  1  0.22297703  0.58017765  0.09892745  1
  Te  Te130  1  0.22289915  0.58688401  0.42956002  1
  Te  Te131  1  0.19651150  0.54739594  0.73252972  1
  Te  Te132  1  0.23727441  0.90726720  0.08761018  1
  Te  Te133  1  0.25340674  0.91051078  0.40366341  1
  Te  Te134  1  0.26100290  0.91448681  0.77646877  1
  Te  Te135  1  0.58667481  0.25393924  0.07617213  1
  Te  Te136  1  0.60790921  0.29056476  0.45336817  1
  Te  Te137  1  0.59194774  0.25957247  0.72059975  1
  Te  Te138  1  0.58468197  0.56820982  0.10830582  1
  Te  Te139  1  0.60237427  0.59824792  0.40603525  1
  Te  Te140  1  0.58803448  0.58573877  0.74628783  1
  Te  Te141  1  0.59204956  0.91518533  0.08647555  1
  Te  Te142  1  0.61221448  0.91518828  0.38779691  1
  Te  Te143  1  0.58117871  0.93982206  0.73159879  1
  Te  Te144  1  0.89318321  0.24586376  0.05685669  1
  Te  Te145  1  0.94576489  0.23163394  0.41790250  1
  Te  Te146  1  0.91704024  0.26862312  0.75400261  1
  Te  Te147  1  0.96930206  0.61090854  0.06822181  1
  Te  Te148  1  0.93273075  0.56355413  0.40059455  1
  Te  Te149  1  0.91986537  0.55775255  0.78079157  1
  Te  Te150  1  0.85813207  0.91213054  0.10537162  1
  Te  Te151  1  0.93766653  0.90632970  0.42905323  1
  Te  Te152  1  0.90879337  0.89708720  0.74023348  1
  Te  Te153  1  0.21080078  0.10262646  0.25939056  1
  Te  Te154  1  0.24713193  0.08681263  0.58403655  1
  Te  Te155  1  0.24280467  0.09167968  0.92512211  1
  Te  Te156  1  0.24510768  0.38832596  0.23254863  1
  Te  Te157  1  0.23986518  0.41836426  0.57437316  1
  Te  Te158  1  0.22518091  0.40899632  0.89905524  1
  Te  Te159  1  0.25502747  0.75846042  0.22351060  1
  Te  Te160  1  0.23771543  0.73235986  0.61028884  1
  Te  Te161  1  0.22887531  0.74993715  0.92979787  1
  Te  Te162  1  0.59224081  0.09579717  0.26229864  1
  Te  Te163  1  0.60047184  0.08977269  0.55314304  1
  Te  Te164  1  0.59626847  0.07155672  0.90858220  1
  Te  Te165  1  0.58293556  0.40166241  0.25563002  1
  Te  Te166  1  0.58653553  0.42110203  0.55821669  1
  Te  Te167  1  0.56854134  0.42292509  0.91259520  1
  Te  Te168  1  0.58241812  0.74880671  0.24330618  1
  Te  Te169  1  0.58372644  0.75010984  0.59166405  1
  Te  Te170  1  0.58777873  0.74514182  0.91684798  1
  Te  Te171  1  0.94833882  0.07438759  0.24860776  1
  Te  Te172  1  0.91882471  0.08702554  0.58769659  1
  Te  Te173  1  0.91485244  0.06520045  0.91386296  1
  Te  Te174  1  0.97250079  0.42800919  0.20394477  1
  Te  Te175  1  0.91981913  0.40837939  0.57334564  1
  Te  Te176  1  0.91030189  0.44264289  0.90133416  1
  Te  Te177  1  0.93002155  0.75279599  0.24311690  1
  Te  Te178  1  0.96243593  0.72827569  0.58896077  1
  Te  Te179  1  0.89510868  0.75692546  0.94240707  1
