# generated using pymatgen
data_In2Te3
_symmetry_space_group_name_H-M   'P 1'
_cell_length_a   18.90332542
_cell_length_b   18.90299454
_cell_length_c   18.92713176
_cell_angle_alpha   89.97731797
_cell_angle_beta   89.83258910
_cell_angle_gamma   90.06874861
_symmetry_Int_Tables_number   1
_chemical_formula_structural   In2Te3
_chemical_formula_sum   'In72 Te108'
_cell_volume   6763.18744217
_cell_formula_units_Z   36
loop_
 _symmetry_equiv_pos_site_id
 _symmetry_equiv_pos_as_xyz
  1  'x, y, z'
loop_
 _atom_site_type_symbol
 _atom_site_label
 _atom_site_symmetry_multiplicity
 _atom_site_fract_x
 _atom_site_fract_y
 _atom_site_fract_z
 _atom_site_occupancy
  In  In0  1  0.33860652  0.53370840  0.18283447  1
  In  In1  1  0.65169225  -0.01656659  -0.00191725  1
  In  In2  1  0.54454603  0.64726549  0.47524516  1
  In  In3  1  0.35486312  0.83556017  0.49923375  1
  In  In4  1  0.36513765  0.48725395  0.81372463  1
  In  In5  1  0.50694214  0.02931554  0.50720967  1
  In  In6  1  0.50878767  0.49996886  0.65872532  1
  In  In7  1  0.18869030  0.65794726  0.51022500  1
  In  In8  1  -0.01303461  0.51128916  0.50858806  1
  In  In9  1  0.15864128  0.47887602  -0.00601861  1
  In  In10  1  0.82002526  0.51532707  0.00357598  1
  In  In11  1  0.82315382  0.32885661  0.19687366  1
  In  In12  1  0.33034157  0.48917815  0.48949673  1
  In  In13  1  0.15412847  0.33289150  0.15426524  1
  In  In14  1  0.66237661  0.34030575  0.35149238  1
  In  In15  1  0.80892154  0.02297812  0.79919328  1
  In  In16  1  0.81931682  0.49785460  0.64209840  1
  In  In17  1  0.51218455  0.82281990  0.66061789  1
  In  In18  1  0.17174740  0.82125595  0.33253489  1
  In  In19  1  0.18071096  0.32030827  0.51002766  1
  In  In20  1  -0.01009530  0.65304867  0.34881935  1
  In  In21  1  0.67694700  0.17203647  0.49826846  1
  In  In22  1  -0.01904454  0.33473326  0.33570385  1
  In  In23  1  0.17679962  0.68261907  0.16928641  1
  In  In24  1  0.67334853  0.47362275  0.17839380  1
  In  In25  1  0.34169356  0.67276791  0.67199264  1
  In  In26  1  0.47564981  0.69495215  0.15321129  1
  In  In27  1  0.16593370  0.14517359  -0.01710912  1
  In  In28  1  0.03197204  0.84647885  0.83077715  1
  In  In29  1  0.00503351  0.01555452  0.66023396  1
  In  In30  1  0.50825677  0.84603143  0.33097399  1
  In  In31  1  0.32243046  0.18058519  0.81578363  1
  In  In32  1  0.46342947  0.68427721  0.83740190  1
  In  In33  1  0.86011245  0.67829644  0.82597294  1
  In  In34  1  0.01029222  0.19170205  0.81942930  1
  In  In35  1  0.50264969  0.48485186  0.01271994  1
  In  In36  1  0.21706992  0.68045079  0.87228556  1
  In  In37  1  0.33996753  0.14533155  0.16495055  1
  In  In38  1  0.49042855  0.33726204  0.82980259  1
  In  In39  1  -0.00335932  0.82237608  0.15404834  1
  In  In40  1  0.67286804  0.82775012  0.84737225  1
  In  In41  1  0.15712100  0.52002096  0.34151351  1
  In  In42  1  0.49989832  0.15881858  0.34060843  1
  In  In43  1  0.49956300  0.18010330  0.64605856  1
  In  In44  1  0.02237661  0.44918824  0.80263206  1
  In  In45  1  0.34838324  0.34132377  -0.00877128  1
  In  In46  1  0.34927303  -0.01437134  0.01359053  1
  In  In47  1  -0.02203956  -0.01840694  0.34797223  1
  In  In48  1  0.82550823  -0.00885922  0.20144735  1
  In  In49  1  -0.03685396  0.15962188  0.47295396  1
  In  In50  1  0.33507753  0.33930497  0.34402863  1
  In  In51  1  0.83334317  0.14458887  0.00579615  1
  In  In52  1  -0.02401177  0.31897720  -0.00161740  1
  In  In53  1  0.81734053  0.31000350  0.82914590  1
  In  In54  1  0.18050027  0.19390345  0.35863904  1
  In  In55  1  -0.01866992  0.85711515  0.49298545  1
  In  In56  1  0.51278466  0.01295309  0.83781668  1
  In  In57  1  0.01356824  -0.00763059  -0.00656849  1
  In  In58  1  0.50296450  -0.03449292  0.15650201  1
  In  In59  1  0.00493762  0.68509985  0.66942842  1
  In  In60  1  0.68812254  0.67960271  0.00985991  1
  In  In61  1  0.64089585  0.19587920  0.14317729  1
  In  In62  1  0.81067948  0.68812940  0.18718637  1
  In  In63  1  0.16729447  0.15876917  0.65433638  1
  In  In64  1  0.62134709  0.49968924  0.83130089  1
  In  In65  1  0.15763231  -0.00465453  0.52402369  1
  In  In66  1  0.81526352  0.85463596  0.64378245  1
  In  In67  1  0.79395041  0.67227475  0.47601251  1
  In  In68  1  0.65615795  0.00100010  0.35115132  1
  In  In69  1  0.00250117  0.65577088  0.00027147  1
  In  In70  1  0.17403401  0.00420533  0.14743273  1
  In  In71  1  0.65975519  0.32582641  0.64777412  1
  Te  Te72  1  0.06926650  0.09786167  0.09038161  1
  Te  Te73  1  0.08805690  0.07751522  0.41481189  1
  Te  Te74  1  0.09965408  0.07211721  0.77151098  1
  Te  Te75  1  0.05110270  0.42089917  0.08564286  1
  Te  Te76  1  0.08702700  0.41342552  0.42291739  1
  Te  Te77  1  0.12023076  0.38179174  0.71898643  1
  Te  Te78  1  0.09907825  0.75754009  0.06249897  1
  Te  Te79  1  0.07988611  0.74253393  0.43426747  1
  Te  Te80  1  0.11032936  0.72692575  0.77168659  1
  Te  Te81  1  0.44584841  0.08582483  0.07612722  1
  Te  Te82  1  0.41464967  0.04751086  0.39226604  1
  Te  Te83  1  0.42082681  0.09115927  0.74211278  1
  Te  Te84  1  0.40647600  0.41589175  0.10821287  1
  Te  Te85  1  0.43107450  0.43672566  0.39661844  1
  Te  Te86  1  0.41439188  0.38927630  0.70851478  1
  Te  Te87  1  0.37200945  0.76851965  0.07954394  1
  Te  Te88  1  0.43652344  0.74014420  0.41556140  1
  Te  Te89  1  0.39299852  0.78985009  0.75432495  1
  Te  Te90  1  0.73589137  0.07177292  0.10018862  1
  Te  Te91  1  0.75946772  0.08645070  0.41137443  1
  Te  Te92  1  0.74391462  0.10153482  0.69749978  1
  Te  Te93  1  0.75818635  0.39774724  0.07508673  1
  Te  Te94  1  0.74160286  0.44072299  0.42454349  1
  Te  Te95  1  0.73220194  0.42493917  0.75605321  1
  Te  Te96  1  0.76052594  0.78258611  0.08469533  1
  Te  Te97  1  0.76128718  0.79083941  0.39314435  1
  Te  Te98  1  0.75683227  0.75274366  0.74415581  1
  Te  Te99  1  0.08043996  0.24814412  0.25712241  1
  Te  Te100  1  0.07137146  0.22899317  0.56146666  1
  Te  Te101  1  0.09603904  0.26552192  0.92078576  1
  Te  Te102  1  0.07362913  0.59087710  0.23737899  1
  Te  Te103  1  0.09045974  0.58099702  0.59636505  1
  Te  Te104  1  0.07035403  0.56175954  0.90212357  1
  Te  Te105  1  0.08331277  0.91385256  0.24819296  1
  Te  Te106  1  0.07983216  0.89067267  0.60180079  1
  Te  Te107  1  0.12443589  0.90951535  0.93660559  1
  Te  Te108  1  0.41404027  0.24670077  0.25008020  1
  Te  Te109  1  0.40484014  0.25640952  0.56663263  1
  Te  Te110  1  0.42327389  0.23238424  0.91833163  1
  Te  Te111  1  0.45761737  0.58464288  0.25006887  1
  Te  Te112  1  0.42196073  0.59624124  0.56878481  1
  Te  Te113  1  0.41149964  0.57348450  0.92985280  1
  Te  Te114  1  0.40703499  0.93363738  0.26617736  1
  Te  Te115  1  0.42634285  0.93040266  0.59325581  1
  Te  Te116  1  0.44103596  0.91374655  0.92223562  1
  Te  Te117  1  0.72709543  0.23160635  0.26189406  1
  Te  Te118  1  0.76899622  0.26993933  0.56367181  1
  Te  Te119  1  0.74059252  0.21478767  0.91338486  1
  Te  Te120  1  0.72006840  0.59320132  0.25879160  1
  Te  Te121  1  0.73119783  0.60574164  0.59432794  1
  Te  Te122  1  0.74535725  0.59118739  0.89390769  1
  Te  Te123  1  0.73253795  0.89582879  0.27169558  1
  Te  Te124  1  0.70968771  0.90886414  0.55982833  1
  Te  Te125  1  0.76738569  0.92858512  0.91023734  1
  Te  Te126  1  0.25235253  0.24318951  0.07662937  1
  Te  Te127  1  0.29901505  0.22937227  0.45424537  1
  Te  Te128  1  0.22792999  0.26828180  0.73897406  1
  Te  Te129  1  0.24105944  0.57824908  0.07461291  1
  Te  Te130  1  0.27120694  0.60089453  0.39727732  1
  Te  Te131  1  0.25772019  0.58267145  0.76089067  1
  Te  Te132  1  0.27174924  0.89909277  0.10945129  1
  Te  Te133  1  0.24571715  0.91370221  0.42629310  1
  Te  Te134  1  0.15562019  0.92485696  0.78448917  1
  Te  Te135  1  0.57095705  0.29253542  0.06128258  1
  Te  Te136  1  0.56334366  0.25246379  0.43904019  1
  Te  Te137  1  0.58523759  0.24640962  0.75313217  1
  Te  Te138  1  0.60242560  0.57610949  0.08154295  1
  Te  Te139  1  0.65173949  0.56045012  0.40731964  1
  Te  Te140  1  0.56450969  0.61089861  0.74681488  1
  Te  Te141  1  0.59805448  0.87647991  0.08605210  1
  Te  Te142  1  0.59218910  0.90762885  0.45681846  1
  Te  Te143  1  0.59442132  0.91401543  0.75162491  1
  Te  Te144  1  0.90634113  0.23548719  0.10272085  1
  Te  Te145  1  0.88169011  0.27677683  0.43031318  1
  Te  Te146  1  0.91208683  0.25446201  0.73157979  1
  Te  Te147  1  0.90278699  0.59724115  0.09911089  1
  Te  Te148  1  0.88416111  0.56264026  0.40973604  1
  Te  Te149  1  0.92559906  0.57214176  0.73896841  1
  Te  Te150  1  0.91251879  0.92804912  0.08751441  1
  Te  Te151  1  0.86375810  0.90831043  0.41681475  1
  Te  Te152  1  0.91621553  0.91551778  0.74767954  1
  Te  Te153  1  0.23600027  0.08811674  0.25870609  1
  Te  Te154  1  0.26381715  0.06541985  0.59617258  1
  Te  Te155  1  0.27143351  0.06899866  0.90922773  1
  Te  Te156  1  0.23608820  0.41966776  0.25051990  1
  Te  Te157  1  0.23692448  0.43232411  0.58942303  1
  Te  Te158  1  0.25602342  0.41313641  0.89738877  1
  Te  Te159  1  0.27317299  0.74079207  0.26312648  1
  Te  Te160  1  0.25258966  0.76744095  0.59255178  1
  Te  Te161  1  0.30783452  0.77541616  0.93736780  1
  Te  Te162  1  0.58032731  0.07604281  0.23882523  1
  Te  Te163  1  0.61727514  0.07470499  0.61036484  1
  Te  Te164  1  0.61219254  0.09655173  0.91090299  1
  Te  Te165  1  0.57120878  0.39675559  0.25093354  1
  Te  Te166  1  0.58958584  0.42366219  0.56381874  1
  Te  Te167  1  0.59725871  0.38731282  0.93761743  1
  Te  Te168  1  0.57861542  0.75126844  0.24268396  1
  Te  Te169  1  0.60277332  0.73825263  0.57722976  1
  Te  Te170  1  0.57475449  0.74061768  0.92486638  1
  Te  Te171  1  0.91244259  0.08779151  0.27092873  1
  Te  Te172  1  0.90084506  0.07000789  0.57307536  1
  Te  Te173  1  0.93032534  0.08346626  0.90293333  1
  Te  Te174  1  0.91116698  0.43226780  0.25099518  1
  Te  Te175  1  0.92754141  0.40991311  0.59642721  1
  Te  Te176  1  0.90143219  0.41888151  0.90944342  1
  Te  Te177  1  0.91902655  0.76077186  0.26893531  1
  Te  Te178  1  0.90515724  0.74007525  0.56914141  1
  Te  Te179  1  0.92847253  0.76515342  0.92558568  1
