# generated using pymatgen
data_In2Te3
_symmetry_space_group_name_H-M   'P 1'
_cell_length_a   19.05579410
_cell_length_b   19.03722994
_cell_length_c   19.04102709
_cell_angle_alpha   90.27167219
_cell_angle_beta   89.89705366
_cell_angle_gamma   89.94049420
_symmetry_Int_Tables_number   1
_chemical_formula_structural   In2Te3
_chemical_formula_sum   'In72 Te108'
_cell_volume   6907.41193503
_cell_formula_units_Z   36
loop_
 _symmetry_equiv_pos_site_id
 _symmetry_equiv_pos_as_xyz
  1  'x, y, z'
loop_
 _atom_site_type_symbol
 _atom_site_label
 _atom_site_symmetry_multiplicity
 _atom_site_fract_x
 _atom_site_fract_y
 _atom_site_fract_z
 _atom_site_occupancy
  In  In0  1  0.81199102  0.36315541  0.85511883  1
  In  In1  1  0.65737310  -0.00635092  0.35685945  1
  In  In2  1  0.66504923  0.48274085  0.51804540  1
  In  In3  1  0.83072949  0.85250787  0.35252574  1
  In  In4  1  -0.01150946  0.31507324  0.65851622  1
  In  In5  1  0.35610210  0.86739444  0.19249073  1
  In  In6  1  0.82077018  0.81652817  0.67535717  1
  In  In7  1  0.16027687  0.83749376  0.65691173  1
  In  In8  1  0.32394335  0.50660034  0.15776106  1
  In  In9  1  0.83897709  0.62882616  0.50877280  1
  In  In10  1  0.17674812  -0.01831728  0.18077713  1
  In  In11  1  0.82553224  0.65185841  0.14376131  1
  In  In12  1  0.50246761  0.49949434  0.35901055  1
  In  In13  1  0.15341974  0.33481416  0.84348928  1
  In  In14  1  0.69174115  0.35086050  0.03095272  1
  In  In15  1  0.34826982  0.14280534  0.83329247  1
  In  In16  1  0.68151648  0.65978152  0.30297256  1
  In  In17  1  0.48342972  0.17253017  0.32772090  1
  In  In18  1  0.84528678  0.52730970  0.31783839  1
  In  In19  1  0.02223356  0.13306544  0.49372944  1
  In  In20  1  0.33646004  0.33254728  0.64468132  1
  In  In21  1  0.84648197  0.00123246  0.15077951  1
  In  In22  1  -0.00413792  0.49435689  0.82642506  1
  In  In23  1  0.00069442  0.16919983  0.15366709  1
  In  In24  1  0.65885637  0.17242182  0.83020520  1
  In  In25  1  0.50524044  0.50293367  0.00267076  1
  In  In26  1  0.66374113  0.82555511  0.15610299  1
  In  In27  1  -0.00491663  -0.02507604  0.00755612  1
  In  In28  1  0.65167353  0.16977421  0.16618224  1
  In  In29  1  0.50922445  0.67886101  0.51948149  1
  In  In30  1  0.52269371  -0.02775096  0.81953288  1
  In  In31  1  0.67775036  0.51309726  0.85075039  1
  In  In32  1  0.38096278  0.14514402  0.14034255  1
  In  In33  1  0.34292163  0.86795922  0.46671806  1
  In  In34  1  0.17090986  0.17579969  0.66678410  1
  In  In35  1  0.65426233  0.34395740  0.33921021  1
  In  In36  1  0.82076185  0.48779514  0.68045758  1
  In  In37  1  0.84634749  0.32048624  0.49077442  1
  In  In38  1  0.18084983  0.33929186  0.16901111  1
  In  In39  1  0.18538260  0.15577260  0.32707729  1
  In  In40  1  0.02031408  0.83133756  0.51351411  1
  In  In41  1  0.78310811  0.16538461  0.66506390  1
  In  In42  1  0.33134993  0.68009695  0.00165359  1
  In  In43  1  -0.01848819  0.80523021  0.81064999  1
  In  In44  1  -0.00514845  0.16583260  0.85270692  1
  In  In45  1  0.83483116  -0.04062017  0.85300672  1
  In  In46  1  0.16057797  0.49941380  0.33373724  1
  In  In47  1  0.66210799  -0.01225937  -0.00218234  1
  In  In48  1  0.32041523  0.15624795  0.49029169  1
  In  In49  1  0.53071782  0.65636059  0.17062814  1
  In  In50  1  0.00220080  0.51856691  0.17958046  1
  In  In51  1  0.82338772  0.14353516  0.31322164  1
  In  In52  1  0.34482270  0.48974495  0.51151091  1
  In  In53  1  0.50053096  0.66223607  0.82625379  1
  In  In54  1  0.49838103  0.83657193  -0.00486791  1
  In  In55  1  0.14664730  0.51780810  -0.00644200  1
  In  In56  1  0.32516267  0.32362133  -0.00130264  1
  In  In57  1  0.17124063  0.01478510  0.83299765  1
  In  In58  1  0.29556514  0.53446609  0.79738016  1
  In  In59  1  0.50915953  0.31329518  0.50594622  1
  In  In60  1  -0.00027093  0.35358828  0.34543578  1
  In  In61  1  0.47688849  0.33789243  0.82721306  1
  In  In62  1  0.00065579  0.69668409  0.33704566  1
  In  In63  1  0.32548856  0.69294720  0.32194048  1
  In  In64  1  0.84385977  -0.00431431  0.52440565  1
  In  In65  1  -0.02426975  0.32500973  -0.00279122  1
  In  In66  1  0.16920291  0.84079350  0.00032743  1
  In  In67  1  0.35115762  -0.01598176  0.66638449  1
  In  In68  1  0.17707366  0.66680203  0.51601619  1
  In  In69  1  0.67686154  0.82148028  0.51830823  1
  In  In70  1  -0.00462617  0.83779844  0.15263189  1
  In  In71  1  0.35459512  0.81203719  0.84119389  1
  Te  Te72  1  0.08639100  0.06493070  0.08610956  1
  Te  Te73  1  0.12292302  0.05426801  0.41759465  1
  Te  Te74  1  0.07361743  0.09170144  0.74734541  1
  Te  Te75  1  0.07999385  0.41416079  0.08569256  1
  Te  Te76  1  0.08790307  0.42498788  0.43590216  1
  Te  Te77  1  0.08412963  0.40788338  0.73433313  1
  Te  Te78  1  0.07126761  0.75218711  0.06148733  1
  Te  Te79  1  0.11150722  0.76234295  0.41521726  1
  Te  Te80  1  0.08180417  0.73263036  0.72691915  1
  Te  Te81  1  0.46102808  0.04501743  0.07309551  1
  Te  Te82  1  0.41868494  0.07291022  0.41638648  1
  Te  Te83  1  0.44556191  0.07666534  0.73868117  1
  Te  Te84  1  0.41489956  0.41224372  0.08368384  1
  Te  Te85  1  0.41502232  0.39257764  0.41796447  1
  Te  Te86  1  0.39535294  0.43447673  0.74241438  1
  Te  Te87  1  0.42472079  0.74730560  0.09982184  1
  Te  Te88  1  0.42995591  0.75111934  0.41240388  1
  Te  Te89  1  0.40456838  0.72647167  0.73204403  1
  Te  Te90  1  0.74582299  0.08438988  0.07873143  1
  Te  Te91  1  0.75566241  0.08037339  0.43155247  1
  Te  Te92  1  0.75390334  0.06701976  0.77591493  1
  Te  Te93  1  0.73847744  0.48104619  0.07349494  1
  Te  Te94  1  0.76753642  0.42987362  0.41067617  1
  Te  Te95  1  0.71815301  0.40113345  0.74568156  1
  Te  Te96  1  0.73081132  0.73197189  0.06597124  1
  Te  Te97  1  0.76439262  0.73142688  0.41510496  1
  Te  Te98  1  0.76197806  0.73261651  0.78108601  1
  Te  Te99  1  0.08384168  0.25751350  0.25428695  1
  Te  Te100  1  0.08871406  0.24956054  0.56451480  1
  Te  Te101  1  0.09016523  0.24127399  0.94268016  1
  Te  Te102  1  0.09642550  0.60961314  0.25382720  1
  Te  Te103  1  0.08200158  0.61057246  0.61137097  1
  Te  Te104  1  0.08558096  0.59397457  0.88712236  1
  Te  Te105  1  0.08128003  0.89799399  0.25249494  1
  Te  Te106  1  0.08481881  0.94034067  0.58644603  1
  Te  Te107  1  0.07281268  0.90917876  0.89487828  1
  Te  Te108  1  0.41432864  0.25469008  0.23018793  1
  Te  Te109  1  0.41946987  0.22204221  0.58656784  1
  Te  Te110  1  0.42498372  0.23629530  0.92619317  1
  Te  Te111  1  0.42003580  0.58272405  0.25074151  1
  Te  Te112  1  0.40675622  0.59936109  0.58629534  1
  Te  Te113  1  0.39978355  0.57407219  0.91765507  1
  Te  Te114  1  0.38778877  0.93495769  0.32411995  1
  Te  Te115  1  0.44080221  0.90417238  0.57843928  1
  Te  Te116  1  0.41157357  0.92986438  0.91472992  1
  Te  Te117  1  0.74659898  0.25536417  0.25159139  1
  Te  Te118  1  0.73162967  0.27809320  0.57546884  1
  Te  Te119  1  0.74717014  0.24929663  0.92730119  1
  Te  Te120  1  0.72937592  0.54123056  0.21775158  1
  Te  Te121  1  0.73142331  0.58884384  0.60400383  1
  Te  Te122  1  0.79132812  0.60848714  0.87186765  1
  Te  Te123  1  0.74872461  0.92632343  0.24612415  1
  Te  Te124  1  0.74032639  0.92689029  0.60873150  1
  Te  Te125  1  0.71367042  0.89060050  0.89992030  1
  Te  Te126  1  0.25423098  0.23324388  0.09403411  1
  Te  Te127  1  0.24767704  0.25477664  0.41269823  1
  Te  Te128  1  0.25713303  0.25440877  0.76450285  1
  Te  Te129  1  0.23299723  0.60238327  0.08693128  1
  Te  Te130  1  0.26453734  0.58742944  0.41306239  1
  Te  Te131  1  0.20917228  0.59273699  0.69637046  1
  Te  Te132  1  0.27040300  0.92047765  0.07594874  1
  Te  Te133  1  0.25202902  0.96093520  0.39451280  1
  Te  Te134  1  0.25792810  0.91076289  0.76194488  1
  Te  Te135  1  0.58486588  0.26561083  0.08029815  1
  Te  Te136  1  0.59540544  0.22893342  0.41448909  1
  Te  Te137  1  0.56856553  0.25282113  0.74354779  1
  Te  Te138  1  0.60282890  0.60362265  0.05155098  1
  Te  Te139  1  0.60585303  0.59233718  0.41977419  1
  Te  Te140  1  0.58653719  0.56914597  0.75271582  1
  Te  Te141  1  0.56022855  0.92962460  0.10655835  1
  Te  Te142  1  0.58473669  0.91823818  0.45744841  1
  Te  Te143  1  0.51219868  0.86240739  0.71792856  1
  Te  Te144  1  0.89677510  0.25055520  0.09340018  1
  Te  Te145  1  0.92789402  0.22457124  0.40769940  1
  Te  Te146  1  0.91497729  0.27254044  0.78255930  1
  Te  Te147  1  0.94406483  0.60176384  0.07519233  1
  Te  Te148  1  0.94836765  0.57920083  0.41599533  1
  Te  Te149  1  0.91325354  0.58301034  0.74148535  1
  Te  Te150  1  0.88428356  0.88598907  0.06160378  1
  Te  Te151  1  0.93608755  0.92844699  0.42428230  1
  Te  Te152  1  0.91900260  0.91716285  0.73320485  1
  Te  Te153  1  0.27711501  0.08108401  0.23499851  1
  Te  Te154  1  0.25019014  0.06992274  0.59408628  1
  Te  Te155  1  0.25106827  0.08996264  0.92748669  1
  Te  Te156  1  0.26702802  0.41616336  0.26465976  1
  Te  Te157  1  0.23819857  0.41854494  0.58230788  1
  Te  Te158  1  0.24915384  0.42816186  0.91671425  1
  Te  Te159  1  0.24846348  0.77631502  0.23172712  1
  Te  Te160  1  0.26380775  0.77904355  0.56536472  1
  Te  Te161  1  0.23663763  0.74187102  0.90252337  1
  Te  Te162  1  0.57873208  0.07461031  0.25811561  1
  Te  Te163  1  0.64150489  0.16094720  0.62156029  1
  Te  Te164  1  0.57500166  0.08057861  0.91707400  1
  Te  Te165  1  0.57063491  0.42475800  0.25240085  1
  Te  Te166  1  0.55383176  0.42462231  0.58956748  1
  Te  Te167  1  0.58129484  0.40534536  0.91573011  1
  Te  Te168  1  0.58029115  0.76624991  0.26707328  1
  Te  Te169  1  0.59310267  0.75169178  0.61877087  1
  Te  Te170  1  0.58208880  0.75054025  0.91149634  1
  Te  Te171  1  0.93845635  0.06773551  0.24952380  1
  Te  Te172  1  0.90872734  0.11223832  0.59601976  1
  Te  Te173  1  0.90850554  0.07218409  0.93140598  1
  Te  Te174  1  0.91131694  0.41391375  0.23952252  1
  Te  Te175  1  0.91661909  0.42093372  0.57868820  1
  Te  Te176  1  0.90624835  0.44401606  0.94015797  1
  Te  Te177  1  0.89076077  0.75034236  0.24760923  1
  Te  Te178  1  0.90875887  0.74728473  0.57241706  1
  Te  Te179  1  0.87560489  0.74281606  0.89019467  1
