# generated using pymatgen
data_In2Te3
_symmetry_space_group_name_H-M   'P 1'
_cell_length_a   18.97363723
_cell_length_b   18.99214477
_cell_length_c   19.02406888
_cell_angle_alpha   90.08889403
_cell_angle_beta   90.26897648
_cell_angle_gamma   90.02211295
_symmetry_Int_Tables_number   1
_chemical_formula_structural   In2Te3
_chemical_formula_sum   'In72 Te108'
_cell_volume   6855.24013675
_cell_formula_units_Z   36
loop_
 _symmetry_equiv_pos_site_id
 _symmetry_equiv_pos_as_xyz
  1  'x, y, z'
loop_
 _atom_site_type_symbol
 _atom_site_label
 _atom_site_symmetry_multiplicity
 _atom_site_fract_x
 _atom_site_fract_y
 _atom_site_fract_z
 _atom_site_occupancy
  In  In0  1  0.82497452  0.36199738  0.52350012  1
  In  In1  1  0.34677824  0.68641065  -0.02751169  1
  In  In2  1  0.14612824  0.17586121  0.34400447  1
  In  In3  1  0.67077732  0.64260520  0.68174079  1
  In  In4  1  0.66324893  0.01929818  0.00440410  1
  In  In5  1  0.52708775  0.31768252  0.83122158  1
  In  In6  1  0.32400779  0.48182303  0.16424599  1
  In  In7  1  0.13782618  0.47798367  0.35969222  1
  In  In8  1  0.00767760  0.84848444  0.18573313  1
  In  In9  1  0.33042406  0.16503028  0.14269329  1
  In  In10  1  0.68595655  0.69104959  0.31743492  1
  In  In11  1  0.33014975  0.84624493  0.16887713  1
  In  In12  1  0.16076246  0.66775921  0.17798038  1
  In  In13  1  -0.02416438  0.67309644  0.01515525  1
  In  In14  1  -0.01696973  0.16514340  0.18284027  1
  In  In15  1  0.34066139  0.32756057  0.32551861  1
  In  In16  1  0.01900387  0.48871038  0.80800880  1
  In  In17  1  0.67894911  0.48899450  0.83969253  1
  In  In18  1  0.17326138  0.67498105  0.83382151  1
  In  In19  1  -0.01607531  0.02466848  -0.01936407  1
  In  In20  1  0.84361080  0.44829945  0.32813403  1
  In  In21  1  0.80535976  0.18581895  0.63642272  1
  In  In22  1  0.31523851  0.83911097  0.49159878  1
  In  In23  1  0.50628212  0.62169261  0.54607080  1
  In  In24  1  -0.00097830  0.66977136  0.34400447  1
  In  In25  1  0.16486247  0.00476267  0.48929465  1
  In  In26  1  0.47899195  0.85404775  0.32898278  1
  In  In27  1  0.81624130  0.02380626  0.21982848  1
  In  In28  1  0.34308480  0.50362264  0.80831269  1
  In  In29  1  0.66789992  0.48662928  0.15643430  1
  In  In30  1  0.02880388  0.25614925  0.52572094  1
  In  In31  1  -0.01013947  0.18251490  0.82189381  1
  In  In32  1  0.82783835  0.63277130  0.50840081  1
  In  In33  1  0.16988009  0.47150289  0.63443981  1
  In  In34  1  0.50802625  0.49762486  0.39180799  1
  In  In35  1  0.50097559  0.17054730  0.00071753  1
  In  In36  1  0.81961365  -0.00282823  0.44256296  1
  In  In37  1  0.81911191  0.66589911  0.15160299  1
  In  In38  1  0.14930298  -0.00619953  0.17534408  1
  In  In39  1  0.36375495  0.35085542  -0.03499317  1
  In  In40  1  0.16559430  0.63847733  0.49861104  1
  In  In41  1  0.82891538  0.32926398  0.81281961  1
  In  In42  1  0.66611027  0.87582947  0.17883080  1
  In  In43  1  0.01733590  0.84568208  0.81929797  1
  In  In44  1  0.83216542  0.86261944  0.02076479  1
  In  In45  1  0.84226668  0.79790295  0.64861757  1
  In  In46  1  0.17722096  0.01208969  0.84012940  1
  In  In47  1  0.65651797  0.85034796  0.84972909  1
  In  In48  1  0.16176688  0.80889121  0.64343809  1
  In  In49  1  0.31905088  0.67236914  0.33002849  1
  In  In50  1  0.50081049  0.64060871  0.16840239  1
  In  In51  1  0.50305273  0.00034721  0.84224126  1
  In  In52  1  0.33746548  -0.01209072  0.64426887  1
  In  In53  1  0.33130935  0.30434117  0.67034874  1
  In  In54  1  0.50639096  0.67439361  0.82833125  1
  In  In55  1  0.52315379  0.16556776  0.68363951  1
  In  In56  1  -0.00078536  0.32969387  0.01408666  1
  In  In57  1  0.50226484  0.00725943  0.48910593  1
  In  In58  1  0.32540954  0.16541440  0.50693103  1
  In  In59  1  0.18342384  0.17063570  -0.01522646  1
  In  In60  1  0.84969737  0.65377490  0.83156939  1
  In  In61  1  -0.00614970  0.00937083  0.63574328  1
  In  In62  1  0.65246943  0.31170982  0.34750679  1
  In  In63  1  0.34888513  0.84281427  0.82406443  1
  In  In64  1  0.82615228  0.50319129  -0.00403400  1
  In  In65  1  0.49896881  0.32395588  0.17915386  1
  In  In66  1  0.68376686  -0.01259531  0.68339837  1
  In  In67  1  0.65725594  0.16628493  0.19448059  1
  In  In68  1  0.66977302  0.80049455  0.50665218  1
  In  In69  1  0.86664100  0.03849989  0.82674315  1
  In  In70  1  0.13513131  0.30914717  0.15591715  1
  In  In71  1  0.18683591  0.50385531  -0.02092749  1
  Te  Te72  1  0.07716242  0.10657370  0.07668394  1
  Te  Te73  1  0.07094498  0.11905077  0.46074202  1
  Te  Te74  1  0.06974586  0.07431905  0.75115608  1
  Te  Te75  1  0.09378420  0.43282631  0.07684755  1
  Te  Te76  1  0.06860826  0.38969563  0.45787529  1
  Te  Te77  1  0.08899223  0.38549090  0.72767487  1
  Te  Te78  1  0.08017470  0.75777424  0.08582191  1
  Te  Te79  1  0.10386152  0.74279116  0.41492332  1
  Te  Te80  1  0.06949797  0.73155217  0.73610526  1
  Te  Te81  1  0.43169847  0.07432191  0.08670732  1
  Te  Te82  1  0.38539074  0.06337561  0.41663367  1
  Te  Te83  1  0.41387992  0.07318773  0.74227260  1
  Te  Te84  1  0.43273758  0.42197379  0.07977747  1
  Te  Te85  1  0.44400475  0.36706904  0.42455608  1
  Te  Te86  1  0.42732990  0.39677857  0.74481508  1
  Te  Te87  1  0.41635704  0.74431417  0.09335066  1
  Te  Te88  1  0.41699868  0.74639795  0.41718337  1
  Te  Te89  1  0.39488742  0.72721864  0.74918972  1
  Te  Te90  1  0.75480509  0.09208216  0.09970639  1
  Te  Te91  1  0.71680621  0.09858082  0.41085119  1
  Te  Te92  1  0.75111312  0.10396658  0.75243786  1
  Te  Te93  1  0.74947004  0.40291305  0.06839812  1
  Te  Te94  1  0.72600831  0.42403825  0.41869607  1
  Te  Te95  1  0.77922671  0.44755838  0.73902127  1
  Te  Te96  1  0.73351264  0.76959102  0.08206429  1
  Te  Te97  1  0.78187440  0.74980902  0.41879317  1
  Te  Te98  1  0.74594880  0.75730622  0.75935763  1
  Te  Te99  1  0.04969426  0.27600216  0.27865343  1
  Te  Te100  1  0.13699068  0.25665059  0.63857712  1
  Te  Te101  1  0.08671978  0.26055926  0.91036537  1
  Te  Te102  1  0.07574989  0.56894745  0.25527886  1
  Te  Te103  1  0.06429101  0.55598574  0.57076227  1
  Te  Te104  1  0.07111837  0.59492821  0.92210719  1
  Te  Te105  1  0.06574687  0.94215045  0.28870529  1
  Te  Te106  1  0.07545226  0.90510101  0.56248975  1
  Te  Te107  1  0.08378440  0.92539393  0.92988151  1
  Te  Te108  1  0.42035268  0.22028750  0.25403796  1
  Te  Te109  1  0.43884005  0.23621775  0.57877787  1
  Te  Te110  1  0.41433208  0.23101355  0.89221746  1
  Te  Te111  1  0.40527473  0.56471150  0.26227563  1
  Te  Te112  1  0.39232980  0.53374250  0.57824304  1
  Te  Te113  1  0.42356232  0.57158584  0.91792619  1
  Te  Te114  1  0.41414923  0.94668272  0.23736107  1
  Te  Te115  1  0.43033818  0.89677908  0.57287954  1
  Te  Te116  1  0.43558581  0.90102688  0.92728265  1
  Te  Te117  1  0.75266079  0.25948733  0.25640434  1
  Te  Te118  1  0.70965191  0.28079523  0.57568488  1
  Te  Te119  1  0.77295297  0.23275207  0.90399487  1
  Te  Te120  1  0.75952969  0.57263146  0.25619378  1
  Te  Te121  1  0.74218433  0.54881168  0.59528906  1
  Te  Te122  1  0.74303939  0.60690240  0.92334005  1
  Te  Te123  1  0.76529365  0.90225782  0.28360484  1
  Te  Te124  1  0.75828919  0.90583409  0.57710514  1
  Te  Te125  1  0.76569177  0.94321202  0.90745323  1
  Te  Te126  1  0.26386130  0.28014118  0.06725471  1
  Te  Te127  1  0.24339239  0.26180544  0.42244299  1
  Te  Te128  1  0.23659274  0.21685238  0.74044995  1
  Te  Te129  1  0.25759477  0.59535147  0.08162887  1
  Te  Te130  1  0.25801331  0.55622313  0.40958805  1
  Te  Te131  1  0.22839606  0.57267643  0.73869073  1
  Te  Te132  1  0.24112883  0.92834569  0.08458732  1
  Te  Te133  1  0.26561223  0.94362391  0.40031406  1
  Te  Te134  1  0.23274361  0.90880002  0.73428758  1
  Te  Te135  1  0.59408762  0.25450961  0.08503598  1
  Te  Te136  1  0.58517114  0.18727770  0.39912582  1
  Te  Te137  1  0.61607949  0.27639539  0.71986205  1
  Te  Te138  1  0.60097401  0.58958595  0.07702706  1
  Te  Te139  1  0.59364343  0.62129089  0.41776261  1
  Te  Te140  1  0.57082267  0.55752133  0.75520573  1
  Te  Te141  1  0.57276989  0.94168164  0.08811400  1
  Te  Te142  1  0.59024942  0.89982438  0.42297981  1
  Te  Te143  1  0.56886251  0.90762602  0.74088220  1
  Te  Te144  1  0.90489962  0.27371909  0.11504027  1
  Te  Te145  1  0.90455914  0.26450081  0.44775210  1
  Te  Te146  1  0.91696052  0.25727071  0.71167591  1
  Te  Te147  1  0.91996869  0.56383576  0.10125806  1
  Te  Te148  1  0.91358498  0.55969662  0.40491168  1
  Te  Te149  1  0.92205565  0.57325428  0.73516371  1
  Te  Te150  1  0.92273608  0.94994016  0.10410204  1
  Te  Te151  1  0.94122620  0.94281903  0.38457720  1
  Te  Te152  1  0.91341489  0.91642203  0.73451942  1
  Te  Te153  1  0.23044569  0.10346561  0.24199877  1
  Te  Te154  1  0.23243908  0.08625614  0.59862674  1
  Te  Te155  1  0.27468651  0.06994753  0.93204057  1
  Te  Te156  1  0.22896131  0.40060548  0.24966826  1
  Te  Te157  1  0.28985763  0.40903989  0.57079146  1
  Te  Te158  1  0.24786944  0.40662128  0.88388683  1
  Te  Te159  1  0.23128439  0.77362903  0.26028440  1
  Te  Te160  1  0.26698201  0.72433193  0.57868874  1
  Te  Te161  1  0.24005472  0.77739594  0.91993553  1
  Te  Te162  1  0.60754677  0.07315496  0.30084706  1
  Te  Te163  1  0.59714404  0.07135893  0.59104252  1
  Te  Te164  1  0.59625324  0.10465742  0.90009853  1
  Te  Te165  1  0.57420554  0.42740782  0.26052884  1
  Te  Te166  1  0.52840027  0.46671170  0.54418081  1
  Te  Te167  1  0.60230033  0.39972350  0.92571763  1
  Te  Te168  1  0.57251171  0.75910549  0.24103904  1
  Te  Te169  1  0.57942147  0.74007758  0.61019149  1
  Te  Te170  1  0.56464249  0.76815714  0.92708282  1
  Te  Te171  1  0.91968356  0.09632399  0.29772844  1
  Te  Te172  1  0.87992547  0.07525749  0.56303556  1
  Te  Te173  1  0.89083096  0.14301277  0.94161272  1
  Te  Te174  1  0.93680449  0.38101302  0.23843847  1
  Te  Te175  1  0.95628026  0.42826438  0.55812330  1
  Te  Te176  1  0.92395830  0.41909442  0.90975980  1
  Te  Te177  1  0.91345727  0.74599976  0.24246790  1
  Te  Te178  1  0.93131469  0.72599471  0.56047364  1
  Te  Te179  1  0.91448088  0.77612827  0.91800116  1
