# generated using pymatgen
data_In2Te3
_symmetry_space_group_name_H-M   'P 1'
_cell_length_a   18.92264115
_cell_length_b   18.90398740
_cell_length_c   18.92630495
_cell_angle_alpha   90.00960018
_cell_angle_beta   90.01624273
_cell_angle_gamma   90.05155864
_symmetry_Int_Tables_number   1
_chemical_formula_structural   In2Te3
_chemical_formula_sum   'In72 Te108'
_cell_volume   6770.18921557
_cell_formula_units_Z   36
loop_
 _symmetry_equiv_pos_site_id
 _symmetry_equiv_pos_as_xyz
  1  'x, y, z'
loop_
 _atom_site_type_symbol
 _atom_site_label
 _atom_site_symmetry_multiplicity
 _atom_site_fract_x
 _atom_site_fract_y
 _atom_site_fract_z
 _atom_site_occupancy
  In  In0  1  0.68025229  0.83504269  0.18770112  1
  In  In1  1  0.16179589  0.64082078  0.16996375  1
  In  In2  1  0.35057694  0.16771096  0.49013647  1
  In  In3  1  0.16262410  0.34673457  0.50174443  1
  In  In4  1  0.20700028  0.64381762  0.80698057  1
  In  In5  1  0.51654754  0.84686114  0.33474269  1
  In  In6  1  0.66110030  0.31135644  0.32418687  1
  In  In7  1  0.65401197  0.68314315  -0.01925855  1
  In  In8  1  0.50927518  0.33081291  0.16692955  1
  In  In9  1  0.12882248  0.17939945  0.34358592  1
  In  In10  1  0.83335389  0.34583189  0.15655796  1
  In  In11  1  0.34302895  0.67656275  -0.02818102  1
  In  In12  1  0.83543972  0.49524839  0.33270605  1
  In  In13  1  0.34065412  -0.02985344  -0.00679738  1
  In  In14  1  0.68688888  0.00515617  0.33987157  1
  In  In15  1  0.15484513  0.81142118  0.32342541  1
  In  In16  1  0.78812170  -0.02017057  0.79597364  1
  In  In17  1  -0.02447807  0.84194606  0.49624785  1
  In  In18  1  0.32339208  0.16956988  0.15621278  1
  In  In19  1  0.82027226  0.68494217  0.49682091  1
  In  In20  1  0.49885016  0.52370625  0.65830807  1
  In  In21  1  0.67802388  0.16594685  0.85359498  1
  In  In22  1  0.17981977  0.82370051  0.65479323  1
  In  In23  1  0.15830643  0.48255862  -0.02105303  1
  In  In24  1  0.50333743  0.67149704  0.50717705  1
  In  In25  1  0.83545498  0.64045345  0.17186436  1
  In  In26  1  0.66684739  0.35193888  0.67573148  1
  In  In27  1  0.02183211  0.84665791  0.82772052  1
  In  In28  1  0.01368279  0.35194659  0.63973634  1
  In  In29  1  0.35804358  0.00191412  0.66209428  1
  In  In30  1  0.66145377  0.17713998  0.50260540  1
  In  In31  1  0.17215323  -0.02250907  0.15734669  1
  In  In32  1  -0.00689382  0.02967657  0.67223722  1
  In  In33  1  -0.02325791  0.17084100  0.49443309  1
  In  In34  1  -0.01559085  0.82318193  0.19354999  1
  In  In35  1  0.47768994  0.34548392  0.82278136  1
  In  In36  1  0.82791345  0.65604178  0.82347720  1
  In  In37  1  0.50657857  0.17963022  -0.01612707  1
  In  In38  1  0.01821498  0.63566285  0.63570093  1
  In  In39  1  0.12805938  0.49916049  0.34502535  1
  In  In40  1  0.50330954  0.16832687  0.64489984  1
  In  In41  1  0.49112199  0.81601967  -0.01493040  1
  In  In42  1  0.51048446  0.13624618  0.35666803  1
  In  In43  1  0.67654330  0.50417634  0.50541318  1
  In  In44  1  0.84496182  0.85075695  0.00174374  1
  In  In45  1  0.17722062  0.00286591  0.50036378  1
  In  In46  1  0.32785371  0.63320013  0.34579907  1
  In  In47  1  0.35116257  0.35457045  0.33199117  1
  In  In48  1  -0.11380246  0.14497408  0.20049336  1
  In  In49  1  -0.01582530  0.67884450  0.37245573  1
  In  In50  1  0.68718715  0.01768792  0.02864722  1
  In  In51  1  0.50048257  0.52393360  -0.01097466  1
  In  In52  1  -0.01475039  0.50271425  0.85948990  1
  In  In53  1  0.67009957  0.70697413  0.65094962  1
  In  In54  1  0.33538783  0.00148697  0.33127839  1
  In  In55  1  -0.00592316  0.33956908  0.01392763  1
  In  In56  1  0.50972255  -0.00518535  0.18068349  1
  In  In57  1  0.67721134  0.49446127  0.83218650  1
  In  In58  1  0.68990998  0.32070407  0.00328317  1
  In  In59  1  -0.01124350  0.66584774  0.02369996  1
  In  In60  1  0.13837789  -0.00257384  0.83618917  1
  In  In61  1  0.17539950  0.17413836  0.00157199  1
  In  In62  1  0.34253625  0.81138881  0.80524959  1
  In  In63  1  0.33685840  0.49165333  0.16607045  1
  In  In64  1  0.19184366  0.34870443  0.80530330  1
  In  In65  1  0.84760608  0.18079404  0.65275976  1
  In  In66  1  0.32636946  0.17358683  0.80581997  1
  In  In67  1  0.13168642  0.31229172  0.18309513  1
  In  In68  1  0.35400062  0.83434521  0.53090480  1
  In  In69  1  0.50418273  0.49743070  0.36700571  1
  In  In70  1  -0.00891677  0.17052206  0.84338220  1
  In  In71  1  -0.00900882  0.02383019  -0.00343380  1
  Te  Te72  1  0.09003822  0.08971729  0.09272797  1
  Te  Te73  1  0.06519474  0.06555903  0.42058193  1
  Te  Te74  1  0.09613853  0.11239080  0.74737301  1
  Te  Te75  1  0.08067930  0.43064692  0.09870651  1
  Te  Te76  1  0.05418181  0.38191791  0.40257041  1
  Te  Te77  1  0.07380418  0.43006044  0.75686485  1
  Te  Te78  1  0.08476658  0.75409713  0.10040370  1
  Te  Te79  1  0.09200626  0.75477018  0.44912308  1
  Te  Te80  1  0.08722499  0.73754607  0.74077322  1
  Te  Te81  1  0.42027714  0.08043782  0.08012305  1
  Te  Te82  1  0.42747735  0.04412422  0.44402004  1
  Te  Te83  1  0.44027635  0.08611433  0.75852925  1
  Te  Te84  1  0.42593776  0.41298287  0.07210256  1
  Te  Te85  1  0.39139094  0.44094764  0.44238914  1
  Te  Te86  1  0.40211755  0.43667091  0.73392560  1
  Te  Te87  1  0.42911145  0.72373134  0.08095088  1
  Te  Te88  1  0.40985582  0.75147884  0.40854767  1
  Te  Te89  1  0.43714037  0.70357480  0.77436648  1
  Te  Te90  1  0.79229583  0.10394901  0.08271793  1
  Te  Te91  1  0.76160947  0.11575457  0.40930389  1
  Te  Te92  1  0.73590847  0.10582396  0.72656616  1
  Te  Te93  1  0.72551938  0.42579080  0.09781888  1
  Te  Te94  1  0.74281289  0.40299713  0.41463368  1
  Te  Te95  1  0.77310136  0.42177505  0.74781431  1
  Te  Te96  1  0.76324204  0.75013757  0.08143108  1
  Te  Te97  1  0.77512188  0.79509960  0.40883918  1
  Te  Te98  1  0.74833592  0.76864634  0.76677720  1
  Te  Te99  1  0.02634642  0.22632517  0.24664192  1
  Te  Te100  1  0.08908903  0.23490838  0.57588637  1
  Te  Te101  1  0.09135063  0.26475380  0.91373923  1
  Te  Te102  1  0.04896632  0.59528588  0.25881508  1
  Te  Te103  1  0.10912616  0.55272697  0.55632119  1
  Te  Te104  1  0.09015048  0.60364399  0.91564378  1
  Te  Te105  1  0.07481993  0.92525796  0.26394489  1
  Te  Te106  1  0.08120805  0.92517564  0.59315549  1
  Te  Te107  1  0.08551247  0.91241332  0.94931144  1
  Te  Te108  1  0.42020145  0.23546196  0.25422541  1
  Te  Te109  1  0.40720708  0.26377324  0.58657122  1
  Te  Te110  1  0.39516240  0.25509426  0.91629257  1
  Te  Te111  1  0.43022206  0.57273919  0.25182413  1
  Te  Te112  1  0.39693495  0.60287554  0.58261548  1
  Te  Te113  1  0.42119411  0.58800697  0.87827280  1
  Te  Te114  1  0.40434766  0.90430999  0.23869919  1
  Te  Te115  1  0.44492126  0.88628610  0.63405229  1
  Te  Te116  1  0.42597397  0.91271351  0.88281686  1
  Te  Te117  1  0.77523232  0.24369514  0.25337372  1
  Te  Te118  1  0.75355835  0.27261261  0.57780386  1
  Te  Te119  1  0.77963045  0.25854451  0.90457642  1
  Te  Te120  1  0.74109442  0.59183041  0.27233372  1
  Te  Te121  1  0.75733430  0.58970105  0.59836039  1
  Te  Te122  1  0.75578716  0.57984836  0.93165122  1
  Te  Te123  1  0.76966040  0.94578427  0.22955249  1
  Te  Te124  1  0.73133818  0.84886736  0.61040531  1
  Te  Te125  1  0.73223769  0.91463522  0.92586801  1
  Te  Te126  1  0.24656073  0.27924085  0.08579614  1
  Te  Te127  1  0.24987825  0.25022928  0.40453418  1
  Te  Te128  1  0.27046166  0.26914626  0.70900852  1
  Te  Te129  1  0.25763880  0.57902591  0.06753518  1
  Te  Te130  1  0.21667349  0.58260033  0.43091515  1
  Te  Te131  1  0.25805370  0.53073305  0.72874428  1
  Te  Te132  1  0.26544438  0.88863085  0.08837180  1
  Te  Te133  1  0.25121061  0.90186321  0.41449348  1
  Te  Te134  1  0.24280849  0.92893461  0.74709448  1
  Te  Te135  1  0.59841504  0.23391900  0.09086210  1
  Te  Te136  1  0.55813872  0.26182351  0.42493825  1
  Te  Te137  1  0.58285287  0.25327305  0.75967515  1
  Te  Te138  1  0.58465920  0.59987784  0.08142826  1
  Te  Te139  1  0.60342220  0.60297040  0.41628217  1
  Te  Te140  1  0.60716551  0.59028521  0.73907593  1
  Te  Te141  1  0.58265949  0.90610532  0.08149675  1
  Te  Te142  1  0.59970345  0.92427781  0.42763606  1
  Te  Te143  1  0.66784665  0.91666501  0.72565499  1
  Te  Te144  1  0.90904035  0.22819869  0.06974550  1
  Te  Te145  1  0.92334826  0.30180967  0.44712343  1
  Te  Te146  1  0.93146990  0.26706050  0.74328747  1
  Te  Te147  1  0.91114466  0.55598583  0.07830752  1
  Te  Te148  1  0.91473163  0.56630011  0.44771043  1
  Te  Te149  1  0.92173629  0.57297190  0.73933178  1
  Te  Te150  1  0.92624379  0.93045871  0.10029896  1
  Te  Te151  1  0.87735382  0.90744658  0.40713765  1
  Te  Te152  1  0.91958905  0.91539024  0.74075066  1
  Te  Te153  1  0.23739676  0.09068985  0.25586201  1
  Te  Te154  1  0.25970660  0.09198269  0.58864544  1
  Te  Te155  1  0.25467884  0.07699238  0.91587252  1
  Te  Te156  1  0.23492989  0.41982734  0.25574176  1
  Te  Te157  1  0.21444323  0.44685371  0.60158795  1
  Te  Te158  1  0.26931419  0.42463910  0.90438140  1
  Te  Te159  1  0.25728672  0.72895838  0.24833598  1
  Te  Te160  1  0.27462399  0.72656276  0.59628213  1
  Te  Te161  1  0.23777244  0.76087178  0.90179531  1
  Te  Te162  1  0.60110368  0.09622510  0.24357372  1
  Te  Te163  1  0.58902034  0.07177525  0.57591030  1
  Te  Te164  1  0.58534573  0.06689845  0.92182263  1
  Te  Te165  1  0.58539050  0.42499190  0.25709166  1
  Te  Te166  1  0.57315172  0.41841049  0.57645558  1
  Te  Te167  1  0.58285762  0.40600819  0.91802031  1
  Te  Te168  1  0.58965106  0.74554719  0.25856647  1
  Te  Te169  1  0.58975941  0.78700104  0.55052207  1
  Te  Te170  1  0.56631237  0.74507191  0.87725312  1
  Te  Te171  1  0.87899706  0.04457313  0.31249271  1
  Te  Te172  1  0.88979956  0.06227072  0.56663950  1
  Te  Te173  1  0.89679687  0.06130754  0.88573729  1
  Te  Te174  1  0.92522585  0.42144052  0.24262381  1
  Te  Te175  1  0.92550934  0.42209117  0.54493792  1
  Te  Te176  1  0.89669679  0.40504635  0.92442351  1
  Te  Te177  1  0.88453425  0.74659446  0.27756911  1
  Te  Te178  1  0.91921825  0.74585660  0.59886151  1
  Te  Te179  1  0.92195713  0.75367079  0.90982015  1
