# generated using pymatgen
data_In2Te3
_symmetry_space_group_name_H-M   'P 1'
_cell_length_a   18.91518525
_cell_length_b   18.91174118
_cell_length_c   18.89535539
_cell_angle_alpha   90.00190526
_cell_angle_beta   90.10460657
_cell_angle_gamma   90.16759494
_symmetry_Int_Tables_number   1
_chemical_formula_structural   In2Te3
_chemical_formula_sum   'In72 Te108'
_cell_volume   6759.18910353
_cell_formula_units_Z   36
loop_
 _symmetry_equiv_pos_site_id
 _symmetry_equiv_pos_as_xyz
  1  'x, y, z'
loop_
 _atom_site_type_symbol
 _atom_site_label
 _atom_site_symmetry_multiplicity
 _atom_site_fract_x
 _atom_site_fract_y
 _atom_site_fract_z
 _atom_site_occupancy
  In  In0  1  0.47582705  0.32850538  0.52611113  1
  In  In1  1  0.00516293  0.15768757  0.50569556  1
  In  In2  1  -0.00206986  0.70499618  0.32662979  1
  In  In3  1  0.20805440  0.31606948  0.80394397  1
  In  In4  1  0.67019391  0.31779933  0.31527372  1
  In  In5  1  0.00256669  0.33711330  0.66303251  1
  In  In6  1  0.81868736  0.14814690  0.69083955  1
  In  In7  1  0.82712171  0.49312970  -0.00895528  1
  In  In8  1  0.00660352  0.67437121  -0.01691757  1
  In  In9  1  0.84933266  0.16147985  0.34771991  1
  In  In10  1  0.47810293  0.34116108  0.83657361  1
  In  In11  1  0.50666116  0.64186563  0.15725541  1
  In  In12  1  0.48155876  0.83901070  0.32806453  1
  In  In13  1  0.15760071  0.65500331  0.49012726  1
  In  In14  1  0.47498526  0.14257544  0.66092701  1
  In  In15  1  0.68505638  0.83536469  0.17039775  1
  In  In16  1  0.83428857  -0.00009204  0.14849341  1
  In  In17  1  0.02088493  0.01580065  0.68473026  1
  In  In18  1  0.18253732  0.01281225  0.84498557  1
  In  In19  1  0.33122105  0.66800412  0.33168957  1
  In  In20  1  0.03214428  0.32618628  0.01392984  1
  In  In21  1  0.00391469  0.51041060  0.81839379  1
  In  In22  1  0.83594973  0.30875856  0.84069846  1
  In  In23  1  0.00411167  0.84808399  0.15933842  1
  In  In24  1  0.14253125  0.84509218  0.66592293  1
  In  In25  1  0.84213121  0.01085095  0.87936329  1
  In  In26  1  0.64018070  0.68592448  -0.01191047  1
  In  In27  1  0.00874090  0.30419375  0.34324688  1
  In  In28  1  0.18798198  0.65767582  0.15635137  1
  In  In29  1  0.66786102  0.51337304  0.48003470  1
  In  In30  1  0.18837589  0.47447919  0.30436806  1
  In  In31  1  0.34137699  0.65488566  -0.02741963  1
  In  In32  1  0.59389249  0.13819719  0.13915897  1
  In  In33  1  0.19469900  0.36266422  0.53423097  1
  In  In34  1  -0.00977143  0.65475880  0.65835825  1
  In  In35  1  0.32308292  0.84147315  0.52537381  1
  In  In36  1  0.67219760  0.33975216  0.68941367  1
  In  In37  1  0.18482487  0.64563250  0.82293868  1
  In  In38  1  0.65858733  0.47890483  0.84227864  1
  In  In39  1  0.66014113  0.15612664  0.83267304  1
  In  In40  1  0.65025684  0.64249293  0.34997510  1
  In  In41  1  0.49127420  0.16680908  0.31578288  1
  In  In42  1  0.82260082  0.51531799  0.32835824  1
  In  In43  1  0.85928563  0.69264363  0.15484016  1
  In  In44  1  0.48330459  0.50868496  0.66020630  1
  In  In45  1  0.16982776  -0.00117978  0.15881781  1
  In  In46  1  0.50443443  -0.02377880  0.82426621  1
  In  In47  1  0.85442442  -0.03156967  0.47320207  1
  In  In48  1  0.36601112  0.17134082  0.14766617  1
  In  In49  1  0.16732525  0.19762432  0.33802268  1
  In  In50  1  0.81968179  0.81699734  0.68067224  1
  In  In51  1  0.63735091  0.65471975  0.66407108  1
  In  In52  1  0.00424756  0.49869048  0.51077491  1
  In  In53  1  -0.00189039  0.84518504  0.85030012  1
  In  In54  1  0.47751194  -0.00746725  0.50552676  1
  In  In55  1  0.02941118  0.48488835  0.16131168  1
  In  In56  1  0.50524721  0.81979953  -0.00753576  1
  In  In57  1  0.65894422  0.16178348  0.51084849  1
  In  In58  1  0.48083193  0.34308246  0.16736866  1
  In  In59  1  0.82657091  0.69151823  0.50876545  1
  In  In60  1  0.33507881  0.33970657  -0.01519761  1
  In  In61  1  0.34093412  0.80185223  0.81236226  1
  In  In62  1  0.33640059  0.02125083  0.34121602  1
  In  In63  1  0.49229144  0.48408467  0.35867461  1
  In  In64  1  0.19382863  0.03703659  0.50901409  1
  In  In65  1  0.65180510  0.52023338  0.13278302  1
  In  In66  1  0.31396996  0.84403703  0.16268254  1
  In  In67  1  0.17811971  0.15527893  -0.00556945  1
  In  In68  1  0.64214959  0.82517994  0.52049057  1
  In  In69  1  0.00312154  0.16734962  0.16168952  1
  In  In70  1  0.86881869  0.32785795  0.15112679  1
  In  In71  1  0.65987442  -0.01326798  -0.00872568  1
  Te  Te72  1  0.07228080  0.07235226  0.06698851  1
  Te  Te73  1  0.08675312  0.08534877  0.40211960  1
  Te  Te74  1  0.10439405  0.10815126  0.76052586  1
  Te  Te75  1  0.12553292  0.42504231  0.07073832  1
  Te  Te76  1  0.08765446  0.41514331  0.41305960  1
  Te  Te77  1  0.09896629  0.41570407  0.74996968  1
  Te  Te78  1  0.09269470  0.75100950  0.08128802  1
  Te  Te79  1  0.08178642  0.76632519  0.43026521  1
  Te  Te80  1  0.07981984  0.74111104  0.76049427  1
  Te  Te81  1  0.46334821  0.08412758  0.08578630  1
  Te  Te82  1  0.41352564  0.11142495  0.43555602  1
  Te  Te83  1  0.40210355  0.06984646  0.76720280  1
  Te  Te84  1  0.40542275  0.43294664  0.07887928  1
  Te  Te85  1  0.39438468  0.42428059  0.45056648  1
  Te  Te86  1  0.39876248  0.39690287  0.71953702  1
  Te  Te87  1  0.41064371  0.74467100  0.09477646  1
  Te  Te88  1  0.40817992  0.75473396  0.43010760  1
  Te  Te89  1  0.42237143  0.73200811  0.70885277  1
  Te  Te90  1  0.73163412  0.08711009  0.07918538  1
  Te  Te91  1  0.75106955  0.07612709  0.42592888  1
  Te  Te92  1  0.73433652  0.04410983  0.76136219  1
  Te  Te93  1  0.75328059  0.40973379  0.09389021  1
  Te  Te94  1  0.75452918  0.40817358  0.41195763  1
  Te  Te95  1  0.77548466  0.42437228  0.76074815  1
  Te  Te96  1  0.75680387  0.75584299  0.06350784  1
  Te  Te97  1  0.72959510  0.75577815  0.41238415  1
  Te  Te98  1  0.71154685  0.74761416  0.75444899  1
  Te  Te99  1  0.09499187  0.27071845  0.22391722  1
  Te  Te100  1  0.09667130  0.25019555  0.58141044  1
  Te  Te101  1  0.10508100  0.25383116  0.90462061  1
  Te  Te102  1  0.08143236  0.59149716  0.25737887  1
  Te  Te103  1  0.10238874  0.56877468  0.60373810  1
  Te  Te104  1  0.09765659  0.56976809  0.92376372  1
  Te  Te105  1  0.09152745  0.91774948  0.25327657  1
  Te  Te106  1  0.08449325  0.94440138  0.56713716  1
  Te  Te107  1  0.08794837  0.93162296  0.92661217  1
  Te  Te108  1  0.39633763  0.28108774  0.27841551  1
  Te  Te109  1  0.37789458  0.24480026  0.60578512  1
  Te  Te110  1  0.39839188  0.23310300  0.90119468  1
  Te  Te111  1  0.41625216  0.56893477  0.25533290  1
  Te  Te112  1  0.37839404  0.60585644  0.61573349  1
  Te  Te113  1  0.40842378  0.57278484  0.87049537  1
  Te  Te114  1  0.41062493  0.93770359  0.23863971  1
  Te  Te115  1  0.39634478  0.93474799  0.61358364  1
  Te  Te116  1  0.40356335  0.89887612  0.91345549  1
  Te  Te117  1  0.77594978  0.24069865  0.23950524  1
  Te  Te118  1  0.75143941  0.24786022  0.59704948  1
  Te  Te119  1  0.72894795  0.25135726  0.92259969  1
  Te  Te120  1  0.74868128  0.60354048  0.22704387  1
  Te  Te121  1  0.75059859  0.58592449  0.58675580  1
  Te  Te122  1  0.73764246  0.58692199  0.91743174  1
  Te  Te123  1  0.74666644  0.93960039  0.25207411  1
  Te  Te124  1  0.75648483  0.90857803  0.57611275  1
  Te  Te125  1  0.74940325  0.90309321  0.91067796  1
  Te  Te126  1  0.25609050  0.25035037  0.08419486  1
  Te  Te127  1  0.24736945  0.25656127  0.44640794  1
  Te  Te128  1  0.25655484  0.20927783  0.70993602  1
  Te  Te129  1  0.27951090  0.57216755  0.08037167  1
  Te  Te130  1  0.25197563  0.56600215  0.41213248  1
  Te  Te131  1  0.30713559  0.58570829  0.75873668  1
  Te  Te132  1  0.25876878  0.93406868  0.06184134  1
  Te  Te133  1  0.24928232  0.92569214  0.41968000  1
  Te  Te134  1  0.24774496  0.90866723  0.75208703  1
  Te  Te135  1  0.57566862  0.27323771  0.08076599  1
  Te  Te136  1  0.57900656  0.26289078  0.42627096  1
  Te  Te137  1  0.56711867  0.24284064  0.73947512  1
  Te  Te138  1  0.55080533  0.56914945  0.03098624  1
  Te  Te139  1  0.54501687  0.59847247  0.44825351  1
  Te  Te140  1  0.55812779  0.57261806  0.77713390  1
  Te  Te141  1  0.57659182  0.90817478  0.09312631  1
  Te  Te142  1  0.57591964  0.91845985  0.41726557  1
  Te  Te143  1  0.59968644  0.94911753  0.71580619  1
  Te  Te144  1  0.91183494  0.22207095  0.04646120  1
  Te  Te145  1  0.90832906  0.26072679  0.44735184  1
  Te  Te146  1  0.93070091  0.23266642  0.75056772  1
  Te  Te147  1  0.92341231  0.57300454  0.08655484  1
  Te  Te148  1  0.91552395  0.59653816  0.41886962  1
  Te  Te149  1  0.90247513  0.60249467  0.76471450  1
  Te  Te150  1  0.91179143  0.90834679  0.06362191  1
  Te  Te151  1  0.93506348  0.87934600  0.38962494  1
  Te  Te152  1  0.91740649  0.92439511  0.74758215  1
  Te  Te153  1  0.25688026  0.10543452  0.24265575  1
  Te  Te154  1  0.27583849  0.08107967  0.62243206  1
  Te  Te155  1  0.28805647  0.09900319  0.91135952  1
  Te  Te156  1  0.28510787  0.38575478  0.24483074  1
  Te  Te157  1  0.28329614  0.43999788  0.62301898  1
  Te  Te158  1  0.26290452  0.42438842  0.88679770  1
  Te  Te159  1  0.23402558  0.75991080  0.26133872  1
  Te  Te160  1  0.22991217  0.74350244  0.59433884  1
  Te  Te161  1  0.23852977  0.75122257  0.91886686  1
  Te  Te162  1  0.59902856  0.07882200  0.27493568  1
  Te  Te163  1  0.59316262  0.05721420  0.60176125  1
  Te  Te164  1  0.56245715  0.08209107  0.92089257  1
  Te  Te165  1  0.59655030  0.43649299  0.25346213  1
  Te  Te166  1  0.59481772  0.42227302  0.58624395  1
  Te  Te167  1  0.59073468  0.37792034  0.92762181  1
  Te  Te168  1  0.57521033  0.74385030  0.25138004  1
  Te  Te169  1  0.54128739  0.75788638  0.60783896  1
  Te  Te170  1  0.58358182  0.76784494  0.87795304  1
  Te  Te171  1  0.92851810  0.07412717  0.25355093  1
  Te  Te172  1  0.90412277  0.07477734  0.58438470  1
  Te  Te173  1  0.91725553  0.12569029  0.92250151  1
  Te  Te174  1  0.92447777  0.41918882  0.26308040  1
  Te  Te175  1  0.90882295  0.42796281  0.59521561  1
  Te  Te176  1  0.93298310  0.40842445  0.92235024  1
  Te  Te177  1  0.88312295  0.78750820  0.27212816  1
  Te  Te178  1  0.93098387  0.77212419  0.58349466  1
  Te  Te179  1  0.90790462  0.73536282  0.89472672  1
