# generated using pymatgen
data_In2Te3
_symmetry_space_group_name_H-M   'P 1'
_cell_length_a   18.80001973
_cell_length_b   18.80085829
_cell_length_c   18.80590616
_cell_angle_alpha   90.12006616
_cell_angle_beta   89.94027364
_cell_angle_gamma   89.97016921
_symmetry_Int_Tables_number   1
_chemical_formula_structural   In2Te3
_chemical_formula_sum   'In72 Te108'
_cell_volume   6647.05078297
_cell_formula_units_Z   36
loop_
 _symmetry_equiv_pos_site_id
 _symmetry_equiv_pos_as_xyz
  1  'x, y, z'
loop_
 _atom_site_type_symbol
 _atom_site_label
 _atom_site_symmetry_multiplicity
 _atom_site_fract_x
 _atom_site_fract_y
 _atom_site_fract_z
 _atom_site_occupancy
  In  In0  1  0.33767470  0.66526542  0.64571215  1
  In  In1  1  0.83071388  0.68038142  0.18850679  1
  In  In2  1  0.51149754  0.83798056  0.67293914  1
  In  In3  1  0.67532386  0.67003750  0.67532442  1
  In  In4  1  0.14319751  0.31967588  0.47653241  1
  In  In5  1  0.35536069  0.50818097  0.83841863  1
  In  In6  1  -0.00857120  0.49963002  0.19928283  1
  In  In7  1  0.82866571  0.82021937  0.65434686  1
  In  In8  1  0.16443977  -0.00329016  0.50528685  1
  In  In9  1  0.35841963  0.32530478  -0.00210684  1
  In  In10  1  0.83249191  -0.00794352  0.85508266  1
  In  In11  1  0.16800777  0.15043249  -0.00324911  1
  In  In12  1  0.81857459  0.00355441  0.16288243  1
  In  In13  1  0.51014013  0.50286167  0.32507327  1
  In  In14  1  0.52780590  0.32532544  0.50533224  1
  In  In15  1  0.50489090  0.00436992  0.15476400  1
  In  In16  1  0.01853576  0.01002016  0.66988330  1
  In  In17  1  0.51949429  0.31490015  0.17311467  1
  In  In18  1  -0.00044305  0.01029686  0.01315641  1
  In  In19  1  0.33870855  0.53123188  0.49099316  1
  In  In20  1  0.16243441  0.15810088  0.32216776  1
  In  In21  1  -0.03826482  0.29574014  0.03925758  1
  In  In22  1  -0.01562504  0.67714760  -0.01136474  1
  In  In23  1  0.68603740  -0.02289463  0.65590092  1
  In  In24  1  0.15976851  0.83177918  0.32663586  1
  In  In25  1  -0.00460152  0.83283360  0.18862166  1
  In  In26  1  0.68233663  0.50047526  0.83171094  1
  In  In27  1  0.63971341  0.14595851  0.85454333  1
  In  In28  1  0.16333531  0.32570187  0.17386469  1
  In  In29  1  0.66246774  0.16182519  0.48011285  1
  In  In30  1  0.34281059  0.00091380  0.67744393  1
  In  In31  1  0.83880831  0.16979459  0.65680724  1
  In  In32  1  0.83055449  0.51012026  0.65487809  1
  In  In33  1  0.32628834  0.32282759  0.66817409  1
  In  In34  1  0.51200218  0.79798816  0.31344352  1
  In  In35  1  0.81044067  0.33636468  0.48896596  1
  In  In36  1  -0.01708343  0.33327065  0.32808020  1
  In  In37  1  0.19071382  0.50985169  0.65971233  1
  In  In38  1  0.15113075  0.51405199  -0.00203373  1
  In  In39  1  0.17962615  0.15167746  0.68877332  1
  In  In40  1  0.50133128  0.66652831  0.50564365  1
  In  In41  1  0.00953514  0.82823624  0.84018318  1
  In  In42  1  -0.02165110  0.85794946  0.47752376  1
  In  In43  1  0.80731847  0.50034930  0.00309800  1
  In  In44  1  0.16644661  0.65572161  0.17305388  1
  In  In45  1  0.32494394  0.86138504  0.84887411  1
  In  In46  1  -0.00810346  0.68177176  0.67361181  1
  In  In47  1  0.35881674  0.69018364  0.00093719  1
  In  In48  1  0.79286465  0.83062650  0.00292095  1
  In  In49  1  0.16508057  0.67937138  0.50793615  1
  In  In50  1  0.50867052  0.16236211  0.32758107  1
  In  In51  1  0.32393536  0.33495762  0.32499005  1
  In  In52  1  0.01559251  0.14563261  0.51149506  1
  In  In53  1  0.34302548  0.00521894  0.01095742  1
  In  In54  1  0.34288578  0.66318420  0.32333528  1
  In  In55  1  0.82726341  0.17038597  0.30426701  1
  In  In56  1  -0.03033506  0.33215418  0.67937262  1
  In  In57  1  0.50105011  0.17306216  0.68049571  1
  In  In58  1  0.16774656  0.31696807  0.83456524  1
  In  In59  1  0.67024500  0.31896098  0.02051356  1
  In  In60  1  0.32194681  0.00569264  0.32903904  1
  In  In61  1  -0.03064934  0.54064184  0.46143379  1
  In  In62  1  0.53379210  0.82360194  0.01494205  1
  In  In63  1  0.34371939  0.47644682  0.17789925  1
  In  In64  1  0.66516712  -0.01607665  0.31515523  1
  In  In65  1  0.51470335  -0.02270613  0.47853421  1
  In  In66  1  0.50575747  0.33031660  0.85165167  1
  In  In67  1  0.83210030  0.31802366  0.83936942  1
  In  In68  1  0.50481383  0.67192676  0.84467266  1
  In  In69  1  0.18173301  0.86088629  0.01381054  1
  In  In70  1  -0.01661933  0.50583017  0.82081105  1
  In  In71  1  0.66535161  0.50760749  0.47436941  1
  Te  Te72  1  0.08594960  0.08831735  0.10375688  1
  Te  Te73  1  0.07274620  0.05937264  0.40041082  1
  Te  Te74  1  0.07731917  0.09285107  0.77646756  1
  Te  Te75  1  0.07381015  0.41793409  0.08723730  1
  Te  Te76  1  0.06959482  0.43169732  0.40841736  1
  Te  Te77  1  0.09160400  0.42028464  0.74736128  1
  Te  Te78  1  0.08411093  0.74938632  0.07977632  1
  Te  Te79  1  0.06690267  0.74798783  0.41335541  1
  Te  Te80  1  0.09670793  0.75368546  0.74736330  1
  Te  Te81  1  0.43357386  0.10801554  0.07417740  1
  Te  Te82  1  0.42025001  0.08314608  0.42149299  1
  Te  Te83  1  0.43354754  0.07580156  0.76655114  1
  Te  Te84  1  0.44545054  0.41773855  0.08216894  1
  Te  Te85  1  0.42004297  0.41678192  0.41453768  1
  Te  Te86  1  0.42577083  0.40945808  0.74574018  1
  Te  Te87  1  0.42500420  0.77185096  0.10495517  1
  Te  Te88  1  0.40816968  0.75522350  0.42478846  1
  Te  Te89  1  0.40901438  0.75460761  0.75663302  1
  Te  Te90  1  0.77027959  0.10674873  0.06723007  1
  Te  Te91  1  0.75895120  0.07192816  0.40796194  1
  Te  Te92  1  0.75024880  0.08603551  0.75209959  1
  Te  Te93  1  0.73858361  0.42041081  0.10760044  1
  Te  Te94  1  0.75107845  0.42222105  0.38604598  1
  Te  Te95  1  0.75766928  0.40468820  0.73855624  1
  Te  Te96  1  0.72866649  0.72189363  0.08427217  1
  Te  Te97  1  0.75097974  0.69905488  0.37566582  1
  Te  Te98  1  0.73203626  0.77821286  0.75968595  1
  Te  Te99  1  0.05896134  0.23581450  0.23862776  1
  Te  Te100  1  0.08751940  0.25237961  0.60310778  1
  Te  Te101  1  0.07384469  0.25742928  0.93554522  1
  Te  Te102  1  0.06492219  0.60720980  0.26814456  1
  Te  Te103  1  0.07418171  0.57508006  0.58642210  1
  Te  Te104  1  0.07932198  0.59996927  0.89507761  1
  Te  Te105  1  0.08758574  0.93236091  0.24550526  1
  Te  Te106  1  0.07905927  0.89876836  0.58513061  1
  Te  Te107  1  0.09079016  0.93299127  0.91487741  1
  Te  Te108  1  0.40528609  0.23797429  0.24225534  1
  Te  Te109  1  0.41848145  0.24359284  0.57280556  1
  Te  Te110  1  0.43107766  0.22221264  0.91998028  1
  Te  Te111  1  0.43592072  0.59700519  0.21815045  1
  Te  Te112  1  0.44081243  0.56161306  0.59881416  1
  Te  Te113  1  0.44189946  0.57448268  0.94502774  1
  Te  Te114  1  0.43663730  0.92430999  0.26531798  1
  Te  Te115  1  0.41844842  0.91064238  0.57644269  1
  Te  Te116  1  0.44137625  0.91542125  0.92691972  1
  Te  Te117  1  0.75267598  0.26329049  0.21848729  1
  Te  Te118  1  0.73097748  0.25078908  0.58639681  1
  Te  Te119  1  0.75123481  0.22594167  0.92836727  1
  Te  Te120  1  0.73673676  0.59225689  0.26793311  1
  Te  Te121  1  0.75342431  0.60029071  0.56185830  1
  Te  Te122  1  0.73568404  0.60256295  0.92490326  1
  Te  Te123  1  0.75771684  0.89240658  0.24153676  1
  Te  Te124  1  0.76045100  0.90355812  0.54686707  1
  Te  Te125  1  0.71516296  0.95083112  0.94483605  1
  Te  Te126  1  0.25617127  0.24992953  0.08235031  1
  Te  Te127  1  0.25460938  0.23465377  0.41794444  1
  Te  Te128  1  0.27846058  0.22845884  0.77790219  1
  Te  Te129  1  0.26383744  0.57725613  0.08055530  1
  Te  Te130  1  0.23322370  0.58939403  0.40138920  1
  Te  Te131  1  0.25788788  0.59739278  0.76270044  1
  Te  Te132  1  0.26530106  0.92921122  0.11299777  1
  Te  Te133  1  0.25422241  0.90561067  0.42229260  1
  Te  Te134  1  0.23805320  0.92621821  0.75001627  1
  Te  Te135  1  0.56762577  0.22000162  0.06737630  1
  Te  Te136  1  0.60406040  0.26741773  0.38716359  1
  Te  Te137  1  0.60199851  0.25815328  0.75662068  1
  Te  Te138  1  0.55255185  0.65147388  0.12654376  1
  Te  Te139  1  0.58658659  0.62052819  0.38744476  1
  Te  Te140  1  0.57924975  0.57732640  0.74898173  1
  Te  Te141  1  0.61583506  0.92590049  0.09120103  1
  Te  Te142  1  0.60473074  0.87720013  0.40826171  1
  Te  Te143  1  0.59446161  0.92461240  0.75915805  1
  Te  Te144  1  0.86339011  0.21115206  0.12601822  1
  Te  Te145  1  0.91933764  0.23763457  0.43508864  1
  Te  Te146  1  0.92938928  0.21954227  0.77132115  1
  Te  Te147  1  0.91562353  0.58391059  0.08740366  1
  Te  Te148  1  0.86764556  0.59866188  0.36737527  1
  Te  Te149  1  0.88769092  0.60575506  0.75872485  1
  Te  Te150  1  0.91306775  0.89542812  0.07255185  1
  Te  Te151  1  0.85995221  0.92953142  0.42721673  1
  Te  Te152  1  0.91332489  0.91757826  0.74553382  1
  Te  Te153  1  0.25376387  0.08866241  0.22812639  1
  Te  Te154  1  0.25942373  0.09122147  0.57575411  1
  Te  Te155  1  0.25093696  0.06455647  0.91023835  1
  Te  Te156  1  0.22404420  0.43293655  0.26395141  1
  Te  Te157  1  0.25311838  0.40958662  0.56204709  1
  Te  Te158  1  0.25189359  0.41885604  0.91838696  1
  Te  Te159  1  0.26038635  0.75797473  0.23628236  1
  Te  Te160  1  0.25080173  0.76797434  0.58729068  1
  Te  Te161  1  0.24462513  0.75308188  0.92360720  1
  Te  Te162  1  0.60672213  0.09725710  0.23261144  1
  Te  Te163  1  0.58418454  0.07516693  0.57971261  1
  Te  Te164  1  0.58439515  0.03095353  0.93027474  1
  Te  Te165  1  0.59867649  0.42530946  0.23590948  1
  Te  Te166  1  0.60269907  0.42534126  0.58145764  1
  Te  Te167  1  0.59675704  0.42231133  0.93104882  1
  Te  Te168  1  0.61232244  0.76448702  0.20298431  1
  Te  Te169  1  0.59925864  0.75894862  0.57575096  1
  Te  Te170  1  0.61151293  0.75150869  0.90871558  1
  Te  Te171  1  0.92011556  0.06858198  0.25030561  1
  Te  Te172  1  0.90724696  0.06021936  0.57697921  1
  Te  Te173  1  0.90137449  0.09448375  0.93864955  1
  Te  Te174  1  0.88375986  0.41101822  0.24999432  1
  Te  Te175  1  0.92217356  0.42310123  0.56604349  1
  Te  Te176  1  0.91738372  0.41516220  0.92466335  1
  Te  Te177  1  0.89729553  0.77463981  0.28591998  1
  Te  Te178  1  0.91315743  0.73871042  0.55681576  1
  Te  Te179  1  0.88912652  0.75899711  0.90401390  1
