# generated using pymatgen
data_In2Te3
_symmetry_space_group_name_H-M   'P 1'
_cell_length_a   18.79698148
_cell_length_b   18.80025500
_cell_length_c   18.79244100
_cell_angle_alpha   90.03566420
_cell_angle_beta   89.98532398
_cell_angle_gamma   90.02608675
_symmetry_Int_Tables_number   1
_chemical_formula_structural   In2Te3
_chemical_formula_sum   'In72 Te108'
_cell_volume   6641.02179348
_cell_formula_units_Z   36
loop_
 _symmetry_equiv_pos_site_id
 _symmetry_equiv_pos_as_xyz
  1  'x, y, z'
loop_
 _atom_site_type_symbol
 _atom_site_label
 _atom_site_symmetry_multiplicity
 _atom_site_fract_x
 _atom_site_fract_y
 _atom_site_fract_z
 _atom_site_occupancy
  In  In0  1  0.65017224  0.30807383  0.32546953  1
  In  In1  1  0.83998332  0.66642732  0.49530227  1
  In  In2  1  0.69751813  0.32564591  0.63764283  1
  In  In3  1  0.00831849  0.86588485  0.49924904  1
  In  In4  1  0.00080968  0.33041919  -0.00228312  1
  In  In5  1  0.16360097  0.18262791  -0.01344659  1
  In  In6  1  0.69607889  0.15123430  0.18123576  1
  In  In7  1  0.83677723  0.34127416  0.19155008  1
  In  In8  1  0.68874037  0.35594952  -0.01826721  1
  In  In9  1  0.49679588  0.69490957  0.50353416  1
  In  In10  1  0.18532618  0.50005715  -0.00116226  1
  In  In11  1  0.16394529  0.31174164  0.19319048  1
  In  In12  1  0.50031563  0.14288091  0.65953950  1
  In  In13  1  0.70834366  0.81127143  0.80363498  1
  In  In14  1  0.46041499  0.32024107  0.81172241  1
  In  In15  1  -0.01741298  0.68107608  -0.00387650  1
  In  In16  1  0.15809764  -0.00164444  0.81122224  1
  In  In17  1  0.49499241  0.33497692  0.16227943  1
  In  In18  1  0.16250445  0.15571034  0.64269835  1
  In  In19  1  0.31594798  0.83950405  0.49830203  1
  In  In20  1  0.32583579  0.33590460  0.65378346  1
  In  In21  1  0.66914277  0.84716181  0.50242635  1
  In  In22  1  0.00536163  0.17120692  0.19106698  1
  In  In23  1  0.69226008  0.50457702  0.51184112  1
  In  In24  1  0.68848365  0.01999366  0.35464994  1
  In  In25  1  0.50800022  0.16692834  0.05248491  1
  In  In26  1  0.83290924  -0.01285614  0.17193199  1
  In  In27  1  0.49668786  -0.00013309  0.82588578  1
  In  In28  1  0.82501857  0.83013908  -0.01326787  1
  In  In29  1  -0.00114878  0.52686023  0.16601086  1
  In  In30  1  0.16630887  0.82985985  0.34077790  1
  In  In31  1  -0.00547666  0.66422646  0.33793125  1
  In  In32  1  0.68468831  -0.00125809  0.65256700  1
  In  In33  1  0.15567536  0.85036225  0.00868352  1
  In  In34  1  0.49342716  0.82920312  0.64876355  1
  In  In35  1  0.17729128  -0.01580400  0.18445320  1
  In  In36  1  0.32644049  0.66783813  0.65469258  1
  In  In37  1  0.51820532  0.32599347  0.49263843  1
  In  In38  1  0.68612642  0.67454188  0.00684752  1
  In  In39  1  0.01128537  0.65147553  0.64695448  1
  In  In40  1  0.29851544  0.49594862  0.50030287  1
  In  In41  1  0.33093241  0.33798024  -0.00702075  1
  In  In42  1  0.32625051  0.48194670  0.19511087  1
  In  In43  1  0.68549170  0.53019225  0.81814968  1
  In  In44  1  0.01975156  0.00569405  -0.02297652  1
  In  In45  1  0.68105781  0.16995969  0.82019439  1
  In  In46  1  0.85679369  -0.00113951  0.83095855  1
  In  In47  1  0.83697971  0.49934360  0.33444030  1
  In  In48  1  -0.00415704  0.49214304  0.80515157  1
  In  In49  1  0.64115648  0.69944599  0.30806250  1
  In  In50  1  0.30752568  0.50088779  0.82692820  1
  In  In51  1  0.46381336  0.13830277  0.36191972  1
  In  In52  1  0.51776088  0.66329232  0.83306083  1
  In  In53  1  0.31190287  0.14778469  0.82626720  1
  In  In54  1  0.48129059  0.52177843  0.36253630  1
  In  In55  1  0.49642111  -0.02129570  0.18267070  1
  In  In56  1  0.66010781  0.51528107  0.15883836  1
  In  In57  1  -0.00409064  0.81552661  0.17402590  1
  In  In58  1  0.85769453  0.33002144  0.82015769  1
  In  In59  1  0.54708406  0.51859351  -0.01159711  1
  In  In60  1  0.86312727  0.31282995  0.49654743  1
  In  In61  1  -0.01353131  0.00731546  0.64171438  1
  In  In62  1  0.34486932  0.67656633  0.01272637  1
  In  In63  1  0.32306629  0.67586063  0.33882012  1
  In  In64  1  0.00168637  0.33758777  0.65069969  1
  In  In65  1  0.28497745  0.30861187  0.35964913  1
  In  In66  1  0.34291035  0.13502876  0.19530657  1
  In  In67  1  0.64841542  0.00706167  0.01569726  1
  In  In68  1  -0.00830643  0.02704147  0.39474371  1
  In  In69  1  0.15201515  0.66586451  0.81150868  1
  In  In70  1  0.49854150  0.84531724  0.01275681  1
  In  In71  1  0.29865629  0.85182219  0.81557008  1
  Te  Te72  1  0.09273423  0.08849346  0.09415386  1
  Te  Te73  1  0.09910582  0.10619206  0.46564213  1
  Te  Te74  1  0.06327993  0.09462953  0.74407093  1
  Te  Te75  1  0.09961060  0.40788200  0.08818873  1
  Te  Te76  1  0.11717636  0.44365484  0.45632575  1
  Te  Te77  1  0.09851795  0.41607625  0.73387366  1
  Te  Te78  1  0.09345229  0.73613079  0.08759309  1
  Te  Te79  1  0.08070703  0.74633489  0.43398165  1
  Te  Te80  1  0.09477462  0.75780525  0.71239373  1
  Te  Te81  1  0.40814895  0.05526038  0.08198575  1
  Te  Te82  1  0.37775438  0.05212635  0.44625028  1
  Te  Te83  1  0.39310965  0.06003633  0.73155284  1
  Te  Te84  1  0.42091085  0.43340138  0.07167262  1
  Te  Te85  1  0.40494064  0.40258956  0.41972121  1
  Te  Te86  1  0.41036909  0.43846109  0.72955898  1
  Te  Te87  1  0.40251397  0.77751628  0.10406565  1
  Te  Te88  1  0.43094609  0.77989551  0.39765671  1
  Te  Te89  1  0.40791526  0.74962062  0.75918841  1
  Te  Te90  1  0.76994847  0.08428154  0.06748921  1
  Te  Te91  1  0.77889967  0.08473908  0.45330679  1
  Te  Te92  1  0.77509157  0.09239544  0.73181165  1
  Te  Te93  1  0.76744536  0.43242243  0.08851089  1
  Te  Te94  1  0.74245564  0.40167654  0.40998612  1
  Te  Te95  1  0.75974800  0.41806045  0.74166671  1
  Te  Te96  1  0.76408160  0.75872427  0.10054766  1
  Te  Te97  1  0.74363390  0.75171628  0.40909559  1
  Te  Te98  1  0.77256798  0.69295334  0.74597320  1
  Te  Te99  1  0.07506177  0.25048812  0.30037410  1
  Te  Te100  1  0.06081976  0.23004129  0.55608856  1
  Te  Te101  1  0.06398121  0.24185053  0.89671752  1
  Te  Te102  1  0.09503626  0.59511935  0.25262127  1
  Te  Te103  1  0.07882819  0.54748983  0.55557223  1
  Te  Te104  1  0.08142991  0.57756071  0.91821680  1
  Te  Te105  1  0.06205835  0.92175646  0.26193134  1
  Te  Te106  1  0.10815746  0.93691233  0.58710164  1
  Te  Te107  1  0.07388217  0.89411751  0.88747543  1
  Te  Te108  1  0.41465251  0.25774493  0.26588466  1
  Te  Te109  1  0.41909572  0.24350510  0.57610752  1
  Te  Te110  1  0.41217181  0.22523980  0.92350760  1
  Te  Te111  1  0.42103172  0.59262144  0.24550993  1
  Te  Te112  1  0.41519674  0.58255374  0.56435473  1
  Te  Te113  1  0.41042221  0.57629911  0.91271794  1
  Te  Te114  1  0.41688831  0.89861788  0.27839484  1
  Te  Te115  1  0.41899988  0.92603835  0.56703651  1
  Te  Te116  1  0.40444748  0.91329839  0.91015097  1
  Te  Te117  1  0.77643941  0.23226371  0.28239110  1
  Te  Te118  1  0.75791058  0.21926428  0.55321215  1
  Te  Te119  1  0.77038000  0.24511267  0.91815921  1
  Te  Te120  1  0.74613116  0.59379242  0.25728093  1
  Te  Te121  1  0.76252444  0.59739883  0.60503827  1
  Te  Te122  1  0.76982457  0.58466055  0.92440657  1
  Te  Te123  1  0.74446860  0.91647979  0.26580073  1
  Te  Te124  1  0.77343435  0.89213810  0.60065853  1
  Te  Te125  1  0.73325751  0.93321633  0.90883625  1
  Te  Te126  1  0.26665398  0.24510842  0.09707518  1
  Te  Te127  1  0.22746122  0.21214988  0.45846778  1
  Te  Te128  1  0.23647382  0.24872788  0.74372309  1
  Te  Te129  1  0.25752880  0.58421512  0.10191510  1
  Te  Te130  1  0.22636197  0.59878735  0.42294418  1
  Te  Te131  1  0.22675771  0.56903027  0.71792058  1
  Te  Te132  1  0.26345873  0.90391475  0.09449176  1
  Te  Te133  1  0.24299115  0.93728250  0.41101913  1
  Te  Te134  1  0.23229502  0.92399071  0.70342624  1
  Te  Te135  1  0.61991843  0.27006784  0.09863920  1
  Te  Te136  1  0.58813447  0.21052843  0.42433222  1
  Te  Te137  1  0.58289336  0.25325566  0.73472337  1
  Te  Te138  1  0.56980209  0.62253012  0.09723353  1
  Te  Te139  1  0.60022454  0.59574893  0.42282236  1
  Te  Te140  1  0.57614950  0.57556069  0.73137885  1
  Te  Te141  1  0.60801251  0.89668481  0.10880820  1
  Te  Te142  1  0.58320077  0.95032011  0.43581623  1
  Te  Te143  1  0.58847670  0.90809809  0.74708424  1
  Te  Te144  1  0.91482602  0.24948184  0.09576404  1
  Te  Te145  1  0.94365267  0.25820485  0.38623092  1
  Te  Te146  1  0.91543560  0.23819926  0.72171742  1
  Te  Te147  1  0.89897906  0.60023036  0.08776478  1
  Te  Te148  1  0.93185957  0.55768277  0.43874693  1
  Te  Te149  1  0.91291899  0.60498952  0.75306716  1
  Te  Te150  1  0.93215771  0.91888083  0.06970238  1
  Te  Te151  1  0.89587219  0.91577293  0.41527111  1
  Te  Te152  1  0.90746879  0.90917515  0.72490986  1
  Te  Te153  1  0.23660556  0.08153063  0.28059837  1
  Te  Te154  1  0.27882267  0.10410354  0.56012007  1
  Te  Te155  1  0.23804995  0.06175984  0.92780788  1
  Te  Te156  1  0.21665248  0.42585348  0.28363264  1
  Te  Te157  1  0.21161873  0.39090796  0.56819834  1
  Te  Te158  1  0.22639913  0.39162810  0.89693807  1
  Te  Te159  1  0.24410798  0.75378288  0.24115059  1
  Te  Te160  1  0.22985146  0.74955636  0.57888460  1
  Te  Te161  1  0.24424250  0.74108862  0.91445605  1
  Te  Te162  1  0.57176672  0.09466182  0.25017205  1
  Te  Te163  1  0.58049055  0.06020932  0.56401685  1
  Te  Te164  1  0.57832767  0.09914630  0.91264753  1
  Te  Te165  1  0.57636298  0.42916519  0.26017199  1
  Te  Te166  1  0.58692478  0.42155247  0.58820334  1
  Te  Te167  1  0.56794361  0.39711496  0.89712498  1
  Te  Te168  1  0.54033140  0.80029344  0.26753900  1
  Te  Te169  1  0.60445188  0.73898686  0.59962189  1
  Te  Te170  1  0.59236298  0.76564864  0.91672713  1
  Te  Te171  1  0.91477900  0.07518991  0.26559184  1
  Te  Te172  1  0.91797540  0.07790761  0.52541316  1
  Te  Te173  1  0.92847787  0.10062448  0.91166487  1
  Te  Te174  1  0.94712386  0.41929616  0.26349767  1
  Te  Te175  1  0.90389889  0.42645998  0.58108747  1
  Te  Te176  1  0.91533080  0.43050715  0.92134620  1
  Te  Te177  1  0.89911060  0.74562665  0.25961637  1
  Te  Te178  1  0.92503431  0.76008883  0.57857688  1
  Te  Te179  1  0.92011531  0.76628738  0.89347205  1
