# generated using pymatgen
data_In2Te3
_symmetry_space_group_name_H-M   'P 1'
_cell_length_a   18.98099264
_cell_length_b   18.98920066
_cell_length_c   19.00769164
_cell_angle_alpha   90.02261145
_cell_angle_beta   89.83003721
_cell_angle_gamma   89.94546296
_symmetry_Int_Tables_number   1
_chemical_formula_structural   In2Te3
_chemical_formula_sum   'In72 Te108'
_cell_volume   6850.98222141
_cell_formula_units_Z   36
loop_
 _symmetry_equiv_pos_site_id
 _symmetry_equiv_pos_as_xyz
  1  'x, y, z'
loop_
 _atom_site_type_symbol
 _atom_site_label
 _atom_site_symmetry_multiplicity
 _atom_site_fract_x
 _atom_site_fract_y
 _atom_site_fract_z
 _atom_site_occupancy
  In  In0  1  0.81819188  0.32915688  0.15691761  1
  In  In1  1  0.83220227  0.83848797  0.65955953  1
  In  In2  1  0.83132679  0.33621209  0.51294295  1
  In  In3  1  0.66809066  0.84734501  0.16163879  1
  In  In4  1  -0.01757070  0.33537979  0.65310855  1
  In  In5  1  0.66707153  0.31922323  0.30981108  1
  In  In6  1  0.65468186  0.00868741  0.02111819  1
  In  In7  1  -0.00886126  0.82235941  0.86059089  1
  In  In8  1  0.16824690  0.01298045  0.15729304  1
  In  In9  1  0.36769939  0.04446486  0.68258885  1
  In  In10  1  0.34301217  0.17913380  0.52130785  1
  In  In11  1  0.33364413  0.17011869  0.14614481  1
  In  In12  1  -0.00794852  0.66141686  0.67721138  1
  In  In13  1  0.49408326  0.49797082  0.34253452  1
  In  In14  1  0.32593232  0.30853109  0.32541340  1
  In  In15  1  0.14681014  0.18448851  0.67722912  1
  In  In16  1  0.11826432  0.50083598  0.31157214  1
  In  In17  1  0.67139700  0.51153622  0.16030442  1
  In  In18  1  0.16304364  0.66377719  0.86548264  1
  In  In19  1  0.65905027  0.65670178  -0.03315798  1
  In  In20  1  0.83057284  0.34946598  0.81441140  1
  In  In21  1  0.46808641  0.34703504  0.09075063  1
  In  In22  1  0.15923779  0.17042620  0.33748641  1
  In  In23  1  -0.02190490  0.50517325  0.15880753  1
  In  In24  1  0.69245461  0.00126810  0.33717940  1
  In  In25  1  0.50748212  0.16743528  0.33261541  1
  In  In26  1  -0.02415366  0.00186792  0.04644138  1
  In  In27  1  0.35331401  0.82750190  0.82905774  1
  In  In28  1  0.69577035  0.65569448  0.66760364  1
  In  In29  1  0.33209560  0.66436442  -0.00507485  1
  In  In30  1  0.52813594  0.64678397  0.52780144  1
  In  In31  1  0.35970989  0.67157320  0.33599965  1
  In  In32  1  0.50042392  0.00339636  0.48570445  1
  In  In33  1  0.17210310  0.65686330  0.50630039  1
  In  In34  1  0.82417846  0.17021700  -0.00638407  1
  In  In35  1  0.85469454  0.68735899  0.18091669  1
  In  In36  1  0.16474752  -0.02050488  0.85657385  1
  In  In37  1  0.71639186  0.70098280  0.35614035  1
  In  In38  1  0.84437022  -0.02874724  0.86259078  1
  In  In39  1  0.65156666  0.47617479  0.82717103  1
  In  In40  1  0.66581560  0.19211927  0.81489281  1
  In  In41  1  0.33351247  0.83754881  0.17735451  1
  In  In42  1  0.01388553  0.33429166  -0.01938614  1
  In  In43  1  -0.02412942  0.00668904  0.29286976  1
  In  In44  1  0.83490432  0.81727425  0.00249162  1
  In  In45  1  0.00653184  0.51643098  0.83458041  1
  In  In46  1  0.86295320  0.51478222  0.35939486  1
  In  In47  1  0.50779452  0.66677712  0.15918176  1
  In  In48  1  0.65251086  0.03632396  0.67160504  1
  In  In49  1  0.17448139  0.84680137  0.66565850  1
  In  In50  1  0.50285304  0.48773298  0.66874374  1
  In  In51  1  0.33747890  0.50149716  0.85059034  1
  In  In52  1  0.66991083  0.16705951  0.16702124  1
  In  In53  1  0.50598912  0.17516500  -0.01318082  1
  In  In54  1  0.12237204  0.65621636  0.07693594  1
  In  In55  1  0.65081012  0.82050893  0.80731203  1
  In  In56  1  0.14675504  0.83477378  0.33660296  1
  In  In57  1  0.18574167  0.48689413  0.67906371  1
  In  In58  1  0.50464192  0.82821437  0.65426839  1
  In  In59  1  0.03045166  -0.00146408  0.65027525  1
  In  In60  1  0.83435185  0.00462496  0.49144706  1
  In  In61  1  0.33378249  0.47618340  0.49919490  1
  In  In62  1  0.18429703  0.32005116  0.84196823  1
  In  In63  1  0.00175380  0.32068121  0.35737335  1
  In  In64  1  0.16784634  0.32700486  0.18275873  1
  In  In65  1  0.16350550  0.00466040  0.48666487  1
  In  In66  1  0.50618185  0.84451073  0.33173271  1
  In  In67  1  0.82744196  0.17174012  0.66578165  1
  In  In68  1  0.67246215  0.49186397  0.51290711  1
  In  In69  1  0.31698276  0.83046089  0.49321388  1
  In  In70  1  0.47678926  0.33434580  0.84552607  1
  In  In71  1  0.34772958  -0.00734097  -0.01287634  1
  Te  Te72  1  0.07688854  0.10001944  0.08449977  1
  Te  Te73  1  0.06219309  0.07595851  0.40325589  1
  Te  Te74  1  0.08636845  0.07682892  0.76527104  1
  Te  Te75  1  0.07963059  0.41353847  0.09352222  1
  Te  Te76  1  0.07968898  0.42313062  0.42621984  1
  Te  Te77  1  0.07908825  0.40567581  0.75797228  1
  Te  Te78  1  0.03969733  0.77047764  0.03506790  1
  Te  Te79  1  0.07847201  0.72711831  0.41390907  1
  Te  Te80  1  0.09320831  0.75997770  0.76031121  1
  Te  Te81  1  0.43432564  0.07973086  0.08067162  1
  Te  Te82  1  0.40204882  0.09179997  0.41112426  1
  Te  Te83  1  0.42823537  0.13632653  0.77976008  1
  Te  Te84  1  0.34921463  0.41318726  0.04062146  1
  Te  Te85  1  0.42320568  0.38511015  0.41497766  1
  Te  Te86  1  0.39567446  0.41127462  0.74316302  1
  Te  Te87  1  0.42167810  0.76101771  0.08158480  1
  Te  Te88  1  0.43669825  0.74783907  0.44229092  1
  Te  Te89  1  0.41843653  0.73991857  0.73114770  1
  Te  Te90  1  0.76873574  0.07164513  0.09745110  1
  Te  Te91  1  0.73430583  0.09977419  0.43838400  1
  Te  Te92  1  0.76541595  0.07202481  0.77334054  1
  Te  Te93  1  0.76061907  0.43340120  0.07421770  1
  Te  Te94  1  0.74853459  0.41392209  0.39736672  1
  Te  Te95  1  0.72350147  0.39558970  0.72356859  1
  Te  Te96  1  0.73371518  0.73013475  0.08914710  1
  Te  Te97  1  0.81015681  0.77701905  0.43802811  1
  Te  Te98  1  0.77436587  0.74580809  0.76384100  1
  Te  Te99  1  0.06220390  0.23791946  0.24443668  1
  Te  Te100  1  0.06295952  0.24187248  0.57276607  1
  Te  Te101  1  0.09947732  0.23089659  0.92229433  1
  Te  Te102  1  0.07295334  0.60856206  0.21882451  1
  Te  Te103  1  0.08888005  0.57166323  0.59870125  1
  Te  Te104  1  0.08739629  0.56822357  0.95000101  1
  Te  Te105  1  0.07869837  0.91010713  0.22703631  1
  Te  Te106  1  0.08420362  0.89384984  0.55437163  1
  Te  Te107  1  0.07127641  0.90812215  0.95556323  1
  Te  Te108  1  0.43266782  0.25878885  0.22833079  1
  Te  Te109  1  0.45962894  0.22558685  0.59594686  1
  Te  Te110  1  0.39116137  0.22553727  0.90504181  1
  Te  Te111  1  0.41553765  0.57228347  0.23580944  1
  Te  Te112  1  0.40896243  0.57712382  0.58588729  1
  Te  Te113  1  0.43154634  0.59168578  0.91581922  1
  Te  Te114  1  0.41359876  0.92857834  0.25981114  1
  Te  Te115  1  0.40376182  0.92477993  0.57747476  1
  Te  Te116  1  0.44132103  0.92093756  0.89910605  1
  Te  Te117  1  0.78202373  0.22006967  0.26438387  1
  Te  Te118  1  0.73596581  0.27243601  0.60979760  1
  Te  Te119  1  0.74292250  0.27132249  0.91597826  1
  Te  Te120  1  0.76341450  0.58356459  0.25835399  1
  Te  Te121  1  0.77334181  0.58262022  0.56606839  1
  Te  Te122  1  0.74623254  0.56620255  0.89435769  1
  Te  Te123  1  0.76470363  0.90389393  0.25400625  1
  Te  Te124  1  0.73970176  0.93766389  0.59444307  1
  Te  Te125  1  0.72849488  0.89932009  0.92821990  1
  Te  Te126  1  0.25351392  0.27064125  0.07512492  1
  Te  Te127  1  0.23773772  0.25296155  0.43525615  1
  Te  Te128  1  0.26137779  0.25275871  0.73543118  1
  Te  Te129  1  0.25138928  0.59059362  0.09272300  1
  Te  Te130  1  0.26307483  0.57977139  0.41211138  1
  Te  Te131  1  0.25062612  0.59320750  0.76456451  1
  Te  Te132  1  0.25099243  0.91495697  0.07744397  1
  Te  Te133  1  0.25394647  0.92525911  0.39430023  1
  Te  Te134  1  0.26616200  0.93531051  0.74633160  1
  Te  Te135  1  0.59455045  0.26068316  0.07571533  1
  Te  Te136  1  0.61033503  0.23256856  0.41423855  1
  Te  Te137  1  0.54784912  0.24675330  0.74166137  1
  Te  Te138  1  0.57063880  0.56895511  0.06365778  1
  Te  Te139  1  0.59785120  0.58742379  0.40721021  1
  Te  Te140  1  0.58425603  0.58918556  0.74475611  1
  Te  Te141  1  0.56349162  0.91835425  0.09000374  1
  Te  Te142  1  0.60240596  0.90894666  0.42743836  1
  Te  Te143  1  0.56809557  0.93301203  0.74477467  1
  Te  Te144  1  0.91990174  0.25333167  0.07481133  1
  Te  Te145  1  0.91629199  0.23915876  0.44347351  1
  Te  Te146  1  0.92224481  0.24259255  0.75971927  1
  Te  Te147  1  0.90056262  0.59661477  0.07422798  1
  Te  Te148  1  0.96380577  0.61127600  0.40171221  1
  Te  Te149  1  0.90606081  0.55846643  0.73559972  1
  Te  Te150  1  0.90262630  0.89065492  0.11001134  1
  Te  Te151  1  0.92473764  0.92481611  0.40560027  1
  Te  Te152  1  0.93677894  0.91954358  0.74985262  1
  Te  Te153  1  0.25637289  0.09274327  0.25150432  1
  Te  Te154  1  0.24465127  0.07848743  0.58955354  1
  Te  Te155  1  0.24952416  0.07926889  0.92017512  1
  Te  Te156  1  0.24686846  0.42327561  0.26773800  1
  Te  Te157  1  0.25278670  0.39295526  0.58835955  1
  Te  Te158  1  0.23727136  0.42738760  0.93332383  1
  Te  Te159  1  0.25005331  0.74585959  0.26340045  1
  Te  Te160  1  0.25884999  0.73968687  0.59935331  1
  Te  Te161  1  0.24869384  0.77210952  0.92465844  1
  Te  Te162  1  0.58823016  0.07016155  0.24832376  1
  Te  Te163  1  0.55974294  0.10687505  0.57800743  1
  Te  Te164  1  0.59890264  0.08734846  0.90637310  1
  Te  Te165  1  0.57904376  0.42060339  0.24123030  1
  Te  Te166  1  0.56205637  0.40939603  0.56003584  1
  Te  Te167  1  0.56674350  0.41144124  0.93016522  1
  Te  Te168  1  0.59139923  0.73892281  0.26295960  1
  Te  Te169  1  0.61740262  0.75549384  0.58163502  1
  Te  Te170  1  0.56812923  0.75503610  0.90782843  1
  Te  Te171  1  0.87556001  0.09757954  0.23895352  1
  Te  Te172  1  0.92437319  0.08413218  0.58706028  1
  Te  Te173  1  0.92549752  0.08157494  0.92270760  1
  Te  Te174  1  0.91052182  0.40972281  0.25787065  1
  Te  Te175  1  0.90489076  0.44145136  0.58583880  1
  Te  Te176  1  0.91230180  0.42616635  0.91604641  1
  Te  Te177  1  0.89578292  0.73368439  0.32026960  1
  Te  Te178  1  0.92474573  0.75339164  0.58340653  1
  Te  Te179  1  0.91845792  0.71468991  0.93158323  1
