# generated using pymatgen
data_In2Te3
_symmetry_space_group_name_H-M   'P 1'
_cell_length_a   18.92442510
_cell_length_b   18.92570738
_cell_length_c   18.91306380
_cell_angle_alpha   89.98917596
_cell_angle_beta   90.06557858
_cell_angle_gamma   90.15240581
_symmetry_Int_Tables_number   1
_chemical_formula_structural   In2Te3
_chemical_formula_sum   'In72 Te108'
_cell_volume   6773.83907915
_cell_formula_units_Z   36
loop_
 _symmetry_equiv_pos_site_id
 _symmetry_equiv_pos_as_xyz
  1  'x, y, z'
loop_
 _atom_site_type_symbol
 _atom_site_label
 _atom_site_symmetry_multiplicity
 _atom_site_fract_x
 _atom_site_fract_y
 _atom_site_fract_z
 _atom_site_occupancy
  In  In0  1  -0.01382135  0.15065394  0.53534366  1
  In  In1  1  0.18438038  0.85015478  0.34342020  1
  In  In2  1  0.48708940  -0.00338780  0.51803812  1
  In  In3  1  -0.03658653  0.47534680  0.52388463  1
  In  In4  1  0.82448700  0.48488704  0.33751823  1
  In  In5  1  0.65798037  -0.00158305  0.32635122  1
  In  In6  1  0.84476566  0.67011893  0.85470834  1
  In  In7  1  0.69747674  0.14451759  0.15030707  1
  In  In8  1  0.16757342  0.67324170  0.49595684  1
  In  In9  1  0.14087737  0.84822728  -0.02723884  1
  In  In10  1  0.66775570  0.14563994  0.82228878  1
  In  In11  1  0.48672844  0.49910777  0.34641495  1
  In  In12  1  0.01037879  0.67583275  0.33511708  1
  In  In13  1  0.00583367  0.16927319  0.15131220  1
  In  In14  1  0.81811843  0.85270533  0.35647322  1
  In  In15  1  0.35141066  -0.00955146  0.00315426  1
  In  In16  1  0.81746214  0.67768460  0.49847786  1
  In  In17  1  0.33482065  0.30484210  0.65512604  1
  In  In18  1  0.66047263  0.16381338  0.50277483  1
  In  In19  1  0.65817665  0.49701253  0.80200115  1
  In  In20  1  -0.00367142  0.65914157  0.66777864  1
  In  In21  1  0.50435039  0.83560938  0.33023080  1
  In  In22  1  -0.01100277  0.17714250  0.79428252  1
  In  In23  1  0.16033040  0.48598312  -0.01257100  1
  In  In24  1  0.32214178  0.67939959  0.00711201  1
  In  In25  1  0.67083437  0.52013578  0.16127108  1
  In  In26  1  0.49364503  0.49471640  -0.00623484  1
  In  In27  1  0.82920534  0.85010247  0.67088295  1
  In  In28  1  0.51253802  0.32304839  0.51625820  1
  In  In29  1  0.83838925  0.19056910  0.31855552  1
  In  In30  1  0.33994468  0.31918421  0.35527271  1
  In  In31  1  0.49183646  0.83619025  0.67870366  1
  In  In32  1  0.84247466  0.50122855  -0.00517546  1
  In  In33  1  0.49531305  0.15910949  0.34886659  1
  In  In34  1  0.15859643  0.33137261  0.15006691  1
  In  In35  1  0.48598283  0.67675646  0.51395778  1
  In  In36  1  0.49070159  0.30097586  0.84370129  1
  In  In37  1  0.53334791  0.32845405  0.16147528  1
  In  In38  1  0.32883503  0.49755269  0.18517435  1
  In  In39  1  -0.01446513  0.34213017  0.31931259  1
  In  In40  1  0.17907705  0.86774754  0.68119047  1
  In  In41  1  0.64654037  0.85772282  0.16631788  1
  In  In42  1  0.17179637  0.00083803  0.51157828  1
  In  In43  1  0.68085251  0.32589770  0.66095864  1
  In  In44  1  0.84008100  0.85155516  -0.02158873  1
  In  In45  1  0.18011280  0.67157200  0.83293933  1
  In  In46  1  0.00970220  0.48314478  0.81748330  1
  In  In47  1  -0.01767481  0.31910064  0.00968605  1
  In  In48  1  0.67313708  0.49450885  0.48971184  1
  In  In49  1  0.00165585  0.00365047  0.33922007  1
  In  In50  1  0.00285954  0.01604050  -0.01476101  1
  In  In51  1  0.33270548  0.67874046  0.66334637  1
  In  In52  1  0.33333203  0.68544263  0.34008401  1
  In  In53  1  0.66000445  0.68607217  0.00554921  1
  In  In54  1  0.21189756  0.13598580  0.30437421  1
  In  In55  1  0.14894114  0.32547115  0.80745615  1
  In  In56  1  0.18562455  0.14241389  -0.01926905  1
  In  In57  1  0.32552530  0.83535237  0.17939138  1
  In  In58  1  0.67274709  0.85779458  0.84016955  1
  In  In59  1  0.32581382  0.49381329  0.81918340  1
  In  In60  1  0.48468021  0.02184082  0.79314123  1
  In  In61  1  0.83016818  0.01201524  0.52228442  1
  In  In62  1  0.68867953  0.31037647  -0.00909184  1
  In  In63  1  0.35344656  0.29454764  -0.00885312  1
  In  In64  1  0.17570660  0.15085066  0.67479567  1
  In  In65  1  0.17439835  0.31834826  0.48882669  1
  In  In66  1  0.83848265  0.65831971  0.16877538  1
  In  In67  1  0.82870800  0.00638770  0.84576943  1
  In  In68  1  0.51038511  0.84391764  0.00168800  1
  In  In69  1  0.65724773  0.65662497  0.66403569  1
  In  In70  1  0.15936689  0.52231176  0.34108929  1
  In  In71  1  0.01331550  0.83881447  0.15781112  1
  Te  Te72  1  0.10276975  0.07167559  0.08725846  1
  Te  Te73  1  0.08453454  0.09542626  0.42685641  1
  Te  Te74  1  0.08608033  0.07039991  0.76339683  1
  Te  Te75  1  0.06134601  0.42637247  0.08649684  1
  Te  Te76  1  0.07524910  0.42038485  0.42141653  1
  Te  Te77  1  0.09667493  0.42471450  0.71388108  1
  Te  Te78  1  0.09296020  0.75133971  0.07298581  1
  Te  Te79  1  0.07992297  0.77557099  0.42604266  1
  Te  Te80  1  0.09092957  0.75203147  0.74057209  1
  Te  Te81  1  0.37402098  0.10040940  0.10092207  1
  Te  Te82  1  0.40488530  0.05765702  0.40856163  1
  Te  Te83  1  0.39278783  0.10841940  0.71202639  1
  Te  Te84  1  0.41058618  0.40782516  0.09029214  1
  Te  Te85  1  0.41095959  0.41557572  0.44744361  1
  Te  Te86  1  0.41873298  0.39678412  0.74985246  1
  Te  Te87  1  0.42202520  0.75539552  0.09109475  1
  Te  Te88  1  0.40530713  0.77807781  0.43333673  1
  Te  Te89  1  0.41233452  0.74790955  0.76537539  1
  Te  Te90  1  0.76677029  0.06068376  0.05491920  1
  Te  Te91  1  0.76070678  0.08495022  0.40344603  1
  Te  Te92  1  0.76688825  0.07824611  0.73205303  1
  Te  Te93  1  0.74974658  0.41855449  0.08236418  1
  Te  Te94  1  0.75842017  0.39220647  0.42872619  1
  Te  Te95  1  0.76166910  0.40310555  0.76014449  1
  Te  Te96  1  0.76313662  0.76410416  0.08359283  1
  Te  Te97  1  0.72705329  0.75320741  0.41232316  1
  Te  Te98  1  0.74821873  0.74352355  0.76052894  1
  Te  Te99  1  0.09373420  0.24253449  0.25709722  1
  Te  Te100  1  0.08907650  0.24624340  0.59390124  1
  Te  Te101  1  0.08943745  0.24964856  0.92617624  1
  Te  Te102  1  0.07374175  0.58333294  0.24081143  1
  Te  Te103  1  0.07409738  0.57738258  0.56700187  1
  Te  Te104  1  0.07934846  0.58545787  0.90812001  1
  Te  Te105  1  0.09736332  0.93061528  0.24759069  1
  Te  Te106  1  0.07618622  0.93182623  0.59737913  1
  Te  Te107  1  0.07320844  0.94135833  0.87775997  1
  Te  Te108  1  0.42816049  0.25869080  0.24978922  1
  Te  Te109  1  0.42729961  0.21656225  0.57733670  1
  Te  Te110  1  0.43085071  0.18892714  0.92254749  1
  Te  Te111  1  0.42056141  0.59811402  0.25103248  1
  Te  Te112  1  0.42384213  0.57924621  0.60358257  1
  Te  Te113  1  0.40202803  0.58495503  0.91478851  1
  Te  Te114  1  0.42519026  0.92710466  0.24133220  1
  Te  Te115  1  0.39349133  0.92392800  0.60919600  1
  Te  Te116  1  0.43168890  0.91730361  0.89569193  1
  Te  Te117  1  0.73898479  0.25757639  0.23451267  1
  Te  Te118  1  0.76425766  0.23930898  0.57558849  1
  Te  Te119  1  0.76522415  0.22985956  0.89726047  1
  Te  Te120  1  0.74442466  0.59657187  0.26988182  1
  Te  Te121  1  0.75908040  0.57203010  0.59028842  1
  Te  Te122  1  0.72850803  0.58017361  0.91939704  1
  Te  Te123  1  0.76007565  0.92989133  0.23816097  1
  Te  Te124  1  0.73624687  0.91414354  0.57817828  1
  Te  Te125  1  0.71937499  0.95116177  0.95464010  1
  Te  Te126  1  0.25587667  0.23150581  0.09165868  1
  Te  Te127  1  0.26394143  0.21134021  0.42914837  1
  Te  Te128  1  0.26210242  0.23352916  0.77224958  1
  Te  Te129  1  0.24373842  0.57194735  0.08403643  1
  Te  Te130  1  0.26834509  0.57992371  0.42878092  1
  Te  Te131  1  0.23500221  0.57482307  0.73119561  1
  Te  Te132  1  0.24508500  0.90628755  0.07258797  1
  Te  Te133  1  0.27094629  0.94852560  0.41326045  1
  Te  Te134  1  0.26194291  0.95797326  0.76291554  1
  Te  Te135  1  0.58735855  0.22719023  0.06688134  1
  Te  Te136  1  0.59424602  0.26072058  0.40536895  1
  Te  Te137  1  0.58054639  0.24026816  0.73968593  1
  Te  Te138  1  0.56445391  0.59482644  0.08316602  1
  Te  Te139  1  0.57718412  0.59305594  0.42352149  1
  Te  Te140  1  0.55738292  0.58734051  0.74777821  1
  Te  Te141  1  0.55246232  0.94746873  0.09838877  1
  Te  Te142  1  0.58705650  0.91770242  0.43033922  1
  Te  Te143  1  0.59753503  0.93332853  0.73501679  1
  Te  Te144  1  0.89227671  0.24581689  0.09895854  1
  Te  Te145  1  0.93167608  0.24682488  0.42433953  1
  Te  Te146  1  0.91909866  0.28240515  0.72411562  1
  Te  Te147  1  0.92259361  0.60303570  0.06341026  1
  Te  Te148  1  0.91920272  0.58566765  0.41974560  1
  Te  Te149  1  0.90433564  0.57437707  0.75316049  1
  Te  Te150  1  0.92005766  0.93169755  0.08105166  1
  Te  Te151  1  0.92396084  0.92232592  0.44022110  1
  Te  Te152  1  0.90824736  0.89517440  0.78844467  1
  Te  Te153  1  0.30362719  0.05041463  0.22441945  1
  Te  Te154  1  0.28277625  0.05824697  0.61664101  1
  Te  Te155  1  0.25733142  0.04321702  0.89429905  1
  Te  Te156  1  0.24233423  0.40045619  0.26621846  1
  Te  Te157  1  0.24715212  0.40092277  0.58621015  1
  Te  Te158  1  0.26019430  0.39457215  0.91889157  1
  Te  Te159  1  0.22707419  0.73903241  0.24762019  1
  Te  Te160  1  0.24691442  0.77064023  0.57853912  1
  Te  Te161  1  0.26155266  0.77485257  0.90657645  1
  Te  Te162  1  0.57913237  0.09293937  0.24113701  1
  Te  Te163  1  0.56606037  0.09772032  0.59403914  1
  Te  Te164  1  0.56243064  0.08071185  0.90630994  1
  Te  Te165  1  0.59016561  0.43131149  0.25714161  1
  Te  Te166  1  0.58638266  0.42787374  0.59589411  1
  Te  Te167  1  0.58487686  0.40362986  0.91493641  1
  Te  Te168  1  0.58667443  0.74996745  0.24398013  1
  Te  Te169  1  0.58881934  0.76427610  0.58417766  1
  Te  Te170  1  0.57888186  0.75142173  0.89727659  1
  Te  Te171  1  0.91724162  0.08375944  0.24324850  1
  Te  Te172  1  0.90811028  0.07242807  0.63513468  1
  Te  Te173  1  0.91387582  0.11550302  0.91184879  1
  Te  Te174  1  0.90832261  0.42855024  0.23135830  1
  Te  Te175  1  0.88855843  0.38921953  0.61512406  1
  Te  Te176  1  0.91283655  0.40234398  0.90417550  1
  Te  Te177  1  0.91269419  0.76746477  0.25979523  1
  Te  Te178  1  0.91510272  0.75615353  0.58404283  1
  Te  Te179  1  0.93999591  0.76089490  0.91960523  1
