# generated using pymatgen
data_In2Te3
_symmetry_space_group_name_H-M   'P 1'
_cell_length_a   18.91067811
_cell_length_b   18.90582816
_cell_length_c   18.90255697
_cell_angle_alpha   90.15391433
_cell_angle_beta   89.98543870
_cell_angle_gamma   90.07402203
_symmetry_Int_Tables_number   1
_chemical_formula_structural   In2Te3
_chemical_formula_sum   'In72 Te108'
_cell_volume   6758.05031644
_cell_formula_units_Z   36
loop_
 _symmetry_equiv_pos_site_id
 _symmetry_equiv_pos_as_xyz
  1  'x, y, z'
loop_
 _atom_site_type_symbol
 _atom_site_label
 _atom_site_symmetry_multiplicity
 _atom_site_fract_x
 _atom_site_fract_y
 _atom_site_fract_z
 _atom_site_occupancy
  In  In0  1  0.34392343  -0.00895257  0.32303745  1
  In  In1  1  0.48774240  -0.01899362  0.50680945  1
  In  In2  1  0.85732763  0.36781603  0.15180482  1
  In  In3  1  0.16018927  0.18629909  0.66954437  1
  In  In4  1  0.67888206  0.16203398  0.17068861  1
  In  In5  1  0.66214842  0.82462701  0.79618262  1
  In  In6  1  0.15808732  0.67282854  0.50760873  1
  In  In7  1  0.31172937  0.69797216  -0.02959560  1
  In  In8  1  0.35495532  0.15565335  0.80161276  1
  In  In9  1  0.68358819  0.47962674  0.81058233  1
  In  In10  1  0.50155949  0.14834381  0.01122358  1
  In  In11  1  0.45715835  0.68036023  0.80249380  1
  In  In12  1  0.82382302  -0.00701019  0.51372084  1
  In  In13  1  0.64293405  -0.00408671  0.32502104  1
  In  In14  1  0.31836143  0.15741548  0.48256828  1
  In  In15  1  0.17336806  0.02618967  0.16492954  1
  In  In16  1  0.49378171  0.48206590  -0.00840163  1
  In  In17  1  0.83336525  0.17047031  0.65843887  1
  In  In18  1  0.14836479  -0.01265125  0.52686514  1
  In  In19  1  0.32336506  0.34164373  -0.00413819  1
  In  In20  1  0.81668973  0.63832229  0.52985671  1
  In  In21  1  0.84989727  0.50433130  -0.01242770  1
  In  In22  1  0.36503340  0.79658243  0.49506678  1
  In  In23  1  -0.00540484  0.52015332  0.16272342  1
  In  In24  1  0.67851525  0.48717374  0.17821393  1
  In  In25  1  0.66357085  0.17284494  0.50955468  1
  In  In26  1  0.32960091  0.34408691  0.65255410  1
  In  In27  1  -0.00314116  0.84464944  0.16205835  1
  In  In28  1  0.67200336  0.65546729  -0.01049500  1
  In  In29  1  0.66366258  0.83404767  0.14130470  1
  In  In30  1  0.67556914  0.35174535  0.34880220  1
  In  In31  1  0.81912747  0.18563017  -0.01395419  1
  In  In32  1  0.32300731  0.34636534  0.33726793  1
  In  In33  1  0.66407402  0.62844342  0.34415237  1
  In  In34  1  -0.00415547  0.35266508  -0.00345678  1
  In  In35  1  0.49703803  0.65435623  0.19523902  1
  In  In36  1  0.34104173  0.53189667  0.52216343  1
  In  In37  1  0.34138501  -0.01410751  -0.01135817  1
  In  In38  1  0.35678777  -0.02537649  0.66404822  1
  In  In39  1  -0.02415340  0.49550987  0.54504415  1
  In  In40  1  0.82681517  -0.00377616  0.15664406  1
  In  In41  1  -0.01153717  0.17781590  0.50623132  1
  In  In42  1  0.84265959  0.17406201  0.32726006  1
  In  In43  1  0.50959952  0.14706574  0.68407354  1
  In  In44  1  0.34847067  0.84322017  0.16149929  1
  In  In45  1  0.50365367  0.50200673  0.66923775  1
  In  In46  1  0.14871016  0.22263215  0.32501027  1
  In  In47  1  0.51346101  0.32491326  0.16407718  1
  In  In48  1  0.15497850  0.48456193  0.37009955  1
  In  In49  1  0.14240797  0.35921366  0.84765735  1
  In  In50  1  0.00104139  0.68529020  0.69618763  1
  In  In51  1  0.00775977  0.86593036  0.52229292  1
  In  In52  1  0.82561304  -0.00952093  0.82478154  1
  In  In53  1  0.18479849  0.69457868  0.16413908  1
  In  In54  1  0.19807229  0.84737038  0.34204064  1
  In  In55  1  0.16505056  0.15767357  0.02887877  1
  In  In56  1  0.50030338  0.84546588  -0.00879138  1
  In  In57  1  -0.00663310  0.67912841  0.32222032  1
  In  In58  1  0.65918688  0.15767769  0.83733621  1
  In  In59  1  0.50683379  0.31997562  0.81036003  1
  In  In60  1  0.33620809  0.18348677  0.15453107  1
  In  In61  1  0.83850998  0.83372640  0.67613156  1
  In  In62  1  0.15476802  0.54313833  -0.00817053  1
  In  In63  1  0.84572350  0.48933715  0.32964757  1
  In  In64  1  0.16747876  0.00066807  0.84641912  1
  In  In65  1  -0.00787597  0.00849555  0.35323850  1
  In  In66  1  -0.02505141  0.49257668  0.79320219  1
  In  In67  1  0.15729767  0.82192166  -0.03231130  1
  In  In68  1  0.50724317  0.32830466  0.51196289  1
  In  In69  1  0.84601502  0.80696739  -0.04567523  1
  In  In70  1  0.64769389  0.78981259  0.51589747  1
  In  In71  1  -0.02070227  0.17245269  0.81960291  1
  Te  Te72  1  0.06218891  0.06682031  0.07909372  1
  Te  Te73  1  0.09776009  0.09031577  0.42500057  1
  Te  Te74  1  0.08127419  0.08433713  0.74951144  1
  Te  Te75  1  0.09108948  0.43587623  0.07983989  1
  Te  Te76  1  0.05749100  0.41253386  0.45225341  1
  Te  Te77  1  0.09335267  0.42868571  0.72948858  1
  Te  Te78  1  0.07652462  0.74775729  0.07442840  1
  Te  Te79  1  0.08600032  0.77278110  0.41488245  1
  Te  Te80  1  0.10918146  0.76817231  0.75209774  1
  Te  Te81  1  0.41110038  0.06274542  0.10135055  1
  Te  Te82  1  0.42945152  0.08417179  0.41042168  1
  Te  Te83  1  0.44963007  0.03882620  0.77360761  1
  Te  Te84  1  0.40912099  0.41679237  0.09948407  1
  Te  Te85  1  0.40917824  0.41790703  0.44047421  1
  Te  Te86  1  0.40756189  0.42069256  0.75843576  1
  Te  Te87  1  0.42937084  0.73791684  0.08489358  1
  Te  Te88  1  0.45380347  0.71477240  0.40670907  1
  Te  Te89  1  0.35080030  0.75401846  0.72341358  1
  Te  Te90  1  0.74100076  0.07701887  0.06130554  1
  Te  Te91  1  0.75161784  0.08136363  0.41030197  1
  Te  Te92  1  0.74049032  0.07588048  0.73401648  1
  Te  Te93  1  0.74647006  0.41703497  0.06167269  1
  Te  Te94  1  0.74610863  0.45118831  0.43077367  1
  Te  Te95  1  0.77402898  0.46401071  0.69114524  1
  Te  Te96  1  0.76323962  0.74409142  0.07101734  1
  Te  Te97  1  0.75068117  0.72700658  0.42373517  1
  Te  Te98  1  0.76057340  0.72795450  0.74334351  1
  Te  Te99  1  0.04259279  0.26923451  0.24112199  1
  Te  Te100  1  0.07852784  0.26927471  0.58141944  1
  Te  Te101  1  0.08221409  0.23950414  0.92111545  1
  Te  Te102  1  0.09897169  0.59811982  0.24861318  1
  Te  Te103  1  0.08184082  0.58942695  0.60709841  1
  Te  Te104  1  0.04427705  0.58330658  0.89802963  1
  Te  Te105  1  0.09524593  0.92647670  0.26233539  1
  Te  Te106  1  0.10414939  0.89229140  0.63241538  1
  Te  Te107  1  0.06256500  0.91464202  0.90473161  1
  Te  Te108  1  0.41838224  0.25341176  0.26026205  1
  Te  Te109  1  0.41495640  0.22739499  0.58867751  1
  Te  Te110  1  0.42131315  0.25041347  0.92136825  1
  Te  Te111  1  0.43369010  0.58893494  0.31105787  1
  Te  Te112  1  0.44690526  0.61671327  0.58658082  1
  Te  Te113  1  0.41368554  0.58985462  0.92299191  1
  Te  Te114  1  0.43932278  0.89874533  0.26299247  1
  Te  Te115  1  0.45973918  0.86690926  0.60784207  1
  Te  Te116  1  0.37998996  0.86918557  0.90611406  1
  Te  Te117  1  0.76069347  0.27698284  0.23959254  1
  Te  Te118  1  0.77190123  0.26170337  0.55603645  1
  Te  Te119  1  0.75542117  0.26104262  0.87801735  1
  Te  Te120  1  0.77404036  0.58588343  0.23827424  1
  Te  Te121  1  0.69569326  0.57187826  0.59417215  1
  Te  Te122  1  0.76268198  0.58402438  0.89276901  1
  Te  Te123  1  0.74555422  0.91188962  0.25168424  1
  Te  Te124  1  0.73258021  0.89814108  0.58824045  1
  Te  Te125  1  0.73509046  0.90144587  0.90775568  1
  Te  Te126  1  0.23021615  0.27595192  0.09855070  1
  Te  Te127  1  0.23358944  0.27454293  0.44065611  1
  Te  Te128  1  0.25149783  0.26390730  0.76801941  1
  Te  Te129  1  0.26582853  0.59743235  0.08171268  1
  Te  Te130  1  0.24983842  0.59499690  0.41606021  1
  Te  Te131  1  0.32946774  0.61037833  0.75476155  1
  Te  Te132  1  0.23598925  0.90873929  0.08143055  1
  Te  Te133  1  0.27365292  0.92225027  0.45100834  1
  Te  Te134  1  0.26938534  0.92071885  0.77188309  1
  Te  Te135  1  0.60126235  0.24893056  0.06774228  1
  Te  Te136  1  0.58130250  0.24662883  0.40618028  1
  Te  Te137  1  0.60884862  0.25558242  0.72182549  1
  Te  Te138  1  0.58499492  0.57394684  0.08668608  1
  Te  Te139  1  0.54545229  0.58839505  0.42364912  1
  Te  Te140  1  0.57499180  0.58067635  0.77937429  1
  Te  Te141  1  0.57466425  0.93350394  0.08192075  1
  Te  Te142  1  0.58428727  0.89740111  0.42372349  1
  Te  Te143  1  0.55208587  0.89457485  0.73188664  1
  Te  Te144  1  0.92131247  0.24926727  0.08021652  1
  Te  Te145  1  0.89659694  0.26565656  0.42938901  1
  Te  Te146  1  0.92673006  0.27042385  0.72154157  1
  Te  Te147  1  0.92329153  0.60795138  0.06665842  1
  Te  Te148  1  0.92820796  0.58677515  0.42353722  1
  Te  Te149  1  0.88596305  0.59495729  0.72871517  1
  Te  Te150  1  0.90396309  0.90787189  0.06022463  1
  Te  Te151  1  0.90101905  0.90597911  0.41495633  1
  Te  Te152  1  0.93035747  0.90250591  0.76838818  1
  Te  Te153  1  0.25076826  0.10831417  0.26659986  1
  Te  Te154  1  0.25744983  0.08279235  0.60345259  1
  Te  Te155  1  0.26562849  0.10278391  0.92609576  1
  Te  Te156  1  0.22972244  0.42597113  0.25766002  1
  Te  Te157  1  0.24442913  0.44928700  0.59895354  1
  Te  Te158  1  0.24821032  0.44556321  0.91442748  1
  Te  Te159  1  0.28303935  0.74853422  0.26656724  1
  Te  Te160  1  0.25629097  0.75335558  0.58732286  1
  Te  Te161  1  0.20061759  0.71588197  0.86822757  1
  Te  Te162  1  0.57237953  0.09485807  0.24456780  1
  Te  Te163  1  0.58993452  0.06460490  0.58499108  1
  Te  Te164  1  0.57411455  0.06472315  0.91381474  1
  Te  Te165  1  0.57087257  0.42545199  0.26456496  1
  Te  Te166  1  0.59617586  0.42090582  0.58392798  1
  Te  Te167  1  0.59029086  0.40225101  0.90859384  1
  Te  Te168  1  0.60957936  0.73939965  0.24911623  1
  Te  Te169  1  0.59578579  0.68403588  0.60774377  1
  Te  Te170  1  0.58082148  0.74560535  0.90934708  1
  Te  Te171  1  0.92488029  0.08202881  0.23877849  1
  Te  Te172  1  0.92919794  0.06711453  0.59320065  1
  Te  Te173  1  0.90739806  0.08187535  0.91595694  1
  Te  Te174  1  0.96044289  0.40207855  0.26295093  1
  Te  Te175  1  0.89051818  0.39522037  0.61492721  1
  Te  Te176  1  0.90052384  0.39839631  0.88929258  1
  Te  Te177  1  0.90528400  0.76529299  0.24513132  1
  Te  Te178  1  0.92179435  0.74861588  0.56874659  1
  Te  Te179  1  0.94457803  0.70166193  0.92393464  1
