# generated using pymatgen
data_In2Te3
_symmetry_space_group_name_H-M   'P 1'
_cell_length_a   18.77521122
_cell_length_b   18.77558083
_cell_length_c   18.77388622
_cell_angle_alpha   90.03156675
_cell_angle_beta   90.03028728
_cell_angle_gamma   90.04591544
_symmetry_Int_Tables_number   1
_chemical_formula_structural   In2Te3
_chemical_formula_sum   'In72 Te108'
_cell_volume   6618.08175358
_cell_formula_units_Z   36
loop_
 _symmetry_equiv_pos_site_id
 _symmetry_equiv_pos_as_xyz
  1  'x, y, z'
loop_
 _atom_site_type_symbol
 _atom_site_label
 _atom_site_symmetry_multiplicity
 _atom_site_fract_x
 _atom_site_fract_y
 _atom_site_fract_z
 _atom_site_occupancy
  In  In0  1  0.83896196  0.66844769  0.49587263  1
  In  In1  1  0.49339359  0.32541428  0.50471954  1
  In  In2  1  0.50392953  0.82455145  0.00820389  1
  In  In3  1  0.14439864  0.31919560  0.84981247  1
  In  In4  1  0.17359096  0.82830293  0.00673435  1
  In  In5  1  0.19270750  0.30395688  0.48005916  1
  In  In6  1  0.32759225  0.49426210  0.18038450  1
  In  In7  1  0.67007138  0.33127542  0.66339274  1
  In  In8  1  0.02978025  0.82187491  0.19450872  1
  In  In9  1  0.66126140  0.36746714  -0.01667719  1
  In  In10  1  0.83402253  0.32584850  0.82922356  1
  In  In11  1  0.49237826  0.50566811  0.34535098  1
  In  In12  1  0.67697525  0.15397578  0.79518689  1
  In  In13  1  0.83035114  0.84720955  0.02618110  1
  In  In14  1  0.84780467  0.85662847  0.34630712  1
  In  In15  1  0.29463123  0.81889909  0.21130023  1
  In  In16  1  0.32071014  0.16958508  0.18845760  1
  In  In17  1  0.87045454  0.30360369  0.16373597  1
  In  In18  1  0.48821732  0.19107324  0.00307725  1
  In  In19  1  0.33672320  0.34978116  -0.00642516  1
  In  In20  1  0.32458555  0.00971682  -0.01097016  1
  In  In21  1  0.82973193  0.31233942  0.50440129  1
  In  In22  1  0.46361873  0.32404505  0.16866134  1
  In  In23  1  0.50733186  0.66317579  0.17356281  1
  In  In24  1  0.15192163  0.32446482  0.17850478  1
  In  In25  1  0.85153646  0.83635341  0.64323636  1
  In  In26  1  0.16658018  0.51281434  0.31752132  1
  In  In27  1  0.02160741  0.01121377  0.65277721  1
  In  In28  1  0.85943367  0.12900077  0.31193616  1
  In  In29  1  0.67391021  0.84247323  0.49043093  1
  In  In30  1  0.66256892  -0.00557630  0.33747834  1
  In  In31  1  -0.00270215  0.66795446  0.65244065  1
  In  In32  1  0.65010083  0.50002890  0.50415403  1
  In  In33  1  0.49995420  0.16514587  0.66627369  1
  In  In34  1  0.36495464  0.64657477  -0.01275223  1
  In  In35  1  0.66898777  0.50948500  0.14577421  1
  In  In36  1  0.19286591  0.64898591  0.83067720  1
  In  In37  1  0.00109010  0.01922231  0.00497164  1
  In  In38  1  0.47009336  0.68272366  0.47925731  1
  In  In39  1  0.33374524  0.67943509  0.66025401  1
  In  In40  1  0.00335105  0.49151250  0.83633415  1
  In  In41  1  0.63771523  0.49319024  0.82275211  1
  In  In42  1  0.18001342  0.01016600  0.82331754  1
  In  In43  1  0.66829203  0.81536869  0.18217846  1
  In  In44  1  0.85224395  0.00655686  0.49703421  1
  In  In45  1  0.82858241  0.66415407  0.83839461  1
  In  In46  1  0.47610615  0.02019621  0.48774015  1
  In  In47  1  -0.01045457  0.68614847  0.01907418  1
  In  In48  1  0.16975691  0.48877280  0.01632863  1
  In  In49  1  0.83651923  0.51001497  0.33264737  1
  In  In50  1  0.48011280  -0.02536810  0.19338377  1
  In  In51  1  -0.00513882  0.31742420  0.32953559  1
  In  In52  1  0.01387638  0.49332198  0.51807552  1
  In  In53  1  0.34121293  -0.00121984  0.66393181  1
  In  In54  1  -0.00058491  0.85692568  0.79683385  1
  In  In55  1  0.49196456  0.82747751  0.67510564  1
  In  In56  1  0.16361721  0.16778546  0.66662215  1
  In  In57  1  0.32674206  0.50168904  0.50352822  1
  In  In58  1  0.66877743  0.65349125  0.67219671  1
  In  In59  1  0.63567907  0.31740070  0.33954106  1
  In  In60  1  0.82376092  0.68008594  0.15103575  1
  In  In61  1  0.84162705  0.49821882  -0.02617804  1
  In  In62  1  0.13648424  -0.00092947  0.18807288  1
  In  In63  1  0.49997356  0.00576175  0.82439775  1
  In  In64  1  0.00090130  0.31897561  0.67355810  1
  In  In65  1  0.66537097  0.15879336  0.18030459  1
  In  In66  1  0.17950267  -0.00260695  0.45821102  1
  In  In67  1  0.34868183  0.35311605  0.67929034  1
  In  In68  1  0.18615553  0.83997567  0.64574804  1
  In  In69  1  0.64588911  0.84353934  0.84618974  1
  In  In70  1  0.85787026  0.18668873  0.00023232  1
  In  In71  1  0.68928766  0.01824966  0.00830442  1
  Te  Te72  1  0.11512524  0.08737932  0.07029216  1
  Te  Te73  1  0.11556640  0.10661698  0.37490720  1
  Te  Te74  1  0.07034656  0.10019558  0.76832219  1
  Te  Te75  1  0.07421533  0.43026745  0.11033813  1
  Te  Te76  1  0.08937105  0.40735466  0.41246850  1
  Te  Te77  1  0.09397071  0.42081466  0.73882228  1
  Te  Te78  1  0.11021574  0.72767880  0.10215448  1
  Te  Te79  1  0.08668708  0.75160404  0.34580650  1
  Te  Te80  1  0.09409908  0.74732353  0.74975962  1
  Te  Te81  1  0.42133759  0.08412014  0.09400568  1
  Te  Te82  1  0.38639487  0.10489607  0.40697353  1
  Te  Te83  1  0.39802590  0.09975502  0.76279694  1
  Te  Te84  1  0.42840618  0.43983847  0.07852165  1
  Te  Te85  1  0.40156674  0.40397635  0.41112269  1
  Te  Te86  1  0.42421888  0.44137355  0.77183997  1
  Te  Te87  1  0.40113266  0.76468426  0.10385518  1
  Te  Te88  1  0.38264532  0.77319476  0.40254054  1
  Te  Te89  1  0.41537780  0.74384795  0.76804034  1
  Te  Te90  1  0.78146153  0.09342549  0.10403977  1
  Te  Te91  1  0.75110208  0.09028397  0.41382339  1
  Te  Te92  1  0.77792963  0.05918140  0.75460035  1
  Te  Te93  1  0.76906863  0.40517308  0.08983149  1
  Te  Te94  1  0.74432734  0.41581588  0.41509650  1
  Te  Te95  1  0.75439592  0.42759260  0.74833877  1
  Te  Te96  1  0.72094071  0.74436135  0.05800786  1
  Te  Te97  1  0.75065816  0.74771313  0.39992865  1
  Te  Te98  1  0.75665092  0.76420787  0.74533290  1
  Te  Te99  1  0.08748778  0.21701710  0.26489609  1
  Te  Te100  1  0.08007636  0.24277187  0.56380948  1
  Te  Te101  1  0.05024079  0.25774187  0.94408244  1
  Te  Te102  1  0.07981532  0.61599534  0.25415040  1
  Te  Te103  1  0.10286007  0.59502824  0.57871680  1
  Te  Te104  1  0.07566561  0.59494948  0.92420829  1
  Te  Te105  1  0.09618047  0.90551403  0.30434337  1
  Te  Te106  1  0.08728610  0.91354703  0.55713503  1
  Te  Te107  1  0.08598000  0.91371956  0.91561551  1
  Te  Te108  1  0.42219690  0.23481611  0.27949987  1
  Te  Te109  1  0.39453388  0.24120553  0.58538493  1
  Te  Te110  1  0.40101758  0.25167837  0.90225744  1
  Te  Te111  1  0.40196537  0.59747858  0.26469873  1
  Te  Te112  1  0.43134466  0.57968635  0.58135995  1
  Te  Te113  1  0.40250265  0.55382780  0.87961265  1
  Te  Te114  1  0.37817540  0.92012898  0.29076957  1
  Te  Te115  1  0.41065698  0.90198384  0.57079438  1
  Te  Te116  1  0.41815806  0.91442945  0.91533658  1
  Te  Te117  1  0.75769410  0.25603536  0.26306854  1
  Te  Te118  1  0.74492446  0.22763436  0.59021090  1
  Te  Te119  1  0.73252771  0.24729476  0.92081714  1
  Te  Te120  1  0.73997281  0.59580867  0.25039458  1
  Te  Te121  1  0.76180780  0.57037177  0.58398338  1
  Te  Te122  1  0.72929572  0.58157192  0.91849066  1
  Te  Te123  1  0.75665878  0.92382918  0.24125259  1
  Te  Te124  1  0.74828903  0.93390170  0.58429880  1
  Te  Te125  1  0.75945093  0.92284918  0.91212750  1
  Te  Te126  1  0.25161552  0.25746774  0.08342087  1
  Te  Te127  1  0.27297561  0.21314555  0.39528381  1
  Te  Te128  1  0.24730783  0.25970798  0.75344406  1
  Te  Te129  1  0.25923572  0.59194814  0.08461697  1
  Te  Te130  1  0.24684810  0.59347180  0.41616869  1
  Te  Te131  1  0.25630370  0.56907947  0.72575393  1
  Te  Te132  1  0.25210395  0.92460035  0.09755923  1
  Te  Te133  1  0.28059778  0.89201717  0.42306621  1
  Te  Te134  1  0.26661140  0.90297830  0.75878435  1
  Te  Te135  1  0.59241186  0.26409913  0.09393852  1
  Te  Te136  1  0.59116182  0.22929680  0.44770276  1
  Te  Te137  1  0.57477721  0.25948986  0.76123986  1
  Te  Te138  1  0.56877498  0.58272628  0.06592412  1
  Te  Te139  1  0.58931944  0.60266453  0.41063460  1
  Te  Te140  1  0.55904740  0.59997402  0.75430570  1
  Te  Te141  1  0.59054535  0.93142127  0.08876369  1
  Te  Te142  1  0.56231379  0.90973607  0.41350012  1
  Te  Te143  1  0.59252022  0.92900605  0.73088989  1
  Te  Te144  1  0.97738259  0.23138992  0.08398391  1
  Te  Te145  1  0.92038328  0.22149287  0.42034195  1
  Te  Te146  1  0.90910143  0.22953069  0.74724570  1
  Te  Te147  1  0.91349453  0.57329162  0.08719421  1
  Te  Te148  1  0.93964673  0.58430406  0.41677856  1
  Te  Te149  1  0.91397756  0.57775433  0.74598220  1
  Te  Te150  1  0.93335027  0.92232479  0.11306560  1
  Te  Te151  1  0.94971788  0.95159873  0.39758418  1
  Te  Te152  1  0.89600806  0.95319463  0.74029906  1
  Te  Te153  1  0.24176926  0.07063689  0.27285861  1
  Te  Te154  1  0.24359555  0.07504248  0.57637930  1
  Te  Te155  1  0.24245363  0.10746119  0.91612501  1
  Te  Te156  1  0.25415248  0.39497458  0.26753663  1
  Te  Te157  1  0.23895560  0.40657313  0.58373374  1
  Te  Te158  1  0.24281813  0.42746629  0.90023923  1
  Te  Te159  1  0.21868142  0.70801231  0.28505782  1
  Te  Te160  1  0.24041800  0.73588895  0.55656139  1
  Te  Te161  1  0.26861366  0.74924521  0.91820521  1
  Te  Te162  1  0.56217790  0.08537859  0.26497859  1
  Te  Te163  1  0.57765755  0.07142541  0.58348313  1
  Te  Te164  1  0.58338423  0.09046814  0.92321097  1
  Te  Te165  1  0.57708913  0.42384772  0.24413276  1
  Te  Te166  1  0.56308619  0.42243588  0.60116626  1
  Te  Te167  1  0.54192655  0.41071922  0.90440229  1
  Te  Te168  1  0.55885821  0.76639547  0.26638038  1
  Te  Te169  1  0.58833200  0.74652832  0.57674296  1
  Te  Te170  1  0.56560862  0.73575660  0.90670486  1
  Te  Te171  1  0.92789666  0.05598320  0.20479862  1
  Te  Te172  1  0.93319110  0.10206803  0.57729324  1
  Te  Te173  1  0.90329299  0.07755426  0.91104372  1
  Te  Te174  1  0.92704040  0.42427739  0.24433135  1
  Te  Te175  1  0.90837855  0.41144621  0.59137056  1
  Te  Te176  1  0.93875357  0.38701242  0.92982514  1
  Te  Te177  1  0.90994076  0.74622215  0.25651226  1
  Te  Te178  1  0.94583049  0.76703907  0.54527610  1
  Te  Te179  1  0.91613151  0.76746057  0.91290773  1
