# generated using pymatgen
data_In2Te3
_symmetry_space_group_name_H-M   'P 1'
_cell_length_a   18.74816565
_cell_length_b   18.74677044
_cell_length_c   18.74699876
_cell_angle_alpha   89.99980400
_cell_angle_beta   89.96035283
_cell_angle_gamma   90.04669108
_symmetry_Int_Tables_number   1
_chemical_formula_structural   In2Te3
_chemical_formula_sum   'In72 Te108'
_cell_volume   6588.95810369
_cell_formula_units_Z   36
loop_
 _symmetry_equiv_pos_site_id
 _symmetry_equiv_pos_as_xyz
  1  'x, y, z'
loop_
 _atom_site_type_symbol
 _atom_site_label
 _atom_site_symmetry_multiplicity
 _atom_site_fract_x
 _atom_site_fract_y
 _atom_site_fract_z
 _atom_site_occupancy
  In  In0  1  0.82082249  0.49931697  0.32469082  1
  In  In1  1  0.36328797  0.63335825  0.30560590  1
  In  In2  1  0.16457485  0.65459400  0.48968409  1
  In  In3  1  0.67244808  0.16455512  0.84112572  1
  In  In4  1  0.66435233  0.00121066  0.01034251  1
  In  In5  1  0.17441047  0.47883463  0.65309741  1
  In  In6  1  -0.00765148  0.50493906  0.83335170  1
  In  In7  1  0.82739873  0.17029067  0.00477948  1
  In  In8  1  0.32021380  0.84761591  0.81882332  1
  In  In9  1  0.51190413  0.16178544  0.66830718  1
  In  In10  1  0.82316856  0.82299733  0.66966014  1
  In  In11  1  0.48610542  0.50109875  0.66829895  1
  In  In12  1  0.17133382  -0.00966980  0.82494322  1
  In  In13  1  0.81044001  0.33654190  0.17990101  1
  In  In14  1  0.67261564  0.68420999  0.66640179  1
  In  In15  1  0.35767203  0.67404828  0.65515479  1
  In  In16  1  0.66084119  0.65964951  0.01262741  1
  In  In17  1  0.85175850  0.48586733  0.66662957  1
  In  In18  1  0.67862975  0.31064733  0.66751622  1
  In  In19  1  0.66209477  0.32621626  0.34506340  1
  In  In20  1  -0.01584216  0.66455370  0.31499633  1
  In  In21  1  0.81652291  0.01794167  0.82682073  1
  In  In22  1  -0.01781763  0.86179976  0.49444766  1
  In  In23  1  0.52249253  0.84718904  0.02401843  1
  In  In24  1  0.15712065  0.66635652  0.83799347  1
  In  In25  1  -0.01996517  -0.00788855  0.33493130  1
  In  In26  1  0.19799537  0.03977895  0.51784535  1
  In  In27  1  0.65771230  0.33078362  0.01286355  1
  In  In28  1  0.48563743  0.67513671  0.85002535  1
  In  In29  1  -0.00117325  0.34061070  -0.01510231  1
  In  In30  1  0.51992384  0.82234253  0.32086507  1
  In  In31  1  0.52559647  -0.00232051  0.82029398  1
  In  In32  1  0.82144274  0.83135388  0.00649647  1
  In  In33  1  0.32801000  0.34090528  0.66636493  1
  In  In34  1  0.49606987  0.33107224  0.16047822  1
  In  In35  1  -0.00864191  0.50929766  0.15211653  1
  In  In36  1  0.02500002  0.65790986  0.67673999  1
  In  In37  1  -0.01466926  0.65699095  0.00281200  1
  In  In38  1  0.49609055  0.65759604  0.48565803  1
  In  In39  1  0.36035294  0.01083500  0.36821055  1
  In  In40  1  0.14263180  0.46516193  0.35115988  1
  In  In41  1  0.17253643  0.33175092  0.17195123  1
  In  In42  1  0.66069819  0.48751372  0.17098755  1
  In  In43  1  0.00048724  0.00393397  0.67223215  1
  In  In44  1  0.82286521  0.67493191  0.47929590  1
  In  In45  1  0.33313765  0.33882143  0.00927643  1
  In  In46  1  0.33360931  0.34600726  0.34002186  1
  In  In47  1  0.32741234  0.64090716  0.03399871  1
  In  In48  1  0.00831838  0.14277715  0.17011015  1
  In  In49  1  0.66011668  0.85202499  0.48165887  1
  In  In50  1  0.49266667  0.32846954  0.49497377  1
  In  In51  1  0.34062544  0.01263884  0.00536863  1
  In  In52  1  -0.01727725  0.82058930  0.15142763  1
  In  In53  1  0.00988919  0.17483507  0.83111534  1
  In  In54  1  0.34664592  0.82040392  0.19441103  1
  In  In55  1  0.32412399  0.49370308  0.83970382  1
  In  In56  1  0.64933269  0.51304905  0.47294203  1
  In  In57  1  0.18425212  0.17650332  0.33687459  1
  In  In58  1  0.15367604  0.83219162  -0.00792518  1
  In  In59  1  0.33696856  0.19803913  0.84346461  1
  In  In60  1  0.67065775  0.15643242  0.51147623  1
  In  In61  1  0.19043697  0.81593983  0.32424097  1
  In  In62  1  0.37860134  0.86932461  0.51272756  1
  In  In63  1  0.84062939  0.16231785  0.67376245  1
  In  In64  1  0.34229748  0.17328720  0.15906906  1
  In  In65  1  0.16141842  0.00185083  0.15394187  1
  In  In66  1  0.01037432  0.32346981  0.66249176  1
  In  In67  1  0.66480179  0.49959392  0.86479498  1
  In  In68  1  0.17523381  0.82288056  0.68486727  1
  In  In69  1  0.81904197  0.00852936  0.47267546  1
  In  In70  1  0.01000976  0.20252737  0.48430036  1
  In  In71  1  0.81882907  -0.02621662  0.18864789  1
  Te  Te72  1  0.08292502  0.08121719  0.05855604  1
  Te  Te73  1  0.08577498  0.07410516  0.40986690  1
  Te  Te74  1  0.10159859  0.09695689  0.73561278  1
  Te  Te75  1  0.09217226  0.42169162  0.07812011  1
  Te  Te76  1  0.05016099  0.37284786  0.43106187  1
  Te  Te77  1  0.09044031  0.41199284  0.76073990  1
  Te  Te78  1  0.09138666  0.73342256  0.08902855  1
  Te  Te79  1  0.07258036  0.75402864  0.41432377  1
  Te  Te80  1  0.06401594  0.76968619  0.77536205  1
  Te  Te81  1  0.44442338  0.08292500  0.09188001  1
  Te  Te82  1  0.45330728  0.10621501  0.42920905  1
  Te  Te83  1  0.41663291  0.08915906  0.76422905  1
  Te  Te84  1  0.40009728  0.43451315  0.10667355  1
  Te  Te85  1  0.43464530  0.43313164  0.40742420  1
  Te  Te86  1  0.42535098  0.40346117  0.76784757  1
  Te  Te87  1  0.43030077  0.74536632  0.09076845  1
  Te  Te88  1  0.40007009  0.75486056  0.40622825  1
  Te  Te89  1  0.43301003  0.77268186  0.74230974  1
  Te  Te90  1  0.75017549  0.08667337  0.10396497  1
  Te  Te91  1  0.72883473  0.09098449  0.39004692  1
  Te  Te92  1  0.72183827  0.07919979  0.72396954  1
  Te  Te93  1  0.76079513  0.42925285  0.07010360  1
  Te  Te94  1  0.75477552  0.41014410  0.43184239  1
  Te  Te95  1  0.74329376  0.42061476  0.75163454  1
  Te  Te96  1  0.72085921  0.76874510  0.10147715  1
  Te  Te97  1  0.71631884  0.73813285  0.39883818  1
  Te  Te98  1  0.74969766  0.74865089  0.77413756  1
  Te  Te99  1  0.07599673  0.24965399  0.25736019  1
  Te  Te100  1  0.10774322  0.23779715  0.58848756  1
  Te  Te101  1  0.09928851  0.25674358  0.91575181  1
  Te  Te102  1  0.08821280  0.57237132  0.25443635  1
  Te  Te103  1  0.07418546  0.56030193  0.56986319  1
  Te  Te104  1  0.09255535  0.56930654  0.93218961  1
  Te  Te105  1  0.08283327  0.90721717  0.24841821  1
  Te  Te106  1  0.09337454  0.91541403  0.58502530  1
  Te  Te107  1  0.07175391  0.92423235  0.91254515  1
  Te  Te108  1  0.42117009  0.24377524  0.26630193  1
  Te  Te109  1  0.40314041  0.23141193  0.57825435  1
  Te  Te110  1  0.43227099  0.25000008  0.94428880  1
  Te  Te111  1  0.44194440  0.56903759  0.19594910  1
  Te  Te112  1  0.39890376  0.56223511  0.55970702  1
  Te  Te113  1  0.41939313  0.56735513  0.93489876  1
  Te  Te114  1  0.42828981  0.93295941  0.25386920  1
  Te  Te115  1  0.46480758  0.94021385  0.61082932  1
  Te  Te116  1  0.42257123  0.91244861  0.91907267  1
  Te  Te117  1  0.73740323  0.23357610  0.25658024  1
  Te  Te118  1  0.77709025  0.25248343  0.56645882  1
  Te  Te119  1  0.75849231  0.26783045  0.91160060  1
  Te  Te120  1  0.73938288  0.59089240  0.24395641  1
  Te  Te121  1  0.74700688  0.57883588  0.58076480  1
  Te  Te122  1  0.76158147  0.59190012  0.92653505  1
  Te  Te123  1  0.74331417  0.88570427  0.28077023  1
  Te  Te124  1  0.75085413  0.92567146  0.58254964  1
  Te  Te125  1  0.73544011  0.91618504  0.90550531  1
  Te  Te126  1  0.23219907  0.23195995  0.07507834  1
  Te  Te127  1  0.24579351  0.26942498  0.43485078  1
  Te  Te128  1  0.23851512  0.25768506  0.75007645  1
  Te  Te129  1  0.24242825  0.56464621  0.12462059  1
  Te  Te130  1  0.25135502  0.57201086  0.39842968  1
  Te  Te131  1  0.25176626  0.59453484  0.73749367  1
  Te  Te132  1  0.26294562  0.90054842  0.08491300  1
  Te  Te133  1  0.24854917  0.91754909  0.42398793  1
  Te  Te134  1  0.26734484  0.94265629  0.71281381  1
  Te  Te135  1  0.60034453  0.23354665  0.11358415  1
  Te  Te136  1  0.56331680  0.22019989  0.40955782  1
  Te  Te137  1  0.57580636  0.26012957  0.76794178  1
  Te  Te138  1  0.56311440  0.57374277  0.09176297  1
  Te  Te139  1  0.57581575  0.59666151  0.37619542  1
  Te  Te140  1  0.57574381  0.59067948  0.75346588  1
  Te  Te141  1  0.59241906  0.93796154  0.13015672  1
  Te  Te142  1  0.57407349  0.93838096  0.39663401  1
  Te  Te143  1  0.57050868  0.90095180  0.71998332  1
  Te  Te144  1  0.91970569  0.25410518  0.09460067  1
  Te  Te145  1  0.93206152  0.28334349  0.39052570  1
  Te  Te146  1  0.90689002  0.26559325  0.76217857  1
  Te  Te147  1  0.88656436  0.59821844  0.09758549  1
  Te  Te148  1  0.91982651  0.57328010  0.41964832  1
  Te  Te149  1  0.90441659  0.60130957  0.75254718  1
  Te  Te150  1  0.91628168  0.93516070  0.07669063  1
  Te  Te151  1  0.87700762  0.88703488  0.38460992  1
  Te  Te152  1  0.90984049  0.91785645  0.75672781  1
  Te  Te153  1  0.25840902  0.07038371  0.25170215  1
  Te  Te154  1  0.30319589  0.10818401  0.59100526  1
  Te  Te155  1  0.24731145  0.08780943  0.91552758  1
  Te  Te156  1  0.25784687  0.43742670  0.24119528  1
  Te  Te157  1  0.25544079  0.40641269  0.55217496  1
  Te  Te158  1  0.23555367  0.40993882  0.92181082  1
  Te  Te159  1  0.24693364  0.70819760  0.22934173  1
  Te  Te160  1  0.25367259  0.75143258  0.57207888  1
  Te  Te161  1  0.26620161  0.73950147  0.91771361  1
  Te  Te162  1  0.56568270  0.07584097  0.19302389  1
  Te  Te163  1  0.56907929  0.06005754  0.57052479  1
  Te  Te164  1  0.57196160  0.09463355  0.93111222  1
  Te  Te165  1  0.56624107  0.41593971  0.26951551  1
  Te  Te166  1  0.58760803  0.41486544  0.58772751  1
  Te  Te167  1  0.56488027  0.41450721  0.93173901  1
  Te  Te168  1  0.62096700  0.76849608  0.22493936  1
  Te  Te169  1  0.57611863  0.75428820  0.57170309  1
  Te  Te170  1  0.59185514  0.76216721  0.91529323  1
  Te  Te171  1  0.89623953  0.09331219  0.26109023  1
  Te  Te172  1  0.92145871  0.08077477  0.56631276  1
  Te  Te173  1  0.91900994  0.08452684  0.91786008  1
  Te  Te174  1  0.92349621  0.41291689  0.25042071  1
  Te  Te175  1  0.92890113  0.40736157  0.56841751  1
  Te  Te176  1  0.89989131  0.42936799  0.92039072  1
  Te  Te177  1  0.88820043  0.74316311  0.23518726  1
  Te  Te178  1  0.92859473  0.74405265  0.58116791  1
  Te  Te179  1  0.91613757  0.75784430  0.91954524  1
