# generated using pymatgen
data_In2Te3
_symmetry_space_group_name_H-M   'P 1'
_cell_length_a   18.90435487
_cell_length_b   18.90565144
_cell_length_c   18.89684607
_cell_angle_alpha   89.95688591
_cell_angle_beta   90.07658038
_cell_angle_gamma   89.82844127
_symmetry_Int_Tables_number   1
_chemical_formula_structural   In2Te3
_chemical_formula_sum   'In72 Te108'
_cell_volume   6753.67836802
_cell_formula_units_Z   36
loop_
 _symmetry_equiv_pos_site_id
 _symmetry_equiv_pos_as_xyz
  1  'x, y, z'
loop_
 _atom_site_type_symbol
 _atom_site_label
 _atom_site_symmetry_multiplicity
 _atom_site_fract_x
 _atom_site_fract_y
 _atom_site_fract_z
 _atom_site_occupancy
  In  In0  1  0.17586784  0.67631532  0.81564929  1
  In  In1  1  0.36098457  0.01787583  0.67715282  1
  In  In2  1  0.67727276  0.14576403  0.13407041  1
  In  In3  1  0.64092374  0.49772742  0.49171098  1
  In  In4  1  0.67862106  0.66400836  0.67931939  1
  In  In5  1  -0.00090880  0.18109333  0.13695917  1
  In  In6  1  0.66970443  0.33457888  -0.00312721  1
  In  In7  1  0.85081473  0.33333491  0.52128370  1
  In  In8  1  0.84670388  0.18096150  0.68149487  1
  In  In9  1  0.50804417  0.16458683  -0.00866172  1
  In  In10  1  0.15829759  0.47266296  -0.01501279  1
  In  In11  1  0.16407079  0.48769762  0.68909120  1
  In  In12  1  0.00737962  0.34904213  0.34410893  1
  In  In13  1  0.83371709  0.17676858  0.31516210  1
  In  In14  1  0.32768922  0.86476967  0.51739242  1
  In  In15  1  0.34126567  0.31347061  0.30326321  1
  In  In16  1  0.15912967  0.32308915  0.48617923  1
  In  In17  1  0.85687552  0.63408800  0.12976363  1
  In  In18  1  0.30919421  0.03367704  -0.04173427  1
  In  In19  1  0.80543444  -0.01032659  0.52498336  1
  In  In20  1  0.51046307  0.34245273  0.82519534  1
  In  In21  1  0.51887928  -0.00227191  0.82134303  1
  In  In22  1  0.00455407  0.49399654  0.83129489  1
  In  In23  1  0.82355228  0.48655399  0.67829837  1
  In  In24  1  0.82550604  0.34992916  0.84198007  1
  In  In25  1  0.82045276  0.82384436  -0.02246903  1
  In  In26  1  -0.01455507  0.83017108  0.83871305  1
  In  In27  1  0.66653563  -0.00064112  0.31640159  1
  In  In28  1  0.64356825  0.49609872  0.14790058  1
  In  In29  1  0.18251598  0.16727044  0.34187078  1
  In  In30  1  -0.01386238  0.81483015  0.16536890  1
  In  In31  1  0.01514410  0.64075437  0.30783614  1
  In  In32  1  0.65920008  0.67088543  0.35156468  1
  In  In33  1  0.82793666  0.51337186  0.33192814  1
  In  In34  1  0.16334592  0.34462431  0.15487671  1
  In  In35  1  -0.02594321  0.01458160  0.67801273  1
  In  In36  1  0.17072470  -0.00662800  0.18356446  1
  In  In37  1  0.64417894  0.36560804  0.31620819  1
  In  In38  1  0.03342453  0.19068542  0.86102191  1
  In  In39  1  0.14422769  0.83900171  0.01852891  1
  In  In40  1  0.48803609  0.33675303  0.50633349  1
  In  In41  1  0.80957485  0.62825960  0.87201606  1
  In  In42  1  0.67782411  0.81311671  0.18167536  1
  In  In43  1  0.34610367  0.32409217  0.67284410  1
  In  In44  1  0.83235077  0.67688531  0.47481935  1
  In  In45  1  0.19117629  0.81117364  0.34198375  1
  In  In46  1  0.35695803  0.83763565  0.84248104  1
  In  In47  1  0.16661957  -0.00788806  0.50457195  1
  In  In48  1  0.30721874  0.64295942  0.64702768  1
  In  In49  1  0.33420822  0.35375561  0.02273558  1
  In  In50  1  0.53100024  0.81779454  0.00628614  1
  In  In51  1  0.50580003  0.65037819  0.84151870  1
  In  In52  1  0.65965168  0.17543735  0.82780124  1
  In  In53  1  0.39139016  0.08866778  0.34491766  1
  In  In54  1  0.14640929  0.63646105  0.50022219  1
  In  In55  1  0.82554341  -0.00047905  0.83530192  1
  In  In56  1  0.66239848  0.17724479  0.51726786  1
  In  In57  1  0.33642711  0.50134229  0.49077838  1
  In  In58  1  0.32088085  0.63606226  0.00370791  1
  In  In59  1  0.51918570  0.81142912  0.66859852  1
  In  In60  1  -0.00893777  -0.00621799  0.00200645  1
  In  In61  1  0.32944291  0.82990923  0.18383200  1
  In  In62  1  0.49825723  0.65930903  0.49845530  1
  In  In63  1  0.49950843  0.00589769  0.15021056  1
  In  In64  1  0.16198824  0.17595263  0.66225788  1
  In  In65  1  0.49672982  0.64100027  0.15462075  1
  In  In66  1  0.34200531  0.67364656  0.30062941  1
  In  In67  1  -0.01884636  0.83559962  0.51215424  1
  In  In68  1  0.85444603  0.32735715  0.16394209  1
  In  In69  1  -0.00499845  0.01823086  0.33098561  1
  In  In70  1  0.50959516  0.85029870  0.36239128  1
  In  In71  1  0.18323862  0.83837672  0.69792925  1
  Te  Te72  1  0.09328897  0.07478854  0.08099860  1
  Te  Te73  1  0.08169701  0.09379616  0.43009963  1
  Te  Te74  1  0.07971042  0.08589558  0.75689876  1
  Te  Te75  1  0.05561330  0.41507945  0.07867204  1
  Te  Te76  1  0.10332341  0.43825394  0.41107588  1
  Te  Te77  1  0.09869757  0.39138354  0.77978761  1
  Te  Te78  1  0.06620857  0.72949100  0.07567873  1
  Te  Te79  1  0.07140828  0.75260039  0.41598377  1
  Te  Te80  1  0.06722073  0.74845243  0.73732053  1
  Te  Te81  1  0.40111869  0.08968822  0.06841608  1
  Te  Te82  1  0.46333512  0.10842952  0.47139726  1
  Te  Te83  1  0.42808152  0.10480647  0.77559820  1
  Te  Te84  1  0.42297955  0.43014629  0.11294338  1
  Te  Te85  1  0.41573974  0.41494481  0.39644935  1
  Te  Te86  1  0.42202729  0.42821289  0.74269984  1
  Te  Te87  1  0.40938151  0.75219935  0.07869191  1
  Te  Te88  1  0.39983501  0.75485995  0.42834188  1
  Te  Te89  1  0.39355933  0.74727318  0.72621224  1
  Te  Te90  1  0.80081479  0.07992529  0.10115704  1
  Te  Te91  1  0.74927965  0.09755346  0.41372041  1
  Te  Te92  1  0.74483281  0.08553961  0.73812473  1
  Te  Te93  1  0.75832233  0.42049213  0.08593392  1
  Te  Te94  1  0.75801306  0.40639555  0.41400270  1
  Te  Te95  1  0.72362858  0.42176929  0.76400339  1
  Te  Te96  1  0.75064296  0.73013442  0.07606542  1
  Te  Te97  1  0.74815113  0.77493679  0.40183636  1
  Te  Te98  1  0.76026954  0.73395832  0.77926277  1
  Te  Te99  1  0.07600152  0.23866317  0.25522855  1
  Te  Te100  1  0.06956026  0.25183069  0.57666177  1
  Te  Te101  1  0.13443295  0.23821092  0.95984733  1
  Te  Te102  1  0.11404183  0.59425718  0.21146311  1
  Te  Te103  1  0.07497903  0.57967987  0.61325819  1
  Te  Te104  1  0.09335987  0.59220120  0.90818848  1
  Te  Te105  1  0.07526453  0.90321823  0.25885164  1
  Te  Te106  1  0.08063259  0.91946952  0.60591714  1
  Te  Te107  1  0.08626304  0.92252190  0.90521027  1
  Te  Te108  1  0.43108873  0.20298422  0.26090823  1
  Te  Te109  1  0.42017920  0.22646126  0.58379304  1
  Te  Te110  1  0.42207978  0.26858751  0.92546311  1
  Te  Te111  1  0.38588103  0.56028418  0.21332672  1
  Te  Te112  1  0.42784221  0.56583161  0.59420020  1
  Te  Te113  1  0.42682525  0.56475615  0.93252149  1
  Te  Te114  1  0.42371276  0.92616953  0.25578895  1
  Te  Te115  1  0.44395966  0.92411564  0.59064544  1
  Te  Te116  1  0.43694212  0.92617252  0.93530749  1
  Te  Te117  1  0.73351788  0.26360447  0.23960013  1
  Te  Te118  1  0.74502902  0.26847086  0.60820847  1
  Te  Te119  1  0.75971148  0.23702895  0.92362710  1
  Te  Te120  1  0.72849143  0.58718425  0.24394929  1
  Te  Te121  1  0.74949742  0.57523081  0.56300298  1
  Te  Te122  1  0.69691841  0.55393919  0.93416485  1
  Te  Te123  1  0.76319262  0.90430190  0.25808119  1
  Te  Te124  1  0.71114487  0.92236214  0.61151302  1
  Te  Te125  1  0.72979037  0.92071066  0.91430310  1
  Te  Te126  1  0.24859146  0.24590042  0.08412698  1
  Te  Te127  1  0.27593549  0.24606249  0.42937126  1
  Te  Te128  1  0.25190354  0.24639467  0.75893354  1
  Te  Te129  1  0.22521865  0.56121367  0.08900840  1
  Te  Te130  1  0.25484641  0.59581960  0.40381000  1
  Te  Te131  1  0.26940788  0.56589541  0.77105307  1
  Te  Te132  1  0.25894080  0.92366282  0.07820605  1
  Te  Te133  1  0.25996117  0.93487344  0.39908717  1
  Te  Te134  1  0.26484604  0.93918358  0.77255535  1
  Te  Te135  1  0.57912749  0.25572761  0.08938717  1
  Te  Te136  1  0.58745500  0.26449625  0.41218780  1
  Te  Te137  1  0.55800609  0.23107476  0.73580088  1
  Te  Te138  1  0.59454498  0.59891789  0.04871784  1
  Te  Te139  1  0.55272450  0.56850272  0.38892143  1
  Te  Te140  1  0.57800410  0.57516376  0.73767586  1
  Te  Te141  1  0.60842281  0.91764452  0.09138062  1
  Te  Te142  1  0.60022083  0.93844662  0.43417433  1
  Te  Te143  1  0.60912488  0.91595492  0.73050235  1
  Te  Te144  1  0.92161102  0.26730395  0.04734399  1
  Te  Te145  1  0.92238149  0.24653684  0.41695809  1
  Te  Te146  1  0.93250180  0.26686457  0.77047480  1
  Te  Te147  1  0.93660641  0.53474662  0.05619598  1
  Te  Te148  1  0.93349942  0.57538069  0.42103087  1
  Te  Te149  1  0.90525379  0.58537378  0.75903154  1
  Te  Te150  1  0.89766696  0.90591500  0.08171807  1
  Te  Te151  1  0.90730869  0.93183335  0.42027541  1
  Te  Te152  1  0.89449941  0.90215204  0.73948223  1
  Te  Te153  1  0.26887948  0.08789372  0.24582899  1
  Te  Te154  1  0.25741607  0.08328867  0.58318222  1
  Te  Te155  1  0.22955621  0.14109647  0.88936449  1
  Te  Te156  1  0.22900425  0.40409488  0.27265748  1
  Te  Te157  1  0.25011337  0.41531655  0.58113518  1
  Te  Te158  1  0.25687781  0.39928776  0.90455536  1
  Te  Te159  1  0.21844625  0.72854089  0.21604536  1
  Te  Te160  1  0.22944776  0.75643027  0.57177792  1
  Te  Te161  1  0.25200552  0.76030779  0.92263822  1
  Te  Te162  1  0.57962488  0.09975460  0.24295986  1
  Te  Te163  1  0.55762851  0.10967223  0.59604561  1
  Te  Te164  1  0.60679450  0.07094518  0.92636154  1
  Te  Te165  1  0.53910628  0.41499289  0.22001770  1
  Te  Te166  1  0.58448054  0.40843252  0.59113741  1
  Te  Te167  1  0.59202877  0.43382191  0.91617068  1
  Te  Te168  1  0.55482203  0.75035225  0.25333859  1
  Te  Te169  1  0.60464785  0.74269978  0.56352408  1
  Te  Te170  1  0.59001995  0.76336073  0.88361567  1
  Te  Te171  1  0.90351998  0.07743722  0.22040470  1
  Te  Te172  1  0.90623946  0.09480283  0.57000265  1
  Te  Te173  1  0.92450211  0.08987218  0.90630741  1
  Te  Te174  1  0.92615290  0.43363029  0.24697808  1
  Te  Te175  1  0.93231732  0.42445398  0.59997257  1
  Te  Te176  1  0.90102516  0.44568048  0.93135000  1
  Te  Te177  1  0.90009437  0.72130327  0.24857031  1
  Te  Te178  1  0.89106906  0.75028190  0.58753231  1
  Te  Te179  1  0.92259644  0.72520528  0.92591898  1
