# generated using pymatgen
data_In2Te3
_symmetry_space_group_name_H-M   'P 1'
_cell_length_a   18.98286521
_cell_length_b   18.96222867
_cell_length_c   18.97467683
_cell_angle_alpha   90.02963719
_cell_angle_beta   90.06860702
_cell_angle_gamma   90.13385701
_symmetry_Int_Tables_number   1
_chemical_formula_structural   In2Te3
_chemical_formula_sum   'In72 Te108'
_cell_volume   6830.05146550
_cell_formula_units_Z   36
loop_
 _symmetry_equiv_pos_site_id
 _symmetry_equiv_pos_as_xyz
  1  'x, y, z'
loop_
 _atom_site_type_symbol
 _atom_site_label
 _atom_site_symmetry_multiplicity
 _atom_site_fract_x
 _atom_site_fract_y
 _atom_site_fract_z
 _atom_site_occupancy
  In  In0  1  0.02493751  0.33336870  0.31238803  1
  In  In1  1  0.85832086  0.52807101  0.66538129  1
  In  In2  1  0.68688275  0.48165636  0.52271786  1
  In  In3  1  0.37127949  0.51565422  0.84132179  1
  In  In4  1  0.34060761  0.82325758  0.15336757  1
  In  In5  1  0.14631820  0.31905465  0.83021342  1
  In  In6  1  0.79038799  0.28173745  0.47318381  1
  In  In7  1  0.15138072  -0.00275257  0.49318301  1
  In  In8  1  0.79895277  0.32599768  0.86145843  1
  In  In9  1  0.01563782  0.49328231  0.17157866  1
  In  In10  1  0.66541830  0.09170761  0.88330748  1
  In  In11  1  0.65189255  0.68090906  0.34311392  1
  In  In12  1  -0.02418105  0.31199158  0.65534571  1
  In  In13  1  -0.02138930  0.85536734  0.51304645  1
  In  In14  1  0.63603405  0.12941885  0.48075490  1
  In  In15  1  0.66192188  0.83908971  0.17661161  1
  In  In16  1  0.02018347  0.70101838  -0.02400467  1
  In  In17  1  0.18138425  0.51731198  0.68856039  1
  In  In18  1  0.00543194  0.68836062  0.32306737  1
  In  In19  1  0.34786171  0.30896179  0.66906304  1
  In  In20  1  0.00861786  0.83867500  0.14887158  1
  In  In21  1  0.51678369  0.29486992  0.84732259  1
  In  In22  1  0.04039730  0.69398077  0.70813973  1
  In  In23  1  0.00405842  0.49788034  0.84760179  1
  In  In24  1  0.64785347  0.48801556  0.86938153  1
  In  In25  1  -0.00975815  0.16488691  0.49921785  1
  In  In26  1  0.32934518  0.82025761  0.46689565  1
  In  In27  1  0.17010141  0.33285558  0.16190311  1
  In  In28  1  0.34827974  0.33272542  0.31514848  1
  In  In29  1  0.19650945  0.35795906  0.48310258  1
  In  In30  1  0.46753323  0.17334957  0.30815084  1
  In  In31  1  0.48673480  0.50040434  -0.02512503  1
  In  In32  1  0.85120465  0.14852710  0.22158600  1
  In  In33  1  -0.01119480  -0.01298649  0.69621109  1
  In  In34  1  0.49144277  0.66509289  0.84195402  1
  In  In35  1  0.32325309  0.71022236  0.67704495  1
  In  In36  1  0.84375642  0.13617409  0.02542144  1
  In  In37  1  0.50914252  0.67341563  0.53131752  1
  In  In38  1  0.18744193  0.50863689  0.00505541  1
  In  In39  1  0.15403922  0.84133802  0.31470883  1
  In  In40  1  0.29227115  0.00545836  0.23038713  1
  In  In41  1  0.16131318  0.15149888  -0.01648321  1
  In  In42  1  0.66686273  0.31782008  0.73229354  1
  In  In43  1  0.48737458  -0.01254019  0.16068985  1
  In  In44  1  0.82807142  0.70338382  0.50947839  1
  In  In45  1  0.69372512  0.78794549  0.65891860  1
  In  In46  1  0.66329821  0.65162551  0.00889579  1
  In  In47  1  0.36333510  0.85842457  0.83391845  1
  In  In48  1  0.87040296  0.50572909  0.31981096  1
  In  In49  1  0.50904274  -0.01545523  0.49057511  1
  In  In50  1  0.33908475  0.17694984  0.51071451  1
  In  In51  1  0.83542730  0.50385558  0.02580218  1
  In  In52  1  0.46299913  0.31201257  0.49971514  1
  In  In53  1  0.68204848  0.48796103  0.16925635  1
  In  In54  1  0.13849421  0.14751974  0.65280799  1
  In  In55  1  0.32046197  0.53296894  0.18363278  1
  In  In56  1  0.84236652  0.68720720  0.15991986  1
  In  In57  1  0.01677227  -0.01861267  -0.00987463  1
  In  In58  1  0.83864164  -0.03337554  0.85123206  1
  In  In59  1  0.17947013  -0.01732295  0.81260708  1
  In  In60  1  0.33181221  0.34076818  -0.00899891  1
  In  In61  1  0.46765199  0.14317306  0.01779233  1
  In  In62  1  0.51202239  0.50372192  0.66068781  1
  In  In63  1  0.66415830  0.00771377  0.31916463  1
  In  In64  1  0.34530804  0.11568034  0.80306151  1
  In  In65  1  0.68395361  0.31585263  0.31757206  1
  In  In66  1  0.32157941  0.62849454  0.46336103  1
  In  In67  1  0.82669350  0.17093774  0.68975213  1
  In  In68  1  0.49331436  0.50555851  0.33201870  1
  In  In69  1  0.63774035  0.87437646  0.83720683  1
  In  In70  1  0.00550716  0.50256621  0.51950829  1
  In  In71  1  0.76939775  -0.07888507  0.47316073  1
  Te  Te72  1  0.08864818  0.07024278  0.08810709  1
  Te  Te73  1  0.06601770  0.08024945  0.40884370  1
  Te  Te74  1  0.07395212  0.08740878  0.77344406  1
  Te  Te75  1  0.08527640  0.41315697  0.06391842  1
  Te  Te76  1  0.08731891  0.43478559  0.41214861  1
  Te  Te77  1  0.06687657  0.41798337  0.73051590  1
  Te  Te78  1  0.10388265  0.74251485  0.08998264  1
  Te  Te79  1  0.07535973  0.77261239  0.42592578  1
  Te  Te80  1  0.12580328  0.77956891  0.79377265  1
  Te  Te81  1  0.37201007  0.06820037  0.10636807  1
  Te  Te82  1  0.41549462  0.08579800  0.41738382  1
  Te  Te83  1  0.42109791  0.00873212  0.73407921  1
  Te  Te84  1  0.39347866  0.44230942  0.08126504  1
  Te  Te85  1  0.40030472  0.42838833  0.42414711  1
  Te  Te86  1  0.44093225  0.40317079  0.75758136  1
  Te  Te87  1  0.41782992  0.78435066  0.03220463  1
  Te  Te88  1  0.42941554  0.72004626  0.41075334  1
  Te  Te89  1  0.44818283  0.76608520  0.73896865  1
  Te  Te90  1  0.76678481  0.05861984  0.12865080  1
  Te  Te91  1  0.75756536  0.08166632  0.41274865  1
  Te  Te92  1  0.75723753  0.06074297  0.76163822  1
  Te  Te93  1  0.75537376  0.39579651  0.08310112  1
  Te  Te94  1  0.75900135  0.42657852  0.39969288  1
  Te  Te95  1  0.76747380  0.43007634  0.74742636  1
  Te  Te96  1  0.74807771  0.76046556  0.07061231  1
  Te  Te97  1  0.74651029  0.77854946  0.40846469  1
  Te  Te98  1  0.73603425  0.77000248  0.79772250  1
  Te  Te99  1  0.11014882  0.22675420  0.25176380  1
  Te  Te100  1  0.09622780  0.26836423  0.56386162  1
  Te  Te101  1  0.06901844  0.25508244  0.93461812  1
  Te  Te102  1  0.09092589  0.58275752  0.26378755  1
  Te  Te103  1  0.09324180  0.59839204  0.59593379  1
  Te  Te104  1  0.10453085  0.59302651  0.90870426  1
  Te  Te105  1  0.05686589  0.93772811  0.25283089  1
  Te  Te106  1  0.08584613  0.91608372  0.60347397  1
  Te  Te107  1  0.11974011  0.89257344  0.92060359  1
  Te  Te108  1  0.42573824  0.27163716  0.20324021  1
  Te  Te109  1  0.44833322  0.20967974  0.61387732  1
  Te  Te110  1  0.38642783  0.23398210  0.89475451  1
  Te  Te111  1  0.43744015  0.60484451  0.23961604  1
  Te  Te112  1  0.40117094  0.58514559  0.59894882  1
  Te  Te113  1  0.39376669  0.62169538  0.95137680  1
  Te  Te114  1  0.41178817  0.90507913  0.26083563  1
  Te  Te115  1  0.41143376  0.89801386  0.56043449  1
  Te  Te116  1  0.44278841  0.90962417  0.95330162  1
  Te  Te117  1  0.72321485  0.22512025  0.21126429  1
  Te  Te118  1  0.72652416  0.24755017  0.60521848  1
  Te  Te119  1  0.73798530  0.21539856  0.94342003  1
  Te  Te120  1  0.76284295  0.59468343  0.25352968  1
  Te  Te121  1  0.74573956  0.60286957  0.59383309  1
  Te  Te122  1  0.75988339  0.57845778  0.91723761  1
  Te  Te123  1  0.76252624  0.93520073  0.23172469  1
  Te  Te124  1  0.77847326  0.90076019  0.61730042  1
  Te  Te125  1  0.71719672  0.95564525  0.93939589  1
  Te  Te126  1  0.25112089  0.24290380  0.07192023  1
  Te  Te127  1  0.25186768  0.24214639  0.40320690  1
  Te  Te128  1  0.23780678  0.23197553  0.74223807  1
  Te  Te129  1  0.22816792  0.61319799  0.09942552  1
  Te  Te130  1  0.22557506  0.62895429  0.35282688  1
  Te  Te131  1  0.26756528  0.60745479  0.77273446  1
  Te  Te132  1  0.24413818  0.92897926  0.11503333  1
  Te  Te133  1  0.24750030  0.93003768  0.39778607  1
  Te  Te134  1  0.28024995  0.91955652  0.72271740  1
  Te  Te135  1  0.52401321  0.26389572  0.07376968  1
  Te  Te136  1  0.57397788  0.24893986  0.40953681  1
  Te  Te137  1  0.59488357  0.19257995  0.77420889  1
  Te  Te138  1  0.57591499  0.55935157  0.08734057  1
  Te  Te139  1  0.59299281  0.57428381  0.43694352  1
  Te  Te140  1  0.59360065  0.58010553  0.76146612  1
  Te  Te141  1  0.56708745  0.89619333  0.07574323  1
  Te  Te142  1  0.57759245  0.90935215  0.38450982  1
  Te  Te143  1  0.56793829  0.95658864  0.73543982  1
  Te  Te144  1  0.93727110  0.21105970  0.11477429  1
  Te  Te145  1  0.92242552  0.26152411  0.40393698  1
  Te  Te146  1  0.91285484  0.25684079  0.77925822  1
  Te  Te147  1  0.94179657  0.59961302  0.08441409  1
  Te  Te148  1  0.91585998  0.59864500  0.43274719  1
  Te  Te149  1  0.92940455  0.60778749  0.77273710  1
  Te  Te150  1  0.90884572  0.89500204  0.05206053  1
  Te  Te151  1  0.90510211  0.94281904  0.42232349  1
  Te  Te152  1  0.94298005  0.87943868  0.78918440  1
  Te  Te153  1  0.23752095  0.13490120  0.27109382  1
  Te  Te154  1  0.24962898  0.07626251  0.58226040  1
  Te  Te155  1  0.26420257  0.05802883  0.91469219  1
  Te  Te156  1  0.24263936  0.42450668  0.25816563  1
  Te  Te157  1  0.26396727  0.41904032  0.60455834  1
  Te  Te158  1  0.24911056  0.41959436  0.88460388  1
  Te  Te159  1  0.25565820  0.74735882  0.25809558  1
  Te  Te160  1  0.24081729  0.73635215  0.55670810  1
  Te  Te161  1  0.24340080  0.79072308  0.89504742  1
  Te  Te162  1  0.57028835  0.09247020  0.23363074  1
  Te  Te163  1  0.60737628  0.03734305  0.59217094  1
  Te  Te164  1  0.52351983  0.04804836  0.91849063  1
  Te  Te165  1  0.58154627  0.41055157  0.25383067  1
  Te  Te166  1  0.57278127  0.39594976  0.57466571  1
  Te  Te167  1  0.58402582  0.37933078  0.95390794  1
  Te  Te168  1  0.57809541  0.72695854  0.22639671  1
  Te  Te169  1  0.58486622  0.79442404  0.56175225  1
  Te  Te170  1  0.59121532  0.74829114  0.91843434  1
  Te  Te171  1  0.96954174  0.05628268  0.19448550  1
  Te  Te172  1  0.91510686  0.08441760  0.60195425  1
  Te  Te173  1  0.92461909  0.07528326  0.91396210  1
  Te  Te174  1  0.91283285  0.39556908  0.22685207  1
  Te  Te175  1  0.89668092  0.41071428  0.57161728  1
  Te  Te176  1  0.91013835  0.41230377  0.92775417  1
  Te  Te177  1  0.90856817  0.78067191  0.25755355  1
  Te  Te178  1  0.93101702  0.74798289  0.61002023  1
  Te  Te179  1  0.91779821  0.79706976  0.93183531  1
