# generated using pymatgen
data_In2Te3
_symmetry_space_group_name_H-M   'P 1'
_cell_length_a   18.78848191
_cell_length_b   18.78051708
_cell_length_c   18.77566451
_cell_angle_alpha   90.03238666
_cell_angle_beta   89.87542329
_cell_angle_gamma   90.01292172
_symmetry_Int_Tables_number   1
_chemical_formula_structural   In2Te3
_chemical_formula_sum   'In72 Te108'
_cell_volume   6625.11538092
_cell_formula_units_Z   36
loop_
 _symmetry_equiv_pos_site_id
 _symmetry_equiv_pos_as_xyz
  1  'x, y, z'
loop_
 _atom_site_type_symbol
 _atom_site_label
 _atom_site_symmetry_multiplicity
 _atom_site_fract_x
 _atom_site_fract_y
 _atom_site_fract_z
 _atom_site_occupancy
  In  In0  1  0.82822231  0.83172919  0.32110815  1
  In  In1  1  0.16804416  0.83946316  0.01611462  1
  In  In2  1  0.15917128  0.80789372  0.67429690  1
  In  In3  1  0.16326516  0.49926718  0.01383828  1
  In  In4  1  0.32165106  0.19174106  0.84159091  1
  In  In5  1  0.33493107  0.00667464  0.66335525  1
  In  In6  1  0.79657012  0.19590382  0.29806835  1
  In  In7  1  0.47503065  0.18442211  0.64661615  1
  In  In8  1  0.82285895  0.51325955  0.67610804  1
  In  In9  1  0.67336811  0.49540851  0.14465143  1
  In  In10  1  0.82831990  0.18255647  0.00814387  1
  In  In11  1  0.15667532  0.15456009  0.32904761  1
  In  In12  1  -0.00160445  0.68971245  0.33228321  1
  In  In13  1  0.51220340  0.83090105  -0.01455922  1
  In  In14  1  -0.01177483  0.67426527  -0.00698643  1
  In  In15  1  0.15169615  0.34342967  0.81815493  1
  In  In16  1  0.68222434  0.00682007  -0.00123143  1
  In  In17  1  -0.01093206  0.16123896  0.15195547  1
  In  In18  1  0.34490530  0.33982752  0.00487704  1
  In  In19  1  -0.00840621  0.33812545  0.32796191  1
  In  In20  1  -0.01230689  -0.00824486  0.67576411  1
  In  In21  1  0.84247152  0.47960272  -0.02540802  1
  In  In22  1  0.84835496  0.19278851  0.68244616  1
  In  In23  1  0.18815928  0.34244192  0.52281961  1
  In  In24  1  0.68197906  0.81865607  0.84164707  1
  In  In25  1  0.00190263  0.48363890  0.17078611  1
  In  In26  1  0.50305169  0.50275878  0.65451820  1
  In  In27  1  0.02088771  0.81474588  0.50447756  1
  In  In28  1  0.00425173  0.63928887  0.68189458  1
  In  In29  1  -0.01907661  0.17517099  0.84830837  1
  In  In30  1  0.65893851  0.64625666  0.33105283  1
  In  In31  1  0.53854839  0.20562962  0.32417373  1
  In  In32  1  0.68862849  0.80073215  0.14127318  1
  In  In33  1  0.63394100  0.80174937  0.53101966  1
  In  In34  1  0.17074695  0.65681358  0.82671575  1
  In  In35  1  0.64188431  0.00620030  0.65226298  1
  In  In36  1  0.82995778  0.65328424  0.51295515  1
  In  In37  1  0.16256605  0.15145795  0.01356591  1
  In  In38  1  0.32241564  -0.00685552  0.33575029  1
  In  In39  1  0.31639683  0.83296638  0.17950901  1
  In  In40  1  0.33292668  0.15964992  0.17550752  1
  In  In41  1  0.82264037  -0.00042749  0.85700238  1
  In  In42  1  0.00099912  0.51408294  0.50659322  1
  In  In43  1  0.83160337  0.01688032  0.47104195  1
  In  In44  1  0.34865709  0.64261766  -0.00222055  1
  In  In45  1  0.79710335  0.48804340  0.32273446  1
  In  In46  1  0.34623427  0.83420214  0.48492899  1
  In  In47  1  0.17664945  0.16545069  0.65031441  1
  In  In48  1  0.66749943  0.34559804  0.66210354  1
  In  In49  1  0.68087736  0.16461375  0.84853676  1
  In  In50  1  0.51853014  0.65962494  0.17217147  1
  In  In51  1  0.48045197  -0.00294249  0.49378005  1
  In  In52  1  -0.01008455  0.84207767  0.14632274  1
  In  In53  1  0.35649265  0.82120157  0.81667846  1
  In  In54  1  0.14366795  -0.01047021  0.85474073  1
  In  In55  1  0.34580275  0.33932876  0.32083553  1
  In  In56  1  0.33292501  0.67637104  0.34820374  1
  In  In57  1  0.51595389  0.34899141  0.83345346  1
  In  In58  1  0.82011506  0.35113952  0.49789061  1
  In  In59  1  0.34561638  0.52594673  0.82359335  1
  In  In60  1  0.34338524  0.65200348  0.68018727  1
  In  In61  1  0.52206345  0.00627240  0.85632689  1
  In  In62  1  0.47714923  0.00264626  0.17158920  1
  In  In63  1  0.02511902  0.18883175  0.49431574  1
  In  In64  1  0.33898053  0.48428024  0.15448763  1
  In  In65  1  0.65711573  0.50684160  0.84791404  1
  In  In66  1  0.66759557  -0.01099142  0.31995699  1
  In  In67  1  0.35478179  0.17156750  0.50599065  1
  In  In68  1  0.00767291  -0.00165915  0.29681348  1
  In  In69  1  0.18953918  0.51079993  0.33708640  1
  In  In70  1  0.80931481  0.84254329  0.68231656  1
  In  In71  1  0.51053826  0.49198184  0.35267035  1
  Te  Te72  1  0.08007043  0.05945575  0.09371393  1
  Te  Te73  1  0.07501393  0.06557473  0.42174024  1
  Te  Te74  1  0.08366881  0.09460538  0.75225451  1
  Te  Te75  1  0.08057065  0.39624989  0.08009838  1
  Te  Te76  1  0.08970815  0.41214865  0.41855648  1
  Te  Te77  1  0.04990692  0.43962273  0.77104460  1
  Te  Te78  1  0.08997700  0.73242941  0.09043327  1
  Te  Te79  1  0.10907456  0.72887698  0.42280257  1
  Te  Te80  1  0.06329077  0.75264274  0.77687471  1
  Te  Te81  1  0.41482458  0.09091838  0.07238775  1
  Te  Te82  1  0.42758421  0.10233151  0.38598018  1
  Te  Te83  1  0.42455197  0.08537860  0.75940740  1
  Te  Te84  1  0.44276503  0.43689790  0.05977641  1
  Te  Te85  1  0.40128830  0.42204067  0.42889273  1
  Te  Te86  1  0.41349638  0.41368779  0.74393217  1
  Te  Te87  1  0.41827738  0.75088129  0.08646288  1
  Te  Te88  1  0.44366518  0.74701259  0.41691736  1
  Te  Te89  1  0.45259809  0.72706440  0.75303286  1
  Te  Te90  1  0.74278108  0.09878801  0.09669391  1
  Te  Te91  1  0.72793622  0.10505396  0.40328843  1
  Te  Te92  1  0.75644756  0.07363392  0.73928969  1
  Te  Te93  1  0.76048291  0.39659539  0.07182597  1
  Te  Te94  1  0.71131993  0.39083664  0.40060157  1
  Te  Te95  1  0.75043989  0.41287418  0.76820771  1
  Te  Te96  1  0.76446922  0.71618250  0.04106363  1
  Te  Te97  1  0.74820236  0.75044878  0.42378456  1
  Te  Te98  1  0.75297642  0.72346817  0.74923575  1
  Te  Te99  1  0.08065758  0.25107444  0.24057155  1
  Te  Te100  1  0.07419966  0.27261938  0.60933967  1
  Te  Te101  1  0.08807575  0.25224867  0.92489195  1
  Te  Te102  1  0.08152889  0.58213033  0.25626336  1
  Te  Te103  1  0.09743529  0.60357269  0.57280811  1
  Te  Te104  1  0.07620997  0.57341702  0.91257145  1
  Te  Te105  1  0.08826472  0.88592022  0.24964601  1
  Te  Te106  1  0.09279008  0.91893122  0.59152031  1
  Te  Te107  1  0.05920144  0.89828210  0.93319502  1
  Te  Te108  1  0.43519058  0.26686548  0.22066947  1
  Te  Te109  1  0.41371036  0.29364701  0.56656295  1
  Te  Te110  1  0.43586831  0.24846926  0.92223184  1
  Te  Te111  1  0.41616805  0.57626507  0.25212136  1
  Te  Te112  1  0.40526043  0.57562524  0.56767911  1
  Te  Te113  1  0.45091878  0.58199677  0.91037261  1
  Te  Te114  1  0.42342511  0.89938102  0.26911901  1
  Te  Te115  1  0.42897012  0.90422049  0.60342825  1
  Te  Te116  1  0.40932542  0.92214312  0.91876251  1
  Te  Te117  1  0.71220669  0.28446390  0.20553362  1
  Te  Te118  1  0.74851648  0.24233454  0.58031659  1
  Te  Te119  1  0.74493152  0.27328208  0.92355035  1
  Te  Te120  1  0.75864393  0.59830261  0.22625304  1
  Te  Te121  1  0.73300632  0.55458350  0.56359423  1
  Te  Te122  1  0.75126990  0.59254962  0.93064410  1
  Te  Te123  1  0.75813963  0.91760636  0.21761201  1
  Te  Te124  1  0.74911158  0.92471055  0.56779519  1
  Te  Te125  1  0.78107012  0.89106034  0.96378620  1
  Te  Te126  1  0.24950855  0.25458270  0.08802095  1
  Te  Te127  1  0.24958493  0.24536939  0.40963104  1
  Te  Te128  1  0.25893757  0.26811253  0.72866368  1
  Te  Te129  1  0.24602255  0.59466303  0.10023519  1
  Te  Te130  1  0.28193014  0.56672245  0.43923697  1
  Te  Te131  1  0.22327136  0.55226036  0.72584782  1
  Te  Te132  1  0.26453928  0.92969927  0.08041196  1
  Te  Te133  1  0.23697109  0.91172302  0.42349647  1
  Te  Te134  1  0.24555558  0.91839658  0.75396085  1
  Te  Te135  1  0.58037854  0.29222230  0.13743749  1
  Te  Te136  1  0.58801557  0.29643411  0.42949493  1
  Te  Te137  1  0.58785327  0.23388781  0.74618955  1
  Te  Te138  1  0.59601713  0.59546374  0.06498929  1
  Te  Te139  1  0.58468011  0.58579018  0.44267030  1
  Te  Te140  1  0.60541487  0.58570622  0.72806338  1
  Te  Te141  1  0.58740435  0.91477342  0.08873032  1
  Te  Te142  1  0.58961858  0.91236571  0.42744623  1
  Te  Te143  1  0.58836653  0.90993369  0.75773726  1
  Te  Te144  1  0.92624177  0.27168551  0.07649845  1
  Te  Te145  1  0.90626903  0.24171633  0.41338753  1
  Te  Te146  1  0.91389840  0.28835260  0.77610556  1
  Te  Te147  1  0.91646134  0.56826222  0.07820327  1
  Te  Te148  1  0.90914503  0.57292439  0.39847360  1
  Te  Te149  1  0.89325286  0.60318498  0.77193914  1
  Te  Te150  1  0.90740949  0.92196391  0.05430365  1
  Te  Te151  1  0.92482030  0.90618796  0.41573593  1
  Te  Te152  1  0.91407814  0.90465907  0.77547509  1
  Te  Te153  1  0.23100774  0.06147604  0.23415797  1
  Te  Te154  1  0.24902081  0.07090198  0.55485659  1
  Te  Te155  1  0.25530795  0.07690191  0.91542452  1
  Te  Te156  1  0.23654112  0.40558095  0.23687292  1
  Te  Te157  1  0.23971157  0.44622588  0.60958210  1
  Te  Te158  1  0.25645945  0.42414886  0.90846503  1
  Te  Te159  1  0.23194599  0.74793741  0.26598723  1
  Te  Te160  1  0.26618990  0.74757387  0.58808808  1
  Te  Te161  1  0.26066624  0.74530335  0.91251682  1
  Te  Te162  1  0.58722853  0.08884259  0.23597081  1
  Te  Te163  1  0.57265433  0.10305884  0.55840792  1
  Te  Te164  1  0.58037578  0.11120378  0.95144524  1
  Te  Te165  1  0.57491651  0.41929430  0.23511315  1
  Te  Te166  1  0.57057477  0.40022594  0.56283561  1
  Te  Te167  1  0.59354045  0.40979433  0.94286954  1
  Te  Te168  1  0.59370743  0.76275580  0.25650012  1
  Te  Te169  1  0.57461881  0.71937140  0.63702069  1
  Te  Te170  1  0.59392770  0.72769370  0.91976237  1
  Te  Te171  1  0.89457116  0.08440260  0.24783294  1
  Te  Te172  1  0.91949448  0.09083229  0.58077719  1
  Te  Te173  1  0.92493570  0.07232518  0.94385826  1
  Te  Te174  1  0.88798157  0.40043087  0.23675022  1
  Te  Te175  1  0.91695884  0.42040973  0.59217988  1
  Te  Te176  1  0.94842380  0.41695503  0.88457513  1
  Te  Te177  1  0.90313033  0.74046156  0.22433615  1
  Te  Te178  1  0.91336061  0.75411998  0.59449876  1
  Te  Te179  1  0.87624783  0.75661052  0.93966063  1
