# generated using pymatgen
data_In2Te3
_symmetry_space_group_name_H-M   'P 1'
_cell_length_a   18.97436977
_cell_length_b   18.96683836
_cell_length_c   18.96928743
_cell_angle_alpha   89.90285543
_cell_angle_beta   89.97860163
_cell_angle_gamma   90.05257090
_symmetry_Int_Tables_number   1
_chemical_formula_structural   In2Te3
_chemical_formula_sum   'In72 Te108'
_cell_volume   6826.72616249
_cell_formula_units_Z   36
loop_
 _symmetry_equiv_pos_site_id
 _symmetry_equiv_pos_as_xyz
  1  'x, y, z'
loop_
 _atom_site_type_symbol
 _atom_site_label
 _atom_site_symmetry_multiplicity
 _atom_site_fract_x
 _atom_site_fract_y
 _atom_site_fract_z
 _atom_site_occupancy
  In  In0  1  0.33099314  0.49997202  0.51624892  1
  In  In1  1  0.18997116  0.69420325  0.82965507  1
  In  In2  1  0.50898806  0.81605579  0.00258642  1
  In  In3  1  -0.01151654  0.84534761  0.84242874  1
  In  In4  1  0.16660142  0.14673840  0.01888316  1
  In  In5  1  0.65481398  0.18544108  0.83658965  1
  In  In6  1  0.02434588  0.01685734  0.36237839  1
  In  In7  1  0.81988654  0.14923126  0.64543367  1
  In  In8  1  0.49837695  0.31372332  0.47152666  1
  In  In9  1  0.52603512  0.70342693  0.51554133  1
  In  In10  1  0.83007004  0.47421534  0.02588808  1
  In  In11  1  0.66650444  0.64974566  0.03398426  1
  In  In12  1  0.33755559  0.52299542  0.81854398  1
  In  In13  1  -0.01620206  0.32910391  0.62612268  1
  In  In14  1  0.02448316  0.18988540  0.82101982  1
  In  In15  1  0.85241284  -0.00761650  0.18760626  1
  In  In16  1  0.67133953  0.85545503  0.80999014  1
  In  In17  1  0.70036680  0.00184983  0.00992648  1
  In  In18  1  0.83224949  0.81752705  0.32487532  1
  In  In19  1  0.00180627  0.51062495  0.81295517  1
  In  In20  1  0.01786441  -0.00163613  0.01857774  1
  In  In21  1  0.85155004  0.00011550  0.82027355  1
  In  In22  1  0.16749308  0.84998753  0.64999368  1
  In  In23  1  0.48907184  0.33003369  0.18482001  1
  In  In24  1  0.35462581  0.83738175  0.81537726  1
  In  In25  1  0.49951003  0.50864572  0.32396434  1
  In  In26  1  0.82314253  0.33415233  0.83629793  1
  In  In27  1  0.17557782  0.66647674  0.52359073  1
  In  In28  1  0.66869375  0.17948297  0.48234053  1
  In  In29  1  0.65570864  -0.00189591  0.63631966  1
  In  In30  1  0.49630112  0.18024933  0.01790593  1
  In  In31  1  0.35119063  -0.01895221  0.64825955  1
  In  In32  1  -0.00013656  0.65048925  0.66176603  1
  In  In33  1  0.17897832  0.83909784  0.00010792  1
  In  In34  1  0.16242093  0.18744290  0.64873214  1
  In  In35  1  0.67619633  0.35929360  0.02489495  1
  In  In36  1  -0.02833541  0.20310154  0.21324395  1
  In  In37  1  0.15680502  0.48755745  0.35196290  1
  In  In38  1  -0.00013742  0.03200971  0.63396506  1
  In  In39  1  0.18947846  0.88205830  0.33357701  1
  In  In40  1  0.32978748  0.34518911  0.66466627  1
  In  In41  1  0.81221991  0.68340045  0.84021916  1
  In  In42  1  0.50181924  0.67926116  0.82298041  1
  In  In43  1  -0.01152340  0.67069726  0.32890492  1
  In  In44  1  0.63984760  0.50495193  0.83561984  1
  In  In45  1  0.32374886  0.29667058  0.33471680  1
  In  In46  1  -0.01166513  0.30013339  0.00977298  1
  In  In47  1  0.18800619  0.47306903  0.01870112  1
  In  In48  1  0.84272222  0.13702676  0.02351985  1
  In  In49  1  -0.08543624  0.42426929  0.43875921  1
  In  In50  1  0.01987489  0.83036622  0.49220442  1
  In  In51  1  0.81603937  0.67160408  0.48594855  1
  In  In52  1  0.15495728  0.49250068  0.66688635  1
  In  In53  1  0.14060944  0.32473855  0.18327726  1
  In  In54  1  0.32409378  0.31113420  -0.00532253  1
  In  In55  1  0.69785916  0.49419547  0.48199613  1
  In  In56  1  0.52384255  0.49838581  -0.00226076  1
  In  In57  1  0.51887262  0.01682940  0.80400667  1
  In  In58  1  0.50950929  0.01581560  0.18212573  1
  In  In59  1  0.67670855  0.65271338  0.31383827  1
  In  In60  1  -0.04265910  0.48500444  0.19544297  1
  In  In61  1  0.51866375  0.84799237  0.35141655  1
  In  In62  1  0.64032931  -0.00172244  0.37051693  1
  In  In63  1  0.02990942  0.64009781  0.00729106  1
  In  In64  1  0.67456338  0.81371979  0.17114488  1
  In  In65  1  0.65290292  0.31845611  0.67166910  1
  In  In66  1  0.33060453  -0.01370220  -0.00460632  1
  In  In67  1  0.33969675  0.51186188  0.16835541  1
  In  In68  1  0.33535866  0.83321745  0.14566994  1
  In  In69  1  0.51792590  0.51451296  0.65023375  1
  In  In70  1  0.33236550  0.15315328  0.48016515  1
  In  In71  1  0.17089323  0.67860922  0.17958975  1
  Te  Te72  1  0.05120186  0.11163324  0.11064754  1
  Te  Te73  1  0.09150119  0.13191044  0.42780046  1
  Te  Te74  1  0.09215317  0.08229019  0.74343502  1
  Te  Te75  1  0.06388726  0.41755480  0.08394102  1
  Te  Te76  1  0.06246162  0.39867702  0.41641211  1
  Te  Te77  1  0.06612777  0.39463621  0.74069500  1
  Te  Te78  1  0.08257667  0.75937126  0.08579329  1
  Te  Te79  1  0.10017901  0.73674796  0.40513867  1
  Te  Te80  1  0.07833102  0.75403022  0.74406089  1
  Te  Te81  1  0.40754822  0.07965980  0.08940662  1
  Te  Te82  1  0.42054570  0.06527287  0.39692552  1
  Te  Te83  1  0.40641248  0.08205770  0.74051487  1
  Te  Te84  1  0.41510938  0.41177725  0.07323804  1
  Te  Te85  1  0.39973463  0.41500538  0.40932748  1
  Te  Te86  1  0.43138520  0.43119802  0.74311953  1
  Te  Te87  1  0.42405034  0.73323664  0.08639531  1
  Te  Te88  1  0.42142645  0.76493553  0.42937000  1
  Te  Te89  1  0.41282649  0.74008764  0.72430392  1
  Te  Te90  1  0.74414001  0.08864947  0.12600669  1
  Te  Te91  1  0.75406177  0.06522605  0.43778865  1
  Te  Te92  1  0.73734325  0.07803134  0.75842265  1
  Te  Te93  1  0.73436997  0.44240474  0.13732080  1
  Te  Te94  1  0.74514156  0.38776797  0.39350743  1
  Te  Te95  1  0.73511671  0.41985533  0.74960335  1
  Te  Te96  1  0.76498883  0.74667325  0.07867637  1
  Te  Te97  1  0.72122278  0.76248271  0.41059535  1
  Te  Te98  1  0.77273063  0.77834856  0.73339695  1
  Te  Te99  1  0.10209392  0.22390881  0.28607944  1
  Te  Te100  1  0.04296672  0.21101570  0.55611313  1
  Te  Te101  1  0.10613781  0.25918160  0.92731527  1
  Te  Te102  1  0.08362453  0.56735692  0.23749642  1
  Te  Te103  1  0.07041246  0.56276563  0.56160316  1
  Te  Te104  1  0.11155427  0.57580293  0.89589409  1
  Te  Te105  1  0.07337201  0.92479886  0.25885425  1
  Te  Te106  1  0.09704609  0.94430131  0.55454592  1
  Te  Te107  1  0.09614708  0.92787973  0.90891842  1
  Te  Te108  1  0.40411502  0.22024423  0.23886590  1
  Te  Te109  1  0.40928831  0.25149317  0.57486947  1
  Te  Te110  1  0.41327119  0.23283644  0.91023180  1
  Te  Te111  1  0.39954827  0.59940791  0.26789946  1
  Te  Te112  1  0.41986252  0.60392079  0.57896247  1
  Te  Te113  1  0.42778503  0.58900756  0.92071455  1
  Te  Te114  1  0.42653462  0.90719059  0.24432091  1
  Te  Te115  1  0.41344518  0.89045790  0.54844710  1
  Te  Te116  1  0.44773907  0.92129126  0.90931120  1
  Te  Te117  1  0.78943794  0.26093525  0.31508302  1
  Te  Te118  1  0.75697072  0.26680354  0.57593459  1
  Te  Te119  1  0.75726741  0.24098145  0.93660419  1
  Te  Te120  1  0.75688039  0.56055142  0.23663921  1
  Te  Te121  1  0.74866746  0.58457558  0.58355687  1
  Te  Te122  1  0.74999757  0.56292488  0.92348942  1
  Te  Te123  1  0.73049809  0.92209002  0.26154308  1
  Te  Te124  1  0.73820711  0.88418954  0.59709187  1
  Te  Te125  1  0.77282907  0.91005688  0.91408240  1
  Te  Te126  1  0.24497587  0.24381188  0.10514470  1
  Te  Te127  1  0.22710386  0.25024063  0.43547311  1
  Te  Te128  1  0.23929092  0.26467060  0.74669729  1
  Te  Te129  1  0.25104543  0.59578733  0.07580230  1
  Te  Te130  1  0.25217821  0.58548365  0.41828838  1
  Te  Te131  1  0.24687521  0.59914513  0.72362323  1
  Te  Te132  1  0.23276796  0.93762959  0.10212197  1
  Te  Te133  1  0.28597921  0.96878046  0.40457951  1
  Te  Te134  1  0.24813841  0.92340329  0.75438760  1
  Te  Te135  1  0.59811344  0.25452622  0.10244569  1
  Te  Te136  1  0.57738974  0.23365028  0.37565860  1
  Te  Te137  1  0.55545061  0.23588859  0.74256915  1
  Te  Te138  1  0.57595829  0.56906748  0.11424655  1
  Te  Te139  1  0.58243371  0.58603318  0.42644716  1
  Te  Te140  1  0.60325407  0.60954359  0.73240561  1
  Te  Te141  1  0.59033573  0.91807233  0.08388870  1
  Te  Te142  1  0.53259738  0.94862158  0.46898929  1
  Te  Te143  1  0.55914801  0.89875948  0.71695635  1
  Te  Te144  1  0.87718600  0.26320241  0.10205606  1
  Te  Te145  1  0.89907669  0.27405387  0.41158551  1
  Te  Te146  1  0.90077868  0.23952102  0.74618267  1
  Te  Te147  1  0.91345491  0.58490903  0.08844283  1
  Te  Te148  1  0.89652675  0.57703452  0.39886571  1
  Te  Te149  1  0.89144510  0.58709351  0.74672404  1
  Te  Te150  1  0.91115604  0.91779864  0.07615860  1
  Te  Te151  1  0.92080727  0.90640597  0.40800071  1
  Te  Te152  1  0.93456176  0.92084916  0.72269838  1
  Te  Te153  1  0.30111311  0.09033652  0.31225618  1
  Te  Te154  1  0.25063762  0.08104687  0.58675667  1
  Te  Te155  1  0.25171785  0.08259135  0.91932116  1
  Te  Te156  1  0.25235554  0.41341437  0.24585819  1
  Te  Te157  1  0.22657859  0.40343458  0.56806993  1
  Te  Te158  1  0.26062013  0.41849362  0.89935502  1
  Te  Te159  1  0.26030982  0.76676889  0.26249219  1
  Te  Te160  1  0.25984004  0.78210886  0.55855656  1
  Te  Te161  1  0.28424648  0.75849859  0.92749588  1
  Te  Te162  1  0.59026745  0.10005183  0.27262557  1
  Te  Te163  1  0.58015927  0.10857120  0.57899118  1
  Te  Te164  1  0.59453648  0.08086021  0.93297197  1
  Te  Te165  1  0.58264076  0.39730897  0.27668002  1
  Te  Te166  1  0.58138658  0.40845451  0.56086212  1
  Te  Te167  1  0.57989433  0.38733586  0.91107416  1
  Te  Te168  1  0.57058955  0.74079219  0.25072631  1
  Te  Te169  1  0.61647311  0.78857958  0.59474863  1
  Te  Te170  1  0.60992785  0.74829476  0.91081197  1
  Te  Te171  1  0.90815955  0.08755579  0.28984750  1
  Te  Te172  1  0.88626021  0.06511687  0.54383008  1
  Te  Te173  1  0.93447368  0.09307819  0.90965626  1
  Te  Te174  1  0.91637435  0.35771881  0.26102734  1
  Te  Te175  1  0.89553665  0.43622159  0.58529462  1
  Te  Te176  1  0.92653805  0.41601667  0.91450412  1
  Te  Te177  1  0.91551838  0.74685409  0.22861082  1
  Te  Te178  1  0.92385306  0.74383430  0.57004710  1
  Te  Te179  1  0.93549269  0.72649133  0.91783926  1
