# generated using pymatgen
data_In2Te3
_symmetry_space_group_name_H-M   'P 1'
_cell_length_a   18.90589030
_cell_length_b   18.89598859
_cell_length_c   18.91832634
_cell_angle_alpha   90.04800427
_cell_angle_beta   89.85796727
_cell_angle_gamma   90.02160221
_symmetry_Int_Tables_number   1
_chemical_formula_structural   In2Te3
_chemical_formula_sum   'In72 Te108'
_cell_volume   6758.46309687
_cell_formula_units_Z   36
loop_
 _symmetry_equiv_pos_site_id
 _symmetry_equiv_pos_as_xyz
  1  'x, y, z'
loop_
 _atom_site_type_symbol
 _atom_site_label
 _atom_site_symmetry_multiplicity
 _atom_site_fract_x
 _atom_site_fract_y
 _atom_site_fract_z
 _atom_site_occupancy
  In  In0  1  -0.01884543  0.67122714  0.34542072  1
  In  In1  1  0.64452495  0.00515493  0.67086078  1
  In  In2  1  0.34017384  0.31463766  0.67286786  1
  In  In3  1  0.68659651  0.81179196  0.80531612  1
  In  In4  1  0.50766013  0.67125954  0.48947505  1
  In  In5  1  0.16680282  0.83646493  0.65276688  1
  In  In6  1  0.17370709  0.67260544  0.83091280  1
  In  In7  1  -0.00031987  0.83683507  0.53499259  1
  In  In8  1  -0.00306068  0.01797855  -0.01901369  1
  In  In9  1  0.51034486  -0.00330675  0.83697621  1
  In  In10  1  0.82286648  0.50154942  -0.00669711  1
  In  In11  1  0.80557716  0.86533779  -0.00259222  1
  In  In12  1  0.65017858  -0.00039230  0.30458809  1
  In  In13  1  0.19069718  0.31253914  0.16620429  1
  In  In14  1  0.16412307  0.33458631  0.51492932  1
  In  In15  1  0.80901341  0.82600683  0.33716286  1
  In  In16  1  0.17196974  0.16690700  -0.00961757  1
  In  In17  1  0.17385085  0.81871616  0.34708794  1
  In  In18  1  0.65120037  0.16053012  0.48574721  1
  In  In19  1  0.66148334  0.35161647  0.68148457  1
  In  In20  1  0.64733852  0.66983252  0.00255319  1
  In  In21  1  0.64183346  0.83869404  0.48694183  1
  In  In22  1  -0.00269006  0.18006688  0.15192554  1
  In  In23  1  0.18211377  0.50220558  0.01508976  1
  In  In24  1  0.81302583  0.52066211  0.66627277  1
  In  In25  1  -0.00728402  0.46924496  0.83574244  1
  In  In26  1  0.33874502  0.34136062  0.34089537  1
  In  In27  1  0.01965841  0.50022509  0.16056164  1
  In  In28  1  0.51178826  0.48570045  0.01042615  1
  In  In29  1  0.63079709  0.84739977  0.15995994  1
  In  In30  1  0.65971619  0.48633962  0.85517579  1
  In  In31  1  0.50353659  0.50987769  0.66560382  1
  In  In32  1  0.81412992  -0.00145969  0.50415921  1
  In  In33  1  0.50879002  0.15481194  0.32583645  1
  In  In34  1  0.49009143  0.68056222  0.83203863  1
  In  In35  1  0.85554162  0.17018451  0.67230168  1
  In  In36  1  0.16949141  0.00801051  0.82750410  1
  In  In37  1  0.01422530  0.52720784  0.50381396  1
  In  In38  1  0.65564779  0.17422125  0.83661655  1
  In  In39  1  0.34761956  0.65346155  0.33059935  1
  In  In40  1  0.17984711  0.81736000  0.02167143  1
  In  In41  1  0.01507780  0.32982770  0.67479329  1
  In  In42  1  0.34972227  -0.01405606  0.31875875  1
  In  In43  1  0.16564972  0.32707263  0.83973072  1
  In  In44  1  0.49922444  0.14806141  0.64005210  1
  In  In45  1  0.38138269  0.83612866  0.17071599  1
  In  In46  1  0.81812962  0.64126828  0.16907973  1
  In  In47  1  0.02502258  0.17409123  0.49038214  1
  In  In48  1  0.80540453  0.19483756  0.28625663  1
  In  In49  1  -0.02212539  0.32140945  0.30587313  1
  In  In50  1  0.49726464  0.34158608  0.16122257  1
  In  In51  1  0.34622986  0.49213812  0.48845703  1
  In  In52  1  0.66960170  0.51938744  0.50386547  1
  In  In53  1  0.17568126  -0.02594179  0.18554655  1
  In  In54  1  -0.03054700  0.85571215  0.84604733  1
  In  In55  1  0.32811843  0.83661265  0.82590241  1
  In  In56  1  0.83286417  0.32996985  0.52075811  1
  In  In57  1  0.31094145  0.14504836  0.52666232  1
  In  In58  1  -0.00646616  0.01509745  0.33251039  1
  In  In59  1  0.32925535  0.50701456  0.83360624  1
  In  In60  1  0.01886757  0.69533467  -0.01075413  1
  In  In61  1  0.36936495  0.86289651  0.51888329  1
  In  In62  1  0.02026434  -0.01157321  0.68525305  1
  In  In63  1  0.50546049  0.66946124  0.18057886  1
  In  In64  1  0.66523393  0.31705599  0.03665153  1
  In  In65  1  0.36425487  0.17330238  0.86356094  1
  In  In66  1  0.79986810  0.15081114  0.02992122  1
  In  In67  1  -0.00137878  0.65909800  0.67321049  1
  In  In68  1  0.37555126  0.12503983  0.13594352  1
  In  In69  1  0.17437240  0.47379553  0.35546522  1
  In  In70  1  0.00248347  0.81891658  0.12191375  1
  In  In71  1  0.83458868  0.49701430  0.33867544  1
  Te  Te72  1  0.09466850  0.06945952  0.09346228  1
  Te  Te73  1  0.10095066  0.08967571  0.39723954  1
  Te  Te74  1  0.06127640  0.09382405  0.77865980  1
  Te  Te75  1  0.09355165  0.39326970  0.08158019  1
  Te  Te76  1  0.05418901  0.39639794  0.42047390  1
  Te  Te77  1  0.10719374  0.42974158  0.74314575  1
  Te  Te78  1  0.11692290  0.70866450  0.11488639  1
  Te  Te79  1  0.07656641  0.74506592  0.43869399  1
  Te  Te80  1  0.07593516  0.76931091  0.76266616  1
  Te  Te81  1  0.46241710  0.03455341  0.05301561  1
  Te  Te82  1  0.40420268  0.08877163  0.41627282  1
  Te  Te83  1  0.41741211  0.08373410  0.74959758  1
  Te  Te84  1  0.40131737  0.42747547  0.08882047  1
  Te  Te85  1  0.44249029  0.43481599  0.39130284  1
  Te  Te86  1  0.42188702  0.41496640  0.75279160  1
  Te  Te87  1  0.44483492  0.74818435  0.07199669  1
  Te  Te88  1  0.41725152  0.76263735  0.40758957  1
  Te  Te89  1  0.39515384  0.74047615  0.73559864  1
  Te  Te90  1  0.69868519  0.06458094  0.09642174  1
  Te  Te91  1  0.74962339  0.08282380  0.39593889  1
  Te  Te92  1  0.74563654  0.08986951  0.74519144  1
  Te  Te93  1  0.72498774  0.44466635  0.09048438  1
  Te  Te94  1  0.74635783  0.40688960  0.42450295  1
  Te  Te95  1  0.76575097  0.41624844  0.76781359  1
  Te  Te96  1  0.74568591  0.75378194  0.08859443  1
  Te  Te97  1  0.73652921  0.73985883  0.42865177  1
  Te  Te98  1  0.77276604  0.73598368  0.71246050  1
  Te  Te99  1  0.09428519  0.23684761  0.25699068  1
  Te  Te100  1  0.10578982  0.22838265  0.60720519  1
  Te  Te101  1  0.07175931  0.24208447  0.91589084  1
  Te  Te102  1  0.07694695  0.57042001  0.28210682  1
  Te  Te103  1  0.10513273  0.59649886  0.59338220  1
  Te  Te104  1  0.08472951  0.57644849  0.91256992  1
  Te  Te105  1  0.06921715  0.89349377  0.25826936  1
  Te  Te106  1  0.10171055  0.95021184  0.56170921  1
  Te  Te107  1  0.09766253  0.90647294  0.92715551  1
  Te  Te108  1  0.40527219  0.24053870  0.24544116  1
  Te  Te109  1  0.42050328  0.25144686  0.56107110  1
  Te  Te110  1  0.44707740  0.27189794  0.93655766  1
  Te  Te111  1  0.42380503  0.56296995  0.24327156  1
  Te  Te112  1  0.41122883  0.59327339  0.58104690  1
  Te  Te113  1  0.42432939  0.58127943  0.92610514  1
  Te  Te114  1  0.46833411  0.93343144  0.24461593  1
  Te  Te115  1  0.43259352  0.97386351  0.59356465  1
  Te  Te116  1  0.40682410  0.92350540  0.91625926  1
  Te  Te117  1  0.72436400  0.28136202  0.19364141  1
  Te  Te118  1  0.73311484  0.23625414  0.59255348  1
  Te  Te119  1  0.74633938  0.25774663  0.92363288  1
  Te  Te120  1  0.73699098  0.59158724  0.28004133  1
  Te  Te121  1  0.72018864  0.61910727  0.60471938  1
  Te  Te122  1  0.74538776  0.60074227  0.90917471  1
  Te  Te123  1  0.75475357  0.91680845  0.23244125  1
  Te  Te124  1  0.73587466  0.90994949  0.59299887  1
  Te  Te125  1  0.72456824  0.92583565  0.89224085  1
  Te  Te126  1  0.28000226  0.23206606  0.07388496  1
  Te  Te127  1  0.24996814  0.24991909  0.42442114  1
  Te  Te128  1  0.25833391  0.22928378  0.76696108  1
  Te  Te129  1  0.23761327  0.61330351  0.08875346  1
  Te  Te130  1  0.24499417  0.58760215  0.42468835  1
  Te  Te131  1  0.26844530  0.60502416  0.74062019  1
  Te  Te132  1  0.27484174  0.91387297  0.08923439  1
  Te  Te133  1  0.25946444  0.91876810  0.41997555  1
  Te  Te134  1  0.25734109  0.93788613  0.72456655  1
  Te  Te135  1  0.53886189  0.23512916  0.05814455  1
  Te  Te136  1  0.58505874  0.25782256  0.39973517  1
  Te  Te137  1  0.56687474  0.24748054  0.73722183  1
  Te  Te138  1  0.60257819  0.56661453  0.10221788  1
  Te  Te139  1  0.56687529  0.56259822  0.40655813  1
  Te  Te140  1  0.59031951  0.58622639  0.76328866  1
  Te  Te141  1  0.59581626  0.95061758  0.05979826  1
  Te  Te142  1  0.56063349  0.91329361  0.38520900  1
  Te  Te143  1  0.56857553  0.89449952  0.74023227  1
  Te  Te144  1  0.89141486  0.25514533  0.08531629  1
  Te  Te145  1  0.90070508  0.24037797  0.41530357  1
  Te  Te146  1  0.91669212  0.26646784  0.76318215  1
  Te  Te147  1  0.93047013  0.59218614  0.07487858  1
  Te  Te148  1  0.89363284  0.59464542  0.44338803  1
  Te  Te149  1  0.91155477  0.57864043  0.76846871  1
  Te  Te150  1  0.91427272  0.93387370  0.07983026  1
  Te  Te151  1  0.91453592  0.90963898  0.42298385  1
  Te  Te152  1  0.89889283  0.93269691  0.74492144  1
  Te  Te153  1  0.26602220  0.08391595  0.23791869  1
  Te  Te154  1  0.23021787  0.05155412  0.60445174  1
  Te  Te155  1  0.26777709  0.06870204  0.92545960  1
  Te  Te156  1  0.25904774  0.42671472  0.23991448  1
  Te  Te157  1  0.26090849  0.41846764  0.59358215  1
  Te  Te158  1  0.26139903  0.40654819  0.92683480  1
  Te  Te159  1  0.27174650  0.75862203  0.24891340  1
  Te  Te160  1  0.26400194  0.76983072  0.56616333  1
  Te  Te161  1  0.26919520  0.73751356  0.92910843  1
  Te  Te162  1  0.60284059  0.11068546  0.21559710  1
  Te  Te163  1  0.56220330  0.04411241  0.54201578  1
  Te  Te164  1  0.55679062  0.10840273  0.92898238  1
  Te  Te165  1  0.61796771  0.38006834  0.23660266  1
  Te  Te166  1  0.57839965  0.41455183  0.57370397  1
  Te  Te167  1  0.56397494  0.38337251  0.90924105  1
  Te  Te168  1  0.60461617  0.74417300  0.25976201  1
  Te  Te169  1  0.56208379  0.76650863  0.58809509  1
  Te  Te170  1  0.58040501  0.77106910  0.91494805  1
  Te  Te171  1  0.90534098  0.08924707  0.23457209  1
  Te  Te172  1  0.92433531  0.08221933  0.56852874  1
  Te  Te173  1  0.87754500  0.07932325  0.92488870  1
  Te  Te174  1  0.90280596  0.42235024  0.22343907  1
  Te  Te175  1  0.92257506  0.42930022  0.59372675  1
  Te  Te176  1  0.92451603  0.40583918  0.94858589  1
  Te  Te177  1  0.91278450  0.75030453  0.23528711  1
  Te  Te178  1  0.90042829  0.75076577  0.60670315  1
  Te  Te179  1  0.89306985  0.75420162  0.92592567  1
