# generated using pymatgen
data_In2Te3
_symmetry_space_group_name_H-M   'P 1'
_cell_length_a   18.94550697
_cell_length_b   18.93779051
_cell_length_c   18.95853093
_cell_angle_alpha   89.92499389
_cell_angle_beta   89.95236448
_cell_angle_gamma   89.72168860
_symmetry_Int_Tables_number   1
_chemical_formula_structural   In2Te3
_chemical_formula_sum   'In72 Te108'
_cell_volume   6801.96788586
_cell_formula_units_Z   36
loop_
 _symmetry_equiv_pos_site_id
 _symmetry_equiv_pos_as_xyz
  1  'x, y, z'
loop_
 _atom_site_type_symbol
 _atom_site_label
 _atom_site_symmetry_multiplicity
 _atom_site_fract_x
 _atom_site_fract_y
 _atom_site_fract_z
 _atom_site_occupancy
  In  In0  1  0.03941494  0.68110599  0.70452196  1
  In  In1  1  0.89772348  0.52323787  0.67767307  1
  In  In2  1  0.68347228  0.51503349  0.85014379  1
  In  In3  1  0.66236278  0.16238391  0.48827293  1
  In  In4  1  0.16863180  0.16135485  0.33205545  1
  In  In5  1  0.34656159  0.33163376  0.00073764  1
  In  In6  1  0.15822564  0.81915529  -0.00886776  1
  In  In7  1  0.84584037  0.66553300  0.51856175  1
  In  In8  1  0.48697040  0.66360755  0.85426175  1
  In  In9  1  0.46978908  0.53317151  0.31398631  1
  In  In10  1  0.33723668  0.67228332  0.00427037  1
  In  In11  1  0.83985060  0.82915141  0.67790501  1
  In  In12  1  0.50584794  0.17994810  0.33094309  1
  In  In13  1  0.20642530  0.33114442  0.77236944  1
  In  In14  1  0.33593821  0.17109157  0.16335946  1
  In  In15  1  0.67282231  0.68022794  0.68136141  1
  In  In16  1  0.84632116  -0.01076350  0.17097218  1
  In  In17  1  0.17538328  0.79585304  0.30076975  1
  In  In18  1  0.19972121  0.36473915  0.50540488  1
  In  In19  1  0.83921046  -0.01166531  0.83683506  1
  In  In20  1  0.47382374  0.80278860  0.34658277  1
  In  In21  1  0.32087851  0.01288889  0.01919436  1
  In  In22  1  0.16605734  0.55038037  0.32458754  1
  In  In23  1  0.64663603  0.17403662  0.16884284  1
  In  In24  1  0.85073011  0.50913302  0.34269390  1
  In  In25  1  0.83365099  0.33916829  0.85308836  1
  In  In26  1  0.49782011  0.50437553  -0.00040782  1
  In  In27  1  0.16111140  0.16232545  -0.02095274  1
  In  In28  1  0.45893398  0.33728766  0.49274709  1
  In  In29  1  0.63779658  -0.00810414  0.65028914  1
  In  In30  1  0.18037609  0.49695800  0.00530458  1
  In  In31  1  0.00744622  0.00241647  0.64490275  1
  In  In32  1  0.65766303  0.36134804  0.68557071  1
  In  In33  1  0.01264824  0.35227423  0.64087804  1
  In  In34  1  0.00075327  0.65199171  0.01309782  1
  In  In35  1  0.32140923  0.82557423  0.86010697  1
  In  In36  1  0.68833749  0.81747747  0.16170077  1
  In  In37  1  0.82007512  0.16053566  0.32070484  1
  In  In38  1  0.51287355  0.34831491  0.16730648  1
  In  In39  1  0.65595869  0.50968709  0.15088680  1
  In  In40  1  0.15565963  -0.03344730  0.16350032  1
  In  In41  1  0.49617467  0.00283198  0.47914682  1
  In  In42  1  0.01892960  0.51091038  0.50682076  1
  In  In43  1  0.01659996  0.18121432  0.48449192  1
  In  In44  1  0.03189627  0.83117342  0.47777040  1
  In  In45  1  0.64673048  0.65402062  0.33489494  1
  In  In46  1  0.67300854  0.83496298  0.50428273  1
  In  In47  1  0.45160924  0.67922359  0.53897651  1
  In  In48  1  0.28798766  0.82351707  0.50069696  1
  In  In49  1  0.65057574  0.49823183  0.49345352  1
  In  In50  1  0.83898869  0.34726008  0.18490599  1
  In  In51  1  0.88572795  0.80997957  0.29212583  1
  In  In52  1  0.81935524  0.30218040  0.48545156  1
  In  In53  1  0.66643333  0.18961301  0.82807749  1
  In  In54  1  0.68141830  0.00645515  -0.00157738  1
  In  In55  1  0.86374788  0.81268467  0.03993179  1
  In  In56  1  0.31839686  0.00342730  0.65193030  1
  In  In57  1  0.32065797  0.15785040  0.50787035  1
  In  In58  1  0.01272196  0.16426721  0.16595491  1
  In  In59  1  0.18176883  0.36579885  0.18275345  1
  In  In60  1  0.48602101  -0.01424640  0.19847893  1
  In  In61  1  0.51193747  0.84356144  -0.01521261  1
  In  In62  1  0.16795270  -0.01043675  0.82609738  1
  In  In63  1  0.48454365  0.34744508  0.83986224  1
  In  In64  1  0.83335478  0.49418982  0.01368205  1
  In  In65  1  0.48557915  0.86646066  0.68883847  1
  In  In66  1  -0.01110201  0.14251820  0.82521844  1
  In  In67  1  0.84447238  0.15815225  0.67611381  1
  In  In68  1  0.00691470  0.34492836  0.01074455  1
  In  In69  1  0.30430643  0.65026073  0.67312429  1
  In  In70  1  0.45747636  0.53061417  0.66310639  1
  In  In71  1  0.50846868  0.00958955  0.80191434  1
  Te  Te72  1  0.08515447  0.07033906  0.07105475  1
  Te  Te73  1  0.07892601  0.07320628  0.40704020  1
  Te  Te74  1  0.09567925  0.08989642  0.73407220  1
  Te  Te75  1  0.07602235  0.44068840  0.10428143  1
  Te  Te76  1  0.09904524  0.42668426  0.41229281  1
  Te  Te77  1  0.08648679  0.42650772  0.74718112  1
  Te  Te78  1  0.10782604  0.72263280  0.09342735  1
  Te  Te79  1  0.09879339  0.72229228  0.40473670  1
  Te  Te80  1  0.13456900  0.76844214  0.77472256  1
  Te  Te81  1  0.43536237  0.08207219  0.09074279  1
  Te  Te82  1  0.40387910  0.08899502  0.39700728  1
  Te  Te83  1  0.40539021  0.09168974  0.73152611  1
  Te  Te84  1  0.40596663  0.43067084  0.09687897  1
  Te  Te85  1  0.39771240  0.43271726  0.39769126  1
  Te  Te86  1  0.39922228  0.43136757  0.75370956  1
  Te  Te87  1  0.42921374  0.76150819  0.07533189  1
  Te  Te88  1  0.36285448  0.71574539  0.41418348  1
  Te  Te89  1  0.40588769  0.74608875  0.74989079  1
  Te  Te90  1  0.75561356  0.08954845  0.10041609  1
  Te  Te91  1  0.75212070  0.07318112  0.41749991  1
  Te  Te92  1  0.74022220  0.07556977  0.74762151  1
  Te  Te93  1  0.73743968  0.40034705  0.08343128  1
  Te  Te94  1  0.74805458  0.41649838  0.41225168  1
  Te  Te95  1  0.77239315  0.44024358  0.74753670  1
  Te  Te96  1  0.75506446  0.71806119  0.07696976  1
  Te  Te97  1  0.74604722  0.73135979  0.42104677  1
  Te  Te98  1  0.76591222  0.74486470  0.77235443  1
  Te  Te99  1  0.09022554  0.26336809  0.24983281  1
  Te  Te100  1  0.10927034  0.25675434  0.57568302  1
  Te  Te101  1  0.06466346  0.25127700  0.90471785  1
  Te  Te102  1  0.08106735  0.63053299  0.22745280  1
  Te  Te103  1  0.10248041  0.59323683  0.59775957  1
  Te  Te104  1  0.09539542  0.58227984  0.92097846  1
  Te  Te105  1  0.06435689  0.88536498  0.24717847  1
  Te  Te106  1  0.10597426  0.92074533  0.57031547  1
  Te  Te107  1  0.08001801  0.92282797  0.92177484  1
  Te  Te108  1  0.41159747  0.26717654  0.25058135  1
  Te  Te109  1  0.37860308  0.26517089  0.59748855  1
  Te  Te110  1  0.42141798  0.23928211  0.91674503  1
  Te  Te111  1  0.39516860  0.62025457  0.22136379  1
  Te  Te112  1  0.35604228  0.55645116  0.55063933  1
  Te  Te113  1  0.38954147  0.56337841  0.90889380  1
  Te  Te114  1  0.38938498  0.89961129  0.26945427  1
  Te  Te115  1  0.41169707  0.90420029  0.55940366  1
  Te  Te116  1  0.41540082  0.93622254  0.90797679  1
  Te  Te117  1  0.73067295  0.26492173  0.25671096  1
  Te  Te118  1  0.73843106  0.25292024  0.60544707  1
  Te  Te119  1  0.76397825  0.23524168  0.92703333  1
  Te  Te120  1  0.74763057  0.57899001  0.25210877  1
  Te  Te121  1  0.73988505  0.57946786  0.58719441  1
  Te  Te122  1  0.75623665  0.60064035  0.94319810  1
  Te  Te123  1  0.76324498  0.90084568  0.26201774  1
  Te  Te124  1  0.76104225  0.92443945  0.58801969  1
  Te  Te125  1  0.77437162  0.90263004  0.94345878  1
  Te  Te126  1  0.23197417  0.25008450  0.08243827  1
  Te  Te127  1  0.25518369  0.25680928  0.41221467  1
  Te  Te128  1  0.28443388  0.21926524  0.71381882  1
  Te  Te129  1  0.26254816  0.58341476  0.09892271  1
  Te  Te130  1  0.26221480  0.59661620  0.42780992  1
  Te  Te131  1  0.21238616  0.54626520  0.72953636  1
  Te  Te132  1  0.26178433  0.89220199  0.08320400  1
  Te  Te133  1  0.25549721  0.89859421  0.37690914  1
  Te  Te134  1  0.25369196  0.89557595  0.74102826  1
  Te  Te135  1  0.56762322  0.25105975  0.07331451  1
  Te  Te136  1  0.58086564  0.27295822  0.42353494  1
  Te  Te137  1  0.56386176  0.25636809  0.73885399  1
  Te  Te138  1  0.57057676  0.60336978  0.07775184  1
  Te  Te139  1  0.55038074  0.60176419  0.44262510  1
  Te  Te140  1  0.57586627  0.57814847  0.75276226  1
  Te  Te141  1  0.59235339  0.92439714  0.09684243  1
  Te  Te142  1  0.58019054  0.90113856  0.40488211  1
  Te  Te143  1  0.61108386  0.89870948  0.76730658  1
  Te  Te144  1  0.91590168  0.25348842  0.08983409  1
  Te  Te145  1  0.92371094  0.25506609  0.38976864  1
  Te  Te146  1  0.92296670  0.27069501  0.73836976  1
  Te  Te147  1  0.91082503  0.57707418  0.11088394  1
  Te  Te148  1  0.94154073  0.60712536  0.41636510  1
  Te  Te149  1  0.92478517  0.62296151  0.77896085  1
  Te  Te150  1  0.95441941  0.89990347  0.11972376  1
  Te  Te151  1  0.90894109  0.88405596  0.41602933  1
  Te  Te152  1  0.94155712  0.91554444  0.75087976  1
  Te  Te153  1  0.24270754  0.07430017  0.23139295  1
  Te  Te154  1  0.22448425  0.05329314  0.54955062  1
  Te  Te155  1  0.26353469  0.08591597  0.89961808  1
  Te  Te156  1  0.26069029  0.44347842  0.27820364  1
  Te  Te157  1  0.22923566  0.41887287  0.64401165  1
  Te  Te158  1  0.24096147  0.39137577  0.91127901  1
  Te  Te159  1  0.26259691  0.70108873  0.22009467  1
  Te  Te160  1  0.21133474  0.73340369  0.59067195  1
  Te  Te161  1  0.22324486  0.71137155  0.88856005  1
  Te  Te162  1  0.59096730  0.07148337  0.26719903  1
  Te  Te163  1  0.55726469  0.09985894  0.57842114  1
  Te  Te164  1  0.58784863  0.08516290  0.90862967  1
  Te  Te165  1  0.58089834  0.44095888  0.26568207  1
  Te  Te166  1  0.55646189  0.42256634  0.58756163  1
  Te  Te167  1  0.59556661  0.41540164  0.92064981  1
  Te  Te168  1  0.57471538  0.75059239  0.24441913  1
  Te  Te169  1  0.57510796  0.76056702  0.59451208  1
  Te  Te170  1  0.59247612  0.74616750  0.91019814  1
  Te  Te171  1  0.93292231  0.07686276  0.26067750  1
  Te  Te172  1  0.91491824  0.09127658  0.56233565  1
  Te  Te173  1  0.90059187  0.08727381  0.92647002  1
  Te  Te174  1  0.93736910  0.42337896  0.26155756  1
  Te  Te175  1  0.89961558  0.41865579  0.55894207  1
  Te  Te176  1  0.93238966  0.43541320  0.91270010  1
  Te  Te177  1  0.93525827  0.68911571  0.22373964  1
  Te  Te178  1  0.94370533  0.75064429  0.59570634  1
  Te  Te179  1  0.94293317  0.75846882  0.92822639  1
