# generated using pymatgen
data_In2Te3
_symmetry_space_group_name_H-M   'P 1'
_cell_length_a   18.94237218
_cell_length_b   18.93844525
_cell_length_c   18.92754965
_cell_angle_alpha   90.17721594
_cell_angle_beta   90.02710575
_cell_angle_gamma   89.89082125
_symmetry_Int_Tables_number   1
_chemical_formula_structural   In2Te3
_chemical_formula_sum   'In72 Te108'
_cell_volume   6790.00617317
_cell_formula_units_Z   36
loop_
 _symmetry_equiv_pos_site_id
 _symmetry_equiv_pos_as_xyz
  1  'x, y, z'
loop_
 _atom_site_type_symbol
 _atom_site_label
 _atom_site_symmetry_multiplicity
 _atom_site_fract_x
 _atom_site_fract_y
 _atom_site_fract_z
 _atom_site_occupancy
  In  In0  1  0.15190184  0.65927114  0.17105859  1
  In  In1  1  -0.01233370  0.83358581  0.47344454  1
  In  In2  1  0.49564182  -0.00723605  0.87109784  1
  In  In3  1  -0.00170085  0.68326334  0.31329242  1
  In  In4  1  0.14532512  0.31862171  0.50045550  1
  In  In5  1  0.17140217  0.80594902  0.65106316  1
  In  In6  1  0.29373449  0.13564409  0.85869025  1
  In  In7  1  0.49765527  0.81730209  0.64865683  1
  In  In8  1  0.31523299  0.00938118  0.65099515  1
  In  In9  1  0.65204811  0.00366533  0.67344813  1
  In  In10  1  0.68900526  0.80654301  0.46509620  1
  In  In11  1  0.68951923  0.50348182  0.16090818  1
  In  In12  1  0.35697837  0.68141997  0.02492710  1
  In  In13  1  0.00224976  0.00171545  0.01691880  1
  In  In14  1  0.01062974  0.82886365  0.88297179  1
  In  In15  1  0.68287244  0.34705808  0.33995741  1
  In  In16  1  0.36291981  0.33386728  0.66232571  1
  In  In17  1  0.49884627  0.49658907  0.00331406  1
  In  In18  1  0.33497486  0.51281856  0.17210777  1
  In  In19  1  0.50599796  0.32343698  0.49329803  1
  In  In20  1  0.51773138  0.50378031  0.36160816  1
  In  In21  1  0.17117189  0.83596426  0.31255682  1
  In  In22  1  0.66812964  0.04200605  0.01232240  1
  In  In23  1  0.14433146  -0.01426046  0.47679666  1
  In  In24  1  0.32610425  0.51581376  0.48887666  1
  In  In25  1  0.86209234  0.51945708  0.01788648  1
  In  In26  1  0.84407788  0.83749804  0.03584050  1
  In  In27  1  -0.00237353  0.17530958  0.84472777  1
  In  In28  1  -0.00799715  0.01931230  0.67154305  1
  In  In29  1  0.49098728  0.17314634  0.04281900  1
  In  In30  1  0.83584818  0.64550570  0.81588915  1
  In  In31  1  -0.00131884  0.49572770  0.51502091  1
  In  In32  1  0.13968557  0.49238238  -0.02023401  1
  In  In33  1  0.80132101  0.00588168  0.81914629  1
  In  In34  1  0.85153524  0.86337644  0.65597097  1
  In  In35  1  0.14527296  0.15822451  0.33095622  1
  In  In36  1  0.82840865  0.51252293  0.34175882  1
  In  In37  1  -0.02542333  0.66232531  0.64847821  1
  In  In38  1  0.16252019  0.32844560  0.15902517  1
  In  In39  1  0.15434893  0.33247798  0.80542839  1
  In  In40  1  0.32543401  0.82167943  0.82860143  1
  In  In41  1  0.32415591  0.31739109  0.30099450  1
  In  In42  1  0.32457881  0.33391308  -0.01286714  1
  In  In43  1  0.65513230  0.81762426  0.19850707  1
  In  In44  1  0.51433214  0.30251083  0.17001506  1
  In  In45  1  0.50102372  0.83620505  0.00982321  1
  In  In46  1  0.48351755  0.15474611  0.65970676  1
  In  In47  1  0.50797955  0.33654773  0.84619294  1
  In  In48  1  0.66953125  0.66873743  -0.00089769  1
  In  In49  1  0.14980053  0.65881600  0.83310595  1
  In  In50  1  0.48991604  -0.03636541  0.19894182  1
  In  In51  1  0.34771763  0.15955492  0.18176205  1
  In  In52  1  0.15703831  0.82996231  0.03416187  1
  In  In53  1  -0.02710416  0.35958630  0.33593668  1
  In  In54  1  0.32510582  0.67335909  0.65301380  1
  In  In55  1  0.49333189  0.01547400  0.47869822  1
  In  In56  1  0.68528846  0.18929877  0.78915490  1
  In  In57  1  0.68236343  -0.00332146  0.32959297  1
  In  In58  1  0.51095949  0.66746104  0.48861187  1
  In  In59  1  0.82280810  0.17175535  0.01477595  1
  In  In60  1  0.15271108  -0.00589528  0.15997301  1
  In  In61  1  0.53411277  0.48077803  0.67493782  1
  In  In62  1  0.68406956  0.16706607  0.17672150  1
  In  In63  1  0.67640441  0.81949300  0.84661837  1
  In  In64  1  0.83133561  0.34601065  0.79328506  1
  In  In65  1  0.84286419  -0.00284752  0.48149462  1
  In  In66  1  0.86533342  0.17062920  0.32697234  1
  In  In67  1  -0.01741776  0.32099289  -0.00384494  1
  In  In68  1  0.15103168  0.17601327  0.65440783  1
  In  In69  1  0.34120740  0.67383290  0.34240757  1
  In  In70  1  0.15714551  0.49862437  0.66364675  1
  In  In71  1  0.70590040  0.62280101  0.65633772  1
  Te  Te72  1  0.07817603  0.10343944  0.09177719  1
  Te  Te73  1  0.05384570  0.09323565  0.42804210  1
  Te  Te74  1  0.09378025  0.08529210  0.76127726  1
  Te  Te75  1  0.06314351  0.41585310  0.08513131  1
  Te  Te76  1  0.08930547  0.42689792  0.41321654  1
  Te  Te77  1  0.06002727  0.43199188  0.75179969  1
  Te  Te78  1  0.05349336  0.73129722  0.08040911  1
  Te  Te79  1  0.09634705  0.74808949  0.41224806  1
  Te  Te80  1  0.06066481  0.75449461  0.75154548  1
  Te  Te81  1  0.41716819  0.05395351  0.09522356  1
  Te  Te82  1  0.40398488  0.07242825  0.37736432  1
  Te  Te83  1  0.41144457  0.06620702  0.75993067  1
  Te  Te84  1  0.40802490  0.39501751  0.09989383  1
  Te  Te85  1  0.39937714  0.41112311  0.40279240  1
  Te  Te86  1  0.42059578  0.43079973  0.76377671  1
  Te  Te87  1  0.44628571  0.75257307  0.12043440  1
  Te  Te88  1  0.44449236  0.76672103  0.39984180  1
  Te  Te89  1  0.42435824  0.73465718  0.75191237  1
  Te  Te90  1  0.78273294  0.05782053  0.11864560  1
  Te  Te91  1  0.75507945  0.09977140  0.41223553  1
  Te  Te92  1  0.77097705  0.09715214  0.70219397  1
  Te  Te93  1  0.78932153  0.41512748  0.09645691  1
  Te  Te94  1  0.76266013  0.42181208  0.44106382  1
  Te  Te95  1  0.71320553  0.43794349  0.75184170  1
  Te  Te96  1  0.75150795  0.73904117  0.10451059  1
  Te  Te97  1  0.77296098  0.73602810  0.36414402  1
  Te  Te98  1  0.76461077  0.76166424  0.73830153  1
  Te  Te99  1  0.06795569  0.26386284  0.25751358  1
  Te  Te100  1  0.05168287  0.27344693  0.60536357  1
  Te  Te101  1  0.10052785  0.25409782  0.92369041  1
  Te  Te102  1  0.04864574  0.57020102  0.22912715  1
  Te  Te103  1  0.09482582  0.60407810  0.57604484  1
  Te  Te104  1  0.05135252  0.59232893  0.91923161  1
  Te  Te105  1  0.06341057  0.91793081  0.25219980  1
  Te  Te106  1  0.06842840  0.90797981  0.59044536  1
  Te  Te107  1  0.11467559  0.93609179  0.92170087  1
  Te  Te108  1  0.44520538  0.22558743  0.28168431  1
  Te  Te109  1  0.40209901  0.23048757  0.55663950  1
  Te  Te110  1  0.41674302  0.22846341  0.92147233  1
  Te  Te111  1  0.43416409  0.58293334  0.26032206  1
  Te  Te112  1  0.42969191  0.57777328  0.58229997  1
  Te  Te113  1  0.40887403  0.58474679  0.92859238  1
  Te  Te114  1  0.39396773  0.93705114  0.30878124  1
  Te  Te115  1  0.41782916  0.92361590  0.57662565  1
  Te  Te116  1  0.38814015  0.90954911  0.93639212  1
  Te  Te117  1  0.77059475  0.26615543  0.24592352  1
  Te  Te118  1  0.76675499  0.34047740  0.65424443  1
  Te  Te119  1  0.76532122  0.25256050  0.90172216  1
  Te  Te120  1  0.72336558  0.59744442  0.27268079  1
  Te  Te121  1  0.78763504  0.55344676  0.55699216  1
  Te  Te122  1  0.75411809  0.57158146  0.92021148  1
  Te  Te123  1  0.76680613  0.89454348  0.26057597  1
  Te  Te124  1  0.73763237  0.92197320  0.57337708  1
  Te  Te125  1  0.74413434  0.92050109  0.93771637  1
  Te  Te126  1  0.25777554  0.23748361  0.08360693  1
  Te  Te127  1  0.24340584  0.24601481  0.40783585  1
  Te  Te128  1  0.26812799  0.24259797  0.74314107  1
  Te  Te129  1  0.24216894  0.57589484  0.06940366  1
  Te  Te130  1  0.23716024  0.58579693  0.39764909  1
  Te  Te131  1  0.25135163  0.58262868  0.74912862  1
  Te  Te132  1  0.25662688  0.89651759  0.11723605  1
  Te  Te133  1  0.25506136  0.91368419  0.40944549  1
  Te  Te134  1  0.24054018  0.91012763  0.73901426  1
  Te  Te135  1  0.61594452  0.25408307  0.06862087  1
  Te  Te136  1  0.59953428  0.24726665  0.40962916  1
  Te  Te137  1  0.56868278  0.26259980  0.72570927  1
  Te  Te138  1  0.58220170  0.58736822  0.09228214  1
  Te  Te139  1  0.61844777  0.59701444  0.41401930  1
  Te  Te140  1  0.61019446  0.57694066  0.75919102  1
  Te  Te141  1  0.59814613  0.92489375  0.08787008  1
  Te  Te142  1  0.59168274  0.91185477  0.41759382  1
  Te  Te143  1  0.57354112  0.90683134  0.76213738  1
  Te  Te144  1  0.93521170  0.22164767  0.09852729  1
  Te  Te145  1  0.89903487  0.27245004  0.42776551  1
  Te  Te146  1  0.92855514  0.24460895  0.73569093  1
  Te  Te147  1  0.95151941  0.61288248  0.08891294  1
  Te  Te148  1  0.93190874  0.59302751  0.41974732  1
  Te  Te149  1  0.93048386  0.55747128  0.74296711  1
  Te  Te150  1  0.95125188  0.90243360  0.11501639  1
  Te  Te151  1  0.92205586  0.92555797  0.37906901  1
  Te  Te152  1  0.92351837  0.91989428  0.77855370  1
  Te  Te153  1  0.24456406  0.07514632  0.25445940  1
  Te  Te154  1  0.22998009  0.08932177  0.55715970  1
  Te  Te155  1  0.22344913  0.04732040  0.94525068  1
  Te  Te156  1  0.23466529  0.42859764  0.24943728  1
  Te  Te157  1  0.25496932  0.40688545  0.58277011  1
  Te  Te158  1  0.24572619  0.42174488  0.89483166  1
  Te  Te159  1  0.26207866  0.74463487  0.23066998  1
  Te  Te160  1  0.27101411  0.76392656  0.55281495  1
  Te  Te161  1  0.23837199  0.74294360  0.92735193  1
  Te  Te162  1  0.58437476  0.07576099  0.24495672  1
  Te  Te163  1  0.58921858  0.09427390  0.56842552  1
  Te  Te164  1  0.60398523  0.09716340  0.88656640  1
  Te  Te165  1  0.57805420  0.41926746  0.24235530  1
  Te  Te166  1  0.59171383  0.42727791  0.55212994  1
  Te  Te167  1  0.59639519  0.41096695  0.93524937  1
  Te  Te168  1  0.53729112  0.76083167  0.26162499  1
  Te  Te169  1  0.61290530  0.73962214  0.58761455  1
  Te  Te170  1  0.56648818  0.73898691  0.91228058  1
  Te  Te171  1  0.90599950  0.09436176  0.20758366  1
  Te  Te172  1  0.93741267  0.08833371  0.55349715  1
  Te  Te173  1  0.90134912  0.07401270  0.91783847  1
  Te  Te174  1  0.89290385  0.43240333  0.23305146  1
  Te  Te175  1  0.88660804  0.44048630  0.59529046  1
  Te  Te176  1  0.90671699  0.41726069  0.91184710  1
  Te  Te177  1  0.88663277  0.76827713  0.26675794  1
  Te  Te178  1  0.89076936  0.75311401  0.55923927  1
  Te  Te179  1  0.88977759  0.74892243  0.92036509  1
