# generated using pymatgen
data_In2Te3
_symmetry_space_group_name_H-M   'P 1'
_cell_length_a   18.91033416
_cell_length_b   18.93690630
_cell_length_c   18.91695425
_cell_angle_alpha   89.84373708
_cell_angle_beta   90.06453136
_cell_angle_gamma   89.87311373
_symmetry_Int_Tables_number   1
_chemical_formula_structural   In2Te3
_chemical_formula_sum   'In72 Te108'
_cell_volume   6774.17619804
_cell_formula_units_Z   36
loop_
 _symmetry_equiv_pos_site_id
 _symmetry_equiv_pos_as_xyz
  1  'x, y, z'
loop_
 _atom_site_type_symbol
 _atom_site_label
 _atom_site_symmetry_multiplicity
 _atom_site_fract_x
 _atom_site_fract_y
 _atom_site_fract_z
 _atom_site_occupancy
  In  In0  1  0.32405127  0.34442249  0.32913445  1
  In  In1  1  0.48490090  0.18494778  0.66573168  1
  In  In2  1  0.87093362  0.03228841  0.86383416  1
  In  In3  1  0.67220339  0.34411560  0.02309347  1
  In  In4  1  0.82961128  0.33980779  0.50127533  1
  In  In5  1  0.35404287  0.66042733  0.67209707  1
  In  In6  1  0.32047838  0.16015256  0.17372210  1
  In  In7  1  0.83821712  0.17503400  0.64811091  1
  In  In8  1  0.31520130  0.85334199  0.83624677  1
  In  In9  1  0.80712156  0.65316541  0.85040403  1
  In  In10  1  0.49239837  0.33265715  0.83385127  1
  In  In11  1  0.17161844  0.17302995  0.32649529  1
  In  In12  1  0.45202704  -0.03539720  0.34790316  1
  In  In13  1  0.67386586  0.50643001  0.49394832  1
  In  In14  1  0.65327252  0.14999769  0.82504447  1
  In  In15  1  0.36911718  0.51924014  0.18849809  1
  In  In16  1  0.51133763  0.18780354  0.00906698  1
  In  In17  1  -0.00309436  0.19260101  0.15261418  1
  In  In18  1  -0.00804304  -0.00493771  0.33778699  1
  In  In19  1  0.65624353  0.67716267  0.34650771  1
  In  In20  1  0.82507361  0.00694627  0.16845737  1
  In  In21  1  -0.01191139  0.01141051  0.64371466  1
  In  In22  1  0.16061551  0.32645086  0.17503671  1
  In  In23  1  0.17003363  0.67666097  0.17422950  1
  In  In24  1  0.19330109  0.65965804  0.83027633  1
  In  In25  1  0.17896651  0.81009139  0.67184368  1
  In  In26  1  0.82698562  0.34832971  0.84372126  1
  In  In27  1  0.64939519  -0.05638861  0.00222798  1
  In  In28  1  0.82609812  0.85152226  0.67316997  1
  In  In29  1  0.34820513  0.49009996  0.49561749  1
  In  In30  1  -0.00568786  0.02746760  0.00058883  1
  In  In31  1  0.66145379  0.15985257  0.47477283  1
  In  In32  1  0.13262727  0.02680774  0.83456782  1
  In  In33  1  0.29831350  0.35319693  0.65926569  1
  In  In34  1  -0.01618796  0.47694521  0.84105908  1
  In  In35  1  0.17854117  0.48077040  -0.00190321  1
  In  In36  1  -0.01995068  0.19087581  0.49682729  1
  In  In37  1  0.35149583  0.66980335  -0.00630875  1
  In  In38  1  0.16710177  -0.00333413  0.52205859  1
  In  In39  1  0.18310409  -0.02769273  0.18003163  1
  In  In40  1  0.65712087  0.02704152  0.63945290  1
  In  In41  1  0.82958104  0.16772179  0.02383848  1
  In  In42  1  0.50294826  0.34568841  0.15952461  1
  In  In43  1  0.81650367  0.67315060  0.48136171  1
  In  In44  1  0.02181941  0.33588544  0.66300248  1
  In  In45  1  0.51522056  0.51563904  0.65871888  1
  In  In46  1  0.35497192  -0.01034988  0.64956575  1
  In  In47  1  0.67884604  0.15275419  0.28814671  1
  In  In48  1  0.65237519  0.82559899  0.85286309  1
  In  In49  1  0.80583582  0.66772879  0.18593684  1
  In  In50  1  0.32107330  -0.00116859  0.01453242  1
  In  In51  1  0.19454222  0.82120257  0.33129635  1
  In  In52  1  0.36670966  0.81199282  0.46780859  1
  In  In53  1  0.80639842  0.51443968  0.30153744  1
  In  In54  1  0.51525027  0.31565895  0.48587631  1
  In  In55  1  0.16610791  0.17913124  0.00239765  1
  In  In56  1  0.83493418  0.49869702  0.65515870  1
  In  In57  1  0.18619989  0.16838639  0.65099964  1
  In  In58  1  0.52001282  0.80443086  0.65545230  1
  In  In59  1  0.00876214  0.65372297  0.02523654  1
  In  In60  1  0.64695641  0.49598497  0.83377012  1
  In  In61  1  0.15275194  0.47319047  0.38029190  1
  In  In62  1  -0.00235187  0.67050278  0.34034581  1
  In  In63  1  0.84800964  0.83062013  0.01018549  1
  In  In64  1  0.48047966  -0.01266408  0.82213681  1
  In  In65  1  0.81922646  0.81420343  0.34340818  1
  In  In66  1  0.03429677  0.83131819  0.83894268  1
  In  In67  1  0.51491523  0.80447357  0.03119737  1
  In  In68  1  0.00147250  0.78372982  0.48527501  1
  In  In69  1  0.64746723  0.80718513  0.16649631  1
  In  In70  1  0.31224897  0.50456567  0.83446052  1
  In  In71  1  -0.01388206  0.49340761  0.16888542  1
  Te  Te72  1  0.09989533  0.08110929  0.10915000  1
  Te  Te73  1  0.08116407  0.08127563  0.42755049  1
  Te  Te74  1  0.06428317  0.11030987  0.72805016  1
  Te  Te75  1  0.07376020  0.40595669  0.07885556  1
  Te  Te76  1  0.05241939  0.39503840  0.44763066  1
  Te  Te77  1  0.08944988  0.42973437  0.75187373  1
  Te  Te78  1  0.08161459  0.76058438  0.09089790  1
  Te  Te79  1  0.13086826  0.71328455  0.42312933  1
  Te  Te80  1  0.07941494  0.72221540  0.74381133  1
  Te  Te81  1  0.42019989  0.08794188  0.08545966  1
  Te  Te82  1  0.45217003  0.10085560  0.40694099  1
  Te  Te83  1  0.39891824  0.09419766  0.75333774  1
  Te  Te84  1  0.41533042  0.43412657  0.07988002  1
  Te  Te85  1  0.43936945  0.41473710  0.39872557  1
  Te  Te86  1  0.41864659  0.42537982  0.73580316  1
  Te  Te87  1  0.44355699  0.70006035  0.10529697  1
  Te  Te88  1  0.42809882  0.72433878  0.36467694  1
  Te  Te89  1  0.41607242  0.76548231  0.76093168  1
  Te  Te90  1  0.73047999  0.06235077  0.06472086  1
  Te  Te91  1  0.73345396  0.05490485  0.39134392  1
  Te  Te92  1  0.76652187  0.07936480  0.74913653  1
  Te  Te93  1  0.72945178  0.42483679  0.13182933  1
  Te  Te94  1  0.74238328  0.41264372  0.39847774  1
  Te  Te95  1  0.74039974  0.41616675  0.73944212  1
  Te  Te96  1  0.73593337  0.73716894  0.05655604  1
  Te  Te97  1  0.70649929  0.78390424  0.45002171  1
  Te  Te98  1  0.74073747  0.75140354  0.75313360  1
  Te  Te99  1  0.06243535  0.26366707  0.27197964  1
  Te  Te100  1  0.10105247  0.25856696  0.55752084  1
  Te  Te101  1  0.06693148  0.25416786  0.92892917  1
  Te  Te102  1  0.08119132  0.57557023  0.25455474  1
  Te  Te103  1  0.04820037  0.65137888  0.53594018  1
  Te  Te104  1  0.08889735  0.58317123  0.91763527  1
  Te  Te105  1  0.07986259  0.89649111  0.26316671  1
  Te  Te106  1  0.07388159  0.89588101  0.59059788  1
  Te  Te107  1  0.09472678  0.92532003  0.94089431  1
  Te  Te108  1  0.41386080  0.25536506  0.24527951  1
  Te  Te109  1  0.40058330  0.27142090  0.57505973  1
  Te  Te110  1  0.41337322  0.24034839  0.91505007  1
  Te  Te111  1  0.44853772  0.58608844  0.29298486  1
  Te  Te112  1  0.43483622  0.59896319  0.56037114  1
  Te  Te113  1  0.41825480  0.58401471  0.89554875  1
  Te  Te114  1  0.43832588  0.88998781  0.22134738  1
  Te  Te115  1  0.44430649  0.90371468  0.56425135  1
  Te  Te116  1  0.42654438  0.89966945  0.93435516  1
  Te  Te117  1  0.79944349  0.23347190  0.26162514  1
  Te  Te118  1  0.73000590  0.25249664  0.57779965  1
  Te  Te119  1  0.73656917  0.23995645  0.91536547  1
  Te  Te120  1  0.68343339  0.58574094  0.22607568  1
  Te  Te121  1  0.74054441  0.59965673  0.59210156  1
  Te  Te122  1  0.74808473  0.54505415  0.93716986  1
  Te  Te123  1  0.74540749  0.90026416  0.24019931  1
  Te  Te124  1  0.74635961  0.92951804  0.57666326  1
  Te  Te125  1  0.77151593  0.91656579  0.90490028  1
  Te  Te126  1  0.26272936  0.26615662  0.08073724  1
  Te  Te127  1  0.25344845  0.25174510  0.41771902  1
  Te  Te128  1  0.23908354  0.25786073  0.75372411  1
  Te  Te129  1  0.25160055  0.58408907  0.08018780  1
  Te  Te130  1  0.25686178  0.57080784  0.40864092  1
  Te  Te131  1  0.24017536  0.57133971  0.71601418  1
  Te  Te132  1  0.27987064  0.89078274  0.10455829  1
  Te  Te133  1  0.25910066  0.91644307  0.42998928  1
  Te  Te134  1  0.23275556  0.94137009  0.74054245  1
  Te  Te135  1  0.60834216  0.23747942  0.11201220  1
  Te  Te136  1  0.60411375  0.26087208  0.37582204  1
  Te  Te137  1  0.59184614  0.26039495  0.74205082  1
  Te  Te138  1  0.63868106  0.62037025  0.01727895  1
  Te  Te139  1  0.57081188  0.57008576  0.40677596  1
  Te  Te140  1  0.59008765  0.60290566  0.75005918  1
  Te  Te141  1  0.55404541  0.93024157  0.12385680  1
  Te  Te142  1  0.59684872  0.97385652  0.38728691  1
  Te  Te143  1  0.59307059  0.92412768  0.74224275  1
  Te  Te144  1  0.88716127  0.27800537  0.10119448  1
  Te  Te145  1  0.87414558  0.23596630  0.40005238  1
  Te  Te146  1  0.91081784  0.26813300  0.74137560  1
  Te  Te147  1  0.89146696  0.58398124  0.08957951  1
  Te  Te148  1  0.90182338  0.57380398  0.40709922  1
  Te  Te149  1  0.90738283  0.58108907  0.75912952  1
  Te  Te150  1  0.93010147  0.92435172  0.09442583  1
  Te  Te151  1  0.91611765  0.89846630  0.42575634  1
  Te  Te152  1  0.93725649  0.92408006  0.76428119  1
  Te  Te153  1  0.26253823  0.06183069  0.27427480  1
  Te  Te154  1  0.28127189  0.08941173  0.56030159  1
  Te  Te155  1  0.24882336  0.08654619  0.91309476  1
  Te  Te156  1  0.24225488  0.43685904  0.23973811  1
  Te  Te157  1  0.22526854  0.43517372  0.55970547  1
  Te  Te158  1  0.24679203  0.39317510  0.90317322  1
  Te  Te159  1  0.28262993  0.73739642  0.24851036  1
  Te  Te160  1  0.27311747  0.74763638  0.57505862  1
  Te  Te161  1  0.24008704  0.76212255  0.92982701  1
  Te  Te162  1  0.53604341  0.08439620  0.28259779  1
  Te  Te163  1  0.54601547  0.09386784  0.56081552  1
  Te  Te164  1  0.57412773  0.06150113  0.91942636  1
  Te  Te165  1  0.60934213  0.42872740  0.22041849  1
  Te  Te166  1  0.59041197  0.41102481  0.57888604  1
  Te  Te167  1  0.56845987  0.41487204  0.93717661  1
  Te  Te168  1  0.55607549  0.77663204  0.28422546  1
  Te  Te169  1  0.59047478  0.74193300  0.54642559  1
  Te  Te170  1  0.57140462  0.71735848  0.91777056  1
  Te  Te171  1  0.91998046  0.09341827  0.24796362  1
  Te  Te172  1  0.89119056  0.07548114  0.54709504  1
  Te  Te173  1  0.95324339  0.15369369  0.91856103  1
  Te  Te174  1  0.90423284  0.41270414  0.25999734  1
  Te  Te175  1  0.93772853  0.42957499  0.56580091  1
  Te  Te176  1  0.90285238  0.41718464  0.94770272  1
  Te  Te177  1  0.91663796  0.75469948  0.24165032  1
  Te  Te178  1  0.89708407  0.74367950  0.59410861  1
  Te  Te179  1  0.92402131  0.74477340  0.90987955  1
