# generated using pymatgen
data_In2Te3
_symmetry_space_group_name_H-M   'P 1'
_cell_length_a   18.99866961
_cell_length_b   18.98093521
_cell_length_c   18.95379537
_cell_angle_alpha   90.16580830
_cell_angle_beta   89.94511910
_cell_angle_gamma   89.97639838
_symmetry_Int_Tables_number   1
_chemical_formula_structural   In2Te3
_chemical_formula_sum   'In72 Te108'
_cell_volume   6834.94350995
_cell_formula_units_Z   36
loop_
 _symmetry_equiv_pos_site_id
 _symmetry_equiv_pos_as_xyz
  1  'x, y, z'
loop_
 _atom_site_type_symbol
 _atom_site_label
 _atom_site_symmetry_multiplicity
 _atom_site_fract_x
 _atom_site_fract_y
 _atom_site_fract_z
 _atom_site_occupancy
  In  In0  1  0.84805010  0.33966263  0.81418682  1
  In  In1  1  0.49216839  0.32968679  0.14377829  1
  In  In2  1  0.84348927  0.17819425  0.00024266  1
  In  In3  1  0.16576000  0.83342945  -0.00745425  1
  In  In4  1  0.49244165  0.50087980  0.64529147  1
  In  In5  1  0.31417803  0.34174296  0.33085032  1
  In  In6  1  0.67529900  -0.00959292  -0.02653664  1
  In  In7  1  0.16228180  0.66031258  0.20433682  1
  In  In8  1  0.65881191  -0.02113870  0.34151168  1
  In  In9  1  -0.00638266  0.69264139  0.01580332  1
  In  In10  1  0.63936601  0.81520590  0.15216638  1
  In  In11  1  0.16759168  0.18136334  0.34518337  1
  In  In12  1  0.81348593  0.54764325  0.68617370  1
  In  In13  1  -0.00713582  -0.00900606  0.66419339  1
  In  In14  1  0.82710498  -0.00281330  0.18925182  1
  In  In15  1  0.50494247  0.13125155  0.33223618  1
  In  In16  1  0.16269984  0.18840757  0.67173969  1
  In  In17  1  0.83878886  0.32522482  0.51645638  1
  In  In18  1  0.14372966  0.82061305  0.35639709  1
  In  In19  1  0.17610301  0.63333060  0.48267205  1
  In  In20  1  0.48711908  0.50688738  0.02780541  1
  In  In21  1  0.52572699  0.14554168  0.67502495  1
  In  In22  1  0.49242594  0.31082029  0.82975516  1
  In  In23  1  0.04744923  0.51163223  0.41400001  1
  In  In24  1  0.39401782  0.83617568  0.87226006  1
  In  In25  1  0.65675642  0.82018095  0.48814656  1
  In  In26  1  0.34650354  0.16496241  0.82289519  1
  In  In27  1  0.84078250  -0.03770330  0.47273803  1
  In  In28  1  0.84305157  0.81443519  0.63457282  1
  In  In29  1  0.00563155  0.34093426  0.66670191  1
  In  In30  1  0.69355436  0.34169682  0.00498943  1
  In  In31  1  0.16254090  0.49467346  -0.01205028  1
  In  In32  1  0.17966052  0.02101768  0.84628743  1
  In  In33  1  0.50856602  0.31186265  0.49801253  1
  In  In34  1  0.34128464  0.83193200  0.14646014  1
  In  In35  1  0.66251312  0.66579077  0.33167818  1
  In  In36  1  -0.01673880  0.50793967  0.82580306  1
  In  In37  1  0.33495776  0.34329768  0.66211583  1
  In  In38  1  0.65769926  0.65948245  0.00350968  1
  In  In39  1  0.33370013  -0.01394694  0.66777775  1
  In  In40  1  -0.03215956  0.82572665  0.23434761  1
  In  In41  1  0.80972463  0.85050311  0.00610858  1
  In  In42  1  0.84602376  0.18116530  0.32960467  1
  In  In43  1  0.17122384  0.49399385  0.66957941  1
  In  In44  1  0.67279241  0.14153120  0.52811187  1
  In  In45  1  0.49881712  0.67181321  0.50441290  1
  In  In46  1  0.15506698  0.84083394  0.62448262  1
  In  In47  1  0.31858052  0.66820673  0.00088128  1
  In  In48  1  0.16224155  0.02389230  0.51446468  1
  In  In49  1  0.80972344  0.13216866  0.69242739  1
  In  In50  1  0.51442355  0.85892347  0.67935424  1
  In  In51  1  0.49758117  0.66430539  0.83672696  1
  In  In52  1  0.16132953  0.66402823  0.80354730  1
  In  In53  1  0.49545474  0.09454749  -0.01879476  1
  In  In54  1  -0.01561338  0.02423246  0.01825338  1
  In  In55  1  0.83982021  0.51708068  0.02252358  1
  In  In56  1  0.67049431  0.50725559  0.52002013  1
  In  In57  1  0.01390195  0.19101913  0.15503416  1
  In  In58  1  0.33002567  0.34662532  -0.00310641  1
  In  In59  1  -0.00635857  0.83335514  0.82141562  1
  In  In60  1  0.02470590  0.48704526  0.17902657  1
  In  In61  1  0.00275693  0.19097620  0.87771684  1
  In  In62  1  0.34292728  -0.01102129  0.32461113  1
  In  In63  1  0.18015571  -0.01576008  0.15433886  1
  In  In64  1  0.46990962  0.49832949  0.31572326  1
  In  In65  1  0.64761396  0.50751559  0.84919963  1
  In  In66  1  0.00491779  0.17326232  0.51719254  1
  In  In67  1  0.67010455  0.15964750  0.19097981  1
  In  In68  1  0.65921631  0.34018649  0.32090355  1
  In  In69  1  0.34096535  0.18997365  0.16638975  1
  In  In70  1  0.84647832  0.52399005  0.31321059  1
  In  In71  1  0.32877936  0.79902645  0.47370683  1
  Te  Te72  1  0.10447683  0.09090737  0.07694621  1
  Te  Te73  1  0.06886845  0.08484812  0.41175603  1
  Te  Te74  1  0.08099136  0.08421258  0.74712553  1
  Te  Te75  1  0.07515312  0.39975636  0.06370770  1
  Te  Te76  1  0.13183588  0.39658787  0.36552927  1
  Te  Te77  1  0.08526997  0.41160179  0.77268423  1
  Te  Te78  1  0.09529687  0.76098734  0.10394709  1
  Te  Te79  1  0.06470881  0.73163052  0.44679275  1
  Te  Te80  1  0.07229816  0.75296801  0.71942700  1
  Te  Te81  1  0.42857195  0.08626245  0.11167795  1
  Te  Te82  1  0.40872899  0.07455009  0.42520200  1
  Te  Te83  1  0.43070720  0.05747739  0.75866573  1
  Te  Te84  1  0.38612071  0.43288164  0.11203509  1
  Te  Te85  1  0.41731769  0.40805182  0.42710632  1
  Te  Te86  1  0.42249100  0.42217631  0.75836797  1
  Te  Te87  1  0.42854350  0.73800457  0.07043923  1
  Te  Te88  1  0.43262409  0.73762303  0.38880527  1
  Te  Te89  1  0.41812327  0.75962504  0.74614101  1
  Te  Te90  1  0.75486758  0.07870610  0.08385293  1
  Te  Te91  1  0.75943128  0.08130727  0.40508862  1
  Te  Te92  1  0.69606036  0.05879250  0.75141411  1
  Te  Te93  1  0.72944997  0.45188096  0.09517944  1
  Te  Te94  1  0.74311797  0.40583140  0.42871437  1
  Te  Te95  1  0.74234174  0.43102973  0.75686815  1
  Te  Te96  1  0.75653827  0.73902813  0.09196775  1
  Te  Te97  1  0.76239748  0.74654451  0.41065220  1
  Te  Te98  1  0.78471700  0.70187003  0.71505987  1
  Te  Te99  1  0.09160128  0.27169893  0.25517276  1
  Te  Te100  1  0.10202546  0.27953619  0.56672499  1
  Te  Te101  1  0.07743789  0.27802339  0.96449652  1
  Te  Te102  1  0.05310981  0.59685411  0.28295467  1
  Te  Te103  1  0.07833997  0.55068382  0.56499038  1
  Te  Te104  1  0.07355376  0.60576625  0.91797266  1
  Te  Te105  1  0.08779816  0.92155576  0.25489931  1
  Te  Te106  1  0.05170409  0.91976468  0.54528230  1
  Te  Te107  1  0.06963724  0.92697600  0.92129845  1
  Te  Te108  1  0.44190380  0.25641199  0.26808481  1
  Te  Te109  1  0.42613947  0.23884091  0.60083026  1
  Te  Te110  1  0.42810456  0.23360647  0.94276088  1
  Te  Te111  1  0.37375789  0.59539523  0.26425958  1
  Te  Te112  1  0.40109285  0.58518513  0.57000255  1
  Te  Te113  1  0.40684556  0.57531604  0.91895142  1
  Te  Te114  1  0.42774208  0.90687991  0.23905578  1
  Te  Te115  1  0.40251700  0.88943147  0.57644750  1
  Te  Te116  1  0.46052677  0.95001599  0.93360927  1
  Te  Te117  1  0.76499919  0.26936867  0.23680315  1
  Te  Te118  1  0.74943059  0.24458519  0.60871821  1
  Te  Te119  1  0.75747764  0.25297989  0.89931141  1
  Te  Te120  1  0.73058688  0.57282703  0.23916164  1
  Te  Te121  1  0.74869491  0.62095482  0.57285366  1
  Te  Te122  1  0.75925678  0.58692077  0.91391403  1
  Te  Te123  1  0.73704240  0.89255448  0.24508435  1
  Te  Te124  1  0.74351852  0.91382981  0.57434594  1
  Te  Te125  1  0.72984998  0.88327400  0.88349828  1
  Te  Te126  1  0.24781754  0.27811974  0.09810102  1
  Te  Te127  1  0.27576420  0.23755560  0.42534623  1
  Te  Te128  1  0.24874231  0.26602048  0.76742661  1
  Te  Te129  1  0.23126335  0.58400565  0.09085630  1
  Te  Te130  1  0.26940528  0.58009322  0.37712714  1
  Te  Te131  1  0.26349059  0.58076097  0.74429661  1
  Te  Te132  1  0.27159408  0.92597000  0.04823352  1
  Te  Te133  1  0.23970272  0.92310199  0.42908943  1
  Te  Te134  1  0.22002828  0.91915738  0.74074210  1
  Te  Te135  1  0.60414127  0.24612621  0.08506426  1
  Te  Te136  1  0.60757078  0.22703505  0.41168284  1
  Te  Te137  1  0.59659507  0.25254912  0.74711549  1
  Te  Te138  1  0.54980117  0.61962092  0.09937436  1
  Te  Te139  1  0.57548963  0.56166741  0.41597112  1
  Te  Te140  1  0.58170647  0.58498386  0.73756825  1
  Te  Te141  1  0.57909705  0.90528001  0.04966462  1
  Te  Te142  1  0.56341681  0.92311628  0.43744158  1
  Te  Te143  1  0.61789229  0.92482379  0.76127495  1
  Te  Te144  1  0.91254572  0.27316978  0.08655426  1
  Te  Te145  1  0.93623967  0.26652965  0.41643873  1
  Te  Te146  1  0.93003941  0.22995009  0.74047630  1
  Te  Te147  1  0.93318084  0.59558571  0.11191929  1
  Te  Te148  1  0.90752094  0.54386242  0.44480341  1
  Te  Te149  1  0.92910514  0.61952641  0.74724986  1
  Te  Te150  1  0.92424677  0.91010891  0.09769813  1
  Te  Te151  1  0.91425745  0.89121667  0.36567787  1
  Te  Te152  1  0.89269976  0.91630424  0.74566787  1
  Te  Te153  1  0.24965763  0.08553756  0.24705192  1
  Te  Te154  1  0.26229169  0.10110384  0.59705276  1
  Te  Te155  1  0.26319501  0.10570450  0.92913813  1
  Te  Te156  1  0.23710949  0.46052779  0.27927711  1
  Te  Te157  1  0.25523225  0.42351720  0.57087681  1
  Te  Te158  1  0.25960840  0.43054205  0.90005703  1
  Te  Te159  1  0.24579731  0.77530695  0.25441891  1
  Te  Te160  1  0.24732501  0.72955794  0.58084076  1
  Te  Te161  1  0.25430094  0.76273616  0.89098613  1
  Te  Te162  1  0.57859399  0.04684515  0.22893946  1
  Te  Te163  1  0.56302590  0.05253622  0.56435040  1
  Te  Te164  1  0.61597973  0.10106985  0.89362642  1
  Te  Te165  1  0.57423848  0.42508669  0.23056600  1
  Te  Te166  1  0.59115386  0.39875821  0.59116829  1
  Te  Te167  1  0.56853400  0.41156736  0.93669639  1
  Te  Te168  1  0.56643336  0.75869010  0.26862024  1
  Te  Te169  1  0.58679119  0.74889977  0.60174123  1
  Te  Te170  1  0.59944968  0.74743824  0.90095491  1
  Te  Te171  1  0.93144152  0.09109629  0.24246697  1
  Te  Te172  1  0.89878246  0.07952197  0.57312766  1
  Te  Te173  1  0.90340310  0.07747746  0.90233197  1
  Te  Te174  1  0.91828295  0.41422158  0.24814426  1
  Te  Te175  1  0.89608318  0.42625664  0.61271867  1
  Te  Te176  1  0.91084379  0.42111442  0.92486625  1
  Te  Te177  1  0.88265034  0.73634971  0.31078407  1
  Te  Te178  1  0.94954293  0.76828210  0.54562957  1
  Te  Te179  1  0.90288498  0.76060137  0.91804128  1
