# generated using pymatgen
data_In2Te3
_symmetry_space_group_name_H-M   'P 1'
_cell_length_a   18.75344397
_cell_length_b   18.74710488
_cell_length_c   18.74935763
_cell_angle_alpha   90.01939069
_cell_angle_beta   90.05119366
_cell_angle_gamma   89.98271101
_symmetry_Int_Tables_number   1
_chemical_formula_structural   In2Te3
_chemical_formula_sum   'In72 Te108'
_cell_volume   6591.76049516
_cell_formula_units_Z   36
loop_
 _symmetry_equiv_pos_site_id
 _symmetry_equiv_pos_as_xyz
  1  'x, y, z'
loop_
 _atom_site_type_symbol
 _atom_site_label
 _atom_site_symmetry_multiplicity
 _atom_site_fract_x
 _atom_site_fract_y
 _atom_site_fract_z
 _atom_site_occupancy
  In  In0  1  0.33848101  0.32973480  0.35053533  1
  In  In1  1  0.80823379  0.34627255  0.48530504  1
  In  In2  1  0.50757616  0.64974860  0.49785773  1
  In  In3  1  0.82656289  -0.00392832  0.16023005  1
  In  In4  1  0.54280499  0.03320905  0.51240344  1
  In  In5  1  0.67516195  0.65845061  0.66439553  1
  In  In6  1  0.68090291  0.16279658  0.15968276  1
  In  In7  1  0.82656499  0.51429572  0.68871726  1
  In  In8  1  0.67085248  0.65588395  -0.00231313  1
  In  In9  1  0.51451009  0.00871582  0.80643873  1
  In  In10  1  0.34866341  0.34851746  0.00740484  1
  In  In11  1  0.53520296  0.82480650  0.00997640  1
  In  In12  1  0.81526820  0.34652815  0.81662536  1
  In  In13  1  0.82952633  0.17860149  0.33811036  1
  In  In14  1  0.33493924  0.48462196  0.16787923  1
  In  In15  1  0.32009547  0.66897186  0.64113823  1
  In  In16  1  0.16379794  0.15557293  -0.01504824  1
  In  In17  1  0.51988877  0.81576790  0.33901052  1
  In  In18  1  0.68433518  0.00058525  0.32524668  1
  In  In19  1  -0.03402914  -0.00904158  0.35617093  1
  In  In20  1  0.36046028  0.02766345  0.35783211  1
  In  In21  1  0.34887706  0.82436967  0.17264340  1
  In  In22  1  0.16542093  0.20460610  0.33179446  1
  In  In23  1  0.34490254  0.86230637  0.81979660  1
  In  In24  1  -0.01227059  0.01898365  0.00770543  1
  In  In25  1  0.01372847  -0.00556019  0.67206378  1
  In  In26  1  -0.01713190  0.66629074  -0.02471101  1
  In  In27  1  0.00065887  0.33761928  0.66887023  1
  In  In28  1  0.81516362  -0.00151195  0.86120697  1
  In  In29  1  0.81984871  0.81821262  0.65405678  1
  In  In30  1  0.51244634  0.17845961  -0.01269530  1
  In  In31  1  0.33283529  0.49033552  0.50132082  1
  In  In32  1  0.34512309  0.18790136  0.19836527  1
  In  In33  1  0.14757484  0.64267734  0.18360086  1
  In  In34  1  0.33590662  0.65022234  -0.01267498  1
  In  In35  1  0.17848494  -0.00129454  0.81537046  1
  In  In36  1  0.83087141  0.34147593  0.18326353  1
  In  In37  1  0.35047482  0.47591749  0.82361380  1
  In  In38  1  0.34462766  0.00458553  0.68340526  1
  In  In39  1  0.16428454  0.33998875  0.81894868  1
  In  In40  1  0.81557827  0.19070245  0.66430923  1
  In  In41  1  0.67156393  0.17247518  0.82832167  1
  In  In42  1  0.66457741  0.33454802  -0.00880943  1
  In  In43  1  0.15692722  0.00581260  0.15203577  1
  In  In44  1  0.53377955  0.64047005  0.19050979  1
  In  In45  1  0.16932472  0.49695861  0.64034351  1
  In  In46  1  0.13555593  0.65517599  0.82074014  1
  In  In47  1  -0.01370519  0.81499431  0.83467649  1
  In  In48  1  0.14753104  0.81050293  -0.00892787  1
  In  In49  1  -0.00795887  0.51031755  0.47283959  1
  In  In50  1  0.31742887  0.63724171  0.33631862  1
  In  In51  1  0.32489571  0.82650557  0.52681125  1
  In  In52  1  0.16240796  0.33637132  0.17611234  1
  In  In53  1  0.81870162  0.50131792  -0.01016127  1
  In  In54  1  0.52210020  0.33733401  0.81805624  1
  In  In55  1  -0.04406663  0.82091507  0.19446678  1
  In  In56  1  0.81561899  0.66680203  0.17577611  1
  In  In57  1  0.50767380  0.19622165  0.34386794  1
  In  In58  1  0.51906479  0.64520941  0.82376068  1
  In  In59  1  0.67626036  0.66372279  0.34319183  1
  In  In60  1  -0.00766514  0.48147212  0.18568329  1
  In  In61  1  0.82288945  -0.01779731  0.50759860  1
  In  In62  1  0.51603224  0.82754574  0.66111890  1
  In  In63  1  0.51444684  0.34305879  0.53197327  1
  In  In64  1  0.52286806  -0.01634837  0.14108923  1
  In  In65  1  -0.02742631  0.33827402  0.00428901  1
  In  In66  1  0.13344680  0.82589499  0.35680219  1
  In  In67  1  -0.03732160  0.80553184  0.50599873  1
  In  In68  1  -0.00618593  0.18715636  0.50398600  1
  In  In69  1  0.16716901  -0.00271338  0.49895630  1
  In  In70  1  0.32771222  0.01869499  -0.01187168  1
  In  In71  1  0.15709107  0.18572889  0.66460508  1
  Te  Te72  1  0.06652821  0.11598744  0.09744380  1
  Te  Te73  1  0.07629261  0.08667797  0.41178766  1
  Te  Te74  1  0.07530470  0.10037800  0.76224600  1
  Te  Te75  1  0.08189750  0.41961064  0.07584534  1
  Te  Te76  1  0.10069846  0.44116467  0.39795479  1
  Te  Te77  1  0.07420961  0.44374136  0.75104396  1
  Te  Te78  1  0.06614111  0.74687733  0.10338022  1
  Te  Te79  1  0.05022727  0.72027491  0.41640398  1
  Te  Te80  1  0.07007835  0.75116546  0.73209730  1
  Te  Te81  1  0.41554590  0.09185793  0.09175087  1
  Te  Te82  1  0.42307239  0.12731471  0.46205583  1
  Te  Te83  1  0.43025589  0.11087144  0.74067147  1
  Te  Te84  1  0.44553042  0.42931718  0.08431736  1
  Te  Te85  1  0.44008430  0.42061761  0.41889026  1
  Te  Te86  1  0.42722148  0.40149959  0.72162870  1
  Te  Te87  1  0.43024680  0.72884748  0.08127022  1
  Te  Te88  1  0.40833746  0.74439478  0.41682031  1
  Te  Te89  1  0.41844946  0.74445683  0.74624133  1
  Te  Te90  1  0.75974268  0.08631911  0.06238320  1
  Te  Te91  1  0.74555761  0.09186915  0.43155331  1
  Te  Te92  1  0.75064501  0.07482524  0.73865997  1
  Te  Te93  1  0.73725075  0.42414963  0.09227703  1
  Te  Te94  1  0.71941916  0.44001790  0.40880814  1
  Te  Te95  1  0.72283232  0.40416940  0.71411767  1
  Te  Te96  1  0.76172866  0.75177877  0.06761178  1
  Te  Te97  1  0.78431675  0.73835025  0.41311008  1
  Te  Te98  1  0.75958249  0.73404216  0.76213743  1
  Te  Te99  1  0.05837788  0.26073906  0.24935934  1
  Te  Te100  1  0.09562011  0.28403534  0.56116483  1
  Te  Te101  1  0.07625655  0.25984349  0.91608744  1
  Te  Te102  1  0.08626851  0.55088554  0.28651522  1
  Te  Te103  1  0.05913779  0.57968519  0.58720969  1
  Te  Te104  1  0.09546548  0.57856005  0.93891491  1
  Te  Te105  1  0.07053813  0.92057364  0.24691868  1
  Te  Te106  1  0.07197343  0.90028577  0.56811114  1
  Te  Te107  1  0.08421016  0.92897324  0.91539699  1
  Te  Te108  1  0.44494267  0.29344174  0.24229675  1
  Te  Te109  1  0.40845023  0.24331812  0.56103564  1
  Te  Te110  1  0.41465956  0.25734435  0.90435881  1
  Te  Te111  1  0.42866037  0.56014103  0.26769134  1
  Te  Te112  1  0.42693343  0.56980486  0.59702376  1
  Te  Te113  1  0.43818503  0.55891717  0.92039863  1
  Te  Te114  1  0.43001527  0.92508509  0.25848290  1
  Te  Te115  1  0.43045949  0.93054056  0.57178625  1
  Te  Te116  1  0.43325398  0.91951712  0.93233855  1
  Te  Te117  1  0.72472238  0.26264815  0.26608707  1
  Te  Te118  1  0.72210649  0.25100332  0.56437108  1
  Te  Te119  1  0.76738266  0.24607716  0.92191579  1
  Te  Te120  1  0.73844073  0.55808123  0.24823633  1
  Te  Te121  1  0.77459647  0.59318123  0.57024664  1
  Te  Te122  1  0.74443297  0.58108661  0.88990280  1
  Te  Te123  1  0.75459499  0.89744216  0.24577302  1
  Te  Te124  1  0.72292784  0.91337951  0.59161819  1
  Te  Te125  1  0.72416109  0.91217813  0.93606352  1
  Te  Te126  1  0.25472150  0.24237291  0.08390817  1
  Te  Te127  1  0.25643911  0.24436838  0.44088540  1
  Te  Te128  1  0.26103546  0.26901523  0.73152398  1
  Te  Te129  1  0.24334658  0.57525618  0.08362018  1
  Te  Te130  1  0.23147843  0.58543013  0.44430865  1
  Te  Te131  1  0.25904160  0.58174575  0.75388848  1
  Te  Te132  1  0.25137794  0.91244762  0.07366200  1
  Te  Te133  1  0.25802155  0.91501240  0.40565836  1
  Te  Te134  1  0.23566178  0.89605756  0.71814712  1
  Te  Te135  1  0.57978462  0.26082002  0.09552620  1
  Te  Te136  1  0.60261058  0.26484507  0.43465343  1
  Te  Te137  1  0.57954516  0.22953676  0.72260303  1
  Te  Te138  1  0.58514943  0.56201186  0.07678537  1
  Te  Te139  1  0.59605132  0.55563422  0.41874361  1
  Te  Te140  1  0.58397170  0.55282335  0.72452296  1
  Te  Te141  1  0.63941401  0.91907386  0.06917088  1
  Te  Te142  1  0.59738002  0.91721120  0.42264721  1
  Te  Te143  1  0.60488735  0.90845552  0.74715337  1
  Te  Te144  1  0.89162327  0.24637616  0.08561529  1
  Te  Te145  1  0.92367242  0.27926045  0.40629517  1
  Te  Te146  1  0.91972971  0.24680895  0.76039185  1
  Te  Te147  1  0.91673018  0.57711222  0.08825571  1
  Te  Te148  1  0.89552906  0.61117966  0.40784878  1
  Te  Te149  1  0.92734521  0.55671333  0.78819996  1
  Te  Te150  1  0.91146952  0.90327724  0.06957468  1
  Te  Te151  1  0.86983023  0.87634405  0.39994621  1
  Te  Te152  1  0.90654934  0.91754059  0.74800059  1
  Te  Te153  1  0.24632177  0.07887757  0.25433417  1
  Te  Te154  1  0.24837159  0.08478340  0.59122202  1
  Te  Te155  1  0.26586916  0.10707460  0.88025146  1
  Te  Te156  1  0.24133903  0.42369620  0.27502400  1
  Te  Te157  1  0.26592856  0.39395345  0.59487846  1
  Te  Te158  1  0.24591517  0.42253452  0.92247167  1
  Te  Te159  1  0.23912721  0.75083278  0.25451654  1
  Te  Te160  1  0.21514173  0.73226782  0.55788632  1
  Te  Te161  1  0.26014094  0.75588099  0.90269342  1
  Te  Te162  1  0.57452571  0.08523989  0.25458944  1
  Te  Te163  1  0.60475878  0.11138836  0.61967817  1
  Te  Te164  1  0.59638503  0.07283816  0.92040857  1
  Te  Te165  1  0.62518324  0.45628369  0.28548692  1
  Te  Te166  1  0.60259181  0.43284102  0.61502651  1
  Te  Te167  1  0.60075503  0.43233722  0.90074897  1
  Te  Te168  1  0.61182570  0.76392658  0.23190621  1
  Te  Te169  1  0.60170946  0.75023444  0.56111730  1
  Te  Te170  1  0.59886725  0.75485794  0.89156903  1
  Te  Te171  1  0.91408598  0.08698094  0.24954735  1
  Te  Te172  1  0.91742720  0.08334859  0.58538994  1
  Te  Te173  1  0.91784062  0.09582773  0.90328926  1
  Te  Te174  1  0.89568768  0.42921134  0.28494614  1
  Te  Te175  1  0.90403253  0.41919204  0.58304358  1
  Te  Te176  1  0.92177866  0.43898773  0.88935228  1
  Te  Te177  1  0.92569453  0.69797387  0.27782225  1
  Te  Te178  1  0.89545795  0.70175174  0.59318030  1
  Te  Te179  1  0.87825927  0.74934273  0.91159062  1
