# generated using pymatgen
data_In2Te3
_symmetry_space_group_name_H-M   'P 1'
_cell_length_a   18.94746739
_cell_length_b   18.92363474
_cell_length_c   18.92943758
_cell_angle_alpha   90.04415813
_cell_angle_beta   89.99845743
_cell_angle_gamma   89.99571703
_symmetry_Int_Tables_number   1
_chemical_formula_structural   In2Te3
_chemical_formula_sum   'In72 Te108'
_cell_volume   6787.24155192
_cell_formula_units_Z   36
loop_
 _symmetry_equiv_pos_site_id
 _symmetry_equiv_pos_as_xyz
  1  'x, y, z'
loop_
 _atom_site_type_symbol
 _atom_site_label
 _atom_site_symmetry_multiplicity
 _atom_site_fract_x
 _atom_site_fract_y
 _atom_site_fract_z
 _atom_site_occupancy
  In  In0  1  0.82607779  0.82166339  -0.01223756  1
  In  In1  1  0.34965924  0.15631094  0.51002970  1
  In  In2  1  0.00192914  0.83218976  0.12965868  1
  In  In3  1  0.51730572  0.49006304  0.04758291  1
  In  In4  1  0.49791197  0.49660841  0.65547303  1
  In  In5  1  0.84856646  0.16943810  0.00301537  1
  In  In6  1  0.84961772  0.63176170  0.81459222  1
  In  In7  1  -0.00500248  0.01400020  -0.00331611  1
  In  In8  1  0.02421182  0.35573022  0.34084306  1
  In  In9  1  0.68392374  0.87617676  0.78115218  1
  In  In10  1  0.84020963  0.49457723  0.65012800  1
  In  In11  1  0.49729977  0.67634695  0.51177389  1
  In  In12  1  0.80806491  0.66026771  0.16561822  1
  In  In13  1  0.14836167  0.68907350  0.82210036  1
  In  In14  1  0.67827320  0.00588582  0.00064358  1
  In  In15  1  0.85872706  0.34173738  0.82709558  1
  In  In16  1  0.23600989  0.38819280  0.43876412  1
  In  In17  1  0.65184143  0.68510861  0.67733000  1
  In  In18  1  0.17972159  0.84009859  0.00058965  1
  In  In19  1  0.67138807  -0.01220945  0.33640890  1
  In  In20  1  0.49951358  0.82539784  0.00615039  1
  In  In21  1  0.17458201  0.81165335  0.33713045  1
  In  In22  1  0.50625617  0.17964001  0.35299751  1
  In  In23  1  0.68375957  0.33875957  0.64303771  1
  In  In24  1  0.49243174  0.81736015  0.66933628  1
  In  In25  1  0.80748914  0.15859464  0.64924949  1
  In  In26  1  0.51942797  0.15765084  0.64396903  1
  In  In27  1  0.33071653  0.34660637  0.00529002  1
  In  In28  1  0.65158131  0.50252873  0.85653040  1
  In  In29  1  0.48986126  0.31751766  0.80743948  1
  In  In30  1  0.33290794  -0.00241504  0.67928711  1
  In  In31  1  0.00529147  0.68644611  0.00241735  1
  In  In32  1  0.67802091  0.48709204  0.47492396  1
  In  In33  1  0.14611016  0.17505803  0.66905678  1
  In  In34  1  0.83684914  0.67262032  0.50033252  1
  In  In35  1  0.66123605  0.66889417  0.32345378  1
  In  In36  1  0.34237931  0.66944916  0.03498950  1
  In  In37  1  0.18563602  -0.00768838  0.16134951  1
  In  In38  1  0.14559101  0.20079341  0.00482338  1
  In  In39  1  0.24757729  0.60935181  0.26136010  1
  In  In40  1  0.14702249  0.59110106  0.47767749  1
  In  In41  1  0.01010786  0.49156145  0.15738356  1
  In  In42  1  0.31392160  0.30927154  0.65638602  1
  In  In43  1  0.17669651  0.84476181  0.64720595  1
  In  In44  1  0.51165025  0.16504495  0.03282178  1
  In  In45  1  0.48668413  0.68446986  0.87406212  1
  In  In46  1  -0.00867500  0.64480040  0.33860585  1
  In  In47  1  -0.01394684  -0.00890812  0.33249042  1
  In  In48  1  0.52852194  -0.00563280  0.49504204  1
  In  In49  1  0.15304423  0.00968035  0.82861193  1
  In  In50  1  0.31643974  0.14615869  0.85682132  1
  In  In51  1  0.32976407  0.64478312  0.65017807  1
  In  In52  1  0.16591751  0.51721971  0.00185654  1
  In  In53  1  0.48339891  -0.02517106  0.20249278  1
  In  In54  1  0.16173776  0.15525502  0.33167623  1
  In  In55  1  0.66691124  0.31716405  0.02106420  1
  In  In56  1  0.85660384  0.47600020  -0.03234432  1
  In  In57  1  -0.01498271  0.16915562  0.50570907  1
  In  In58  1  0.52245363  -0.00360458  0.86370093  1
  In  In59  1  0.50806111  0.37230473  0.24200175  1
  In  In60  1  0.81652319  0.33595050  0.18006080  1
  In  In61  1  0.31153361  0.52890360  0.83827536  1
  In  In62  1  0.81191120  0.15985440  0.33782375  1
  In  In63  1  0.33878702  0.82907031  0.46189428  1
  In  In64  1  -0.01049814  0.47621897  0.80595373  1
  In  In65  1  0.63248281  0.65441636  0.02352752  1
  In  In66  1  0.36790014  0.00579886  0.00433489  1
  In  In67  1  0.83311197  0.83790467  0.31959300  1
  In  In68  1  -0.01014434  0.84268873  0.51638589  1
  In  In69  1  -0.02934772  0.87960514  0.78907624  1
  In  In70  1  -0.00484469  0.18129750  0.20401990  1
  In  In71  1  -0.00728506  0.34334934  0.63878735  1
  Te  Te72  1  0.07288766  0.08731667  0.10514993  1
  Te  Te73  1  0.07354381  0.07357778  0.42385818  1
  Te  Te74  1  0.06055694  0.07995041  0.74124262  1
  Te  Te75  1  0.11067914  0.41095347  0.08804590  1
  Te  Te76  1  0.09526293  0.45110812  0.43356445  1
  Te  Te77  1  0.09005120  0.40150256  0.73274192  1
  Te  Te78  1  0.11504698  0.73661720  0.09323509  1
  Te  Te79  1  0.07076095  0.74152914  0.42540761  1
  Te  Te80  1  0.06695306  0.77533018  0.72906265  1
  Te  Te81  1  0.41334658  0.09038303  0.11946320  1
  Te  Te82  1  0.42015849  0.06359722  0.41494200  1
  Te  Te83  1  0.41426288  0.10588633  0.74748268  1
  Te  Te84  1  0.41010868  0.41325600  0.11627734  1
  Te  Te85  1  0.42745716  0.40777965  0.36791794  1
  Te  Te86  1  0.40170290  0.42985158  0.75490308  1
  Te  Te87  1  0.45661590  0.72624617  0.11377895  1
  Te  Te88  1  0.45143905  0.75836471  0.39685054  1
  Te  Te89  1  0.40127184  0.73092550  0.75424631  1
  Te  Te90  1  0.74021576  0.10991842  0.08245565  1
  Te  Te91  1  0.74168181  0.07422387  0.43649746  1
  Te  Te92  1  0.73803176  0.06358820  0.74093357  1
  Te  Te93  1  0.75558864  0.42882207  0.07181684  1
  Te  Te94  1  0.71439409  0.38359692  0.37056569  1
  Te  Te95  1  0.74458407  0.43047522  0.76022796  1
  Te  Te96  1  0.72781577  0.76005103  0.08576764  1
  Te  Te97  1  0.74579374  0.75773577  0.41443335  1
  Te  Te98  1  0.76583520  0.74470026  0.75443718  1
  Te  Te99  1  0.10983798  0.27202616  0.24784338  1
  Te  Te100  1  0.09362761  0.26172973  0.55685967  1
  Te  Te101  1  0.04110863  0.23524727  0.91233601  1
  Te  Te102  1  0.09210698  0.58405990  0.24511588  1
  Te  Te103  1  0.06887290  0.58090646  0.59765380  1
  Te  Te104  1  0.06541966  0.58273685  0.90003440  1
  Te  Te105  1  0.07896641  0.90751106  0.24195810  1
  Te  Te106  1  0.08429770  0.93572467  0.58008562  1
  Te  Te107  1  0.06912062  0.90205651  0.91638647  1
  Te  Te108  1  0.40703610  0.26606817  0.28211309  1
  Te  Te109  1  0.43392861  0.26469558  0.57507249  1
  Te  Te110  1  0.41801228  0.23981337  0.92472325  1
  Te  Te111  1  0.38733404  0.54728586  0.30040574  1
  Te  Te112  1  0.40634240  0.55785941  0.55168064  1
  Te  Te113  1  0.42333462  0.56203224  0.94122596  1
  Te  Te114  1  0.37305639  0.88416753  0.23820919  1
  Te  Te115  1  0.40750780  0.90958121  0.58035359  1
  Te  Te116  1  0.41199752  0.90288360  0.90149805  1
  Te  Te117  1  0.72226399  0.24861846  0.25694586  1
  Te  Te118  1  0.77907971  0.27089799  0.55387265  1
  Te  Te119  1  0.76200168  0.26285551  0.91340780  1
  Te  Te120  1  0.76484496  0.57176622  0.27494282  1
  Te  Te121  1  0.72409843  0.57911635  0.59427884  1
  Te  Te122  1  0.74631342  0.59705988  0.92760504  1
  Te  Te123  1  0.74496854  0.91324024  0.23183740  1
  Te  Te124  1  0.72704105  0.93952922  0.65034021  1
  Te  Te125  1  0.76479803  0.93082631  0.90177541  1
  Te  Te126  1  0.26347541  0.23842451  0.08092126  1
  Te  Te127  1  0.25407683  0.23559790  0.42441901  1
  Te  Te128  1  0.23751080  0.24422494  0.77156820  1
  Te  Te129  1  0.26350043  0.56635210  0.10709944  1
  Te  Te130  1  0.27784920  0.61021698  0.40991188  1
  Te  Te131  1  0.21674354  0.58432853  0.73377995  1
  Te  Te132  1  0.28983025  0.90032611  0.08771198  1
  Te  Te133  1  0.23195801  0.91916546  0.41777998  1
  Te  Te134  1  0.24832103  0.90827261  0.76770445  1
  Te  Te135  1  0.56591877  0.27252028  0.12150491  1
  Te  Te136  1  0.61130685  0.27184137  0.39948254  1
  Te  Te137  1  0.60318996  0.24742500  0.73668040  1
  Te  Te138  1  0.59487058  0.56878900  0.15024995  1
  Te  Te139  1  0.57681083  0.58313215  0.41782869  1
  Te  Te140  1  0.56426519  0.58758810  0.76335111  1
  Te  Te141  1  0.57301375  0.93170460  0.08445358  1
  Te  Te142  1  0.56747958  0.89591455  0.39266993  1
  Te  Te143  1  0.55593702  0.94597622  0.72602241  1
  Te  Te144  1  0.92290913  0.26307615  0.10013212  1
  Te  Te145  1  0.92642270  0.24716890  0.38981896  1
  Te  Te146  1  0.91199735  0.24718064  0.72480329  1
  Te  Te147  1  0.91366445  0.58592160  0.07082450  1
  Te  Te148  1  0.90748758  0.56624183  0.42969488  1
  Te  Te149  1  0.95064358  0.59035951  0.70077513  1
  Te  Te150  1  0.89677139  0.92565999  0.07548959  1
  Te  Te151  1  0.89210177  0.92388587  0.43006160  1
  Te  Te152  1  0.87481845  0.95611767  0.70384778  1
  Te  Te153  1  0.25829121  0.06861282  0.26185181  1
  Te  Te154  1  0.24447296  0.08365969  0.59286459  1
  Te  Te155  1  0.22975235  0.06309553  0.94970581  1
  Te  Te156  1  0.27771357  0.43497511  0.30237719  1
  Te  Te157  1  0.26298395  0.42231964  0.58053198  1
  Te  Te158  1  0.23663405  0.41705656  0.90770600  1
  Te  Te159  1  0.27733960  0.75998653  0.24134264  1
  Te  Te160  1  0.25638488  0.74589046  0.56518979  1
  Te  Te161  1  0.25460287  0.73111726  0.92431722  1
  Te  Te162  1  0.57699518  0.08062509  0.25926237  1
  Te  Te163  1  0.61451454  0.10697827  0.54161297  1
  Te  Te164  1  0.59691805  0.11327781  0.91776606  1
  Te  Te165  1  0.63505496  0.45610808  0.25186594  1
  Te  Te166  1  0.57635789  0.40781423  0.56142265  1
  Te  Te167  1  0.56647623  0.39562248  0.92182538  1
  Te  Te168  1  0.57107842  0.72609559  0.22146050  1
  Te  Te169  1  0.60022895  0.77760382  0.57025038  1
  Te  Te170  1  0.60061396  0.77474754  0.90422259  1
  Te  Te171  1  0.89612153  0.07313285  0.24255106  1
  Te  Te172  1  0.91162369  0.06858983  0.58709509  1
  Te  Te173  1  0.92489001  0.09752667  0.89726118  1
  Te  Te174  1  0.91699948  0.42441429  0.25620638  1
  Te  Te175  1  0.88938774  0.40067365  0.54716455  1
  Te  Te176  1  0.97229349  0.37858959  0.93083663  1
  Te  Te177  1  0.92535480  0.74468635  0.23110078  1
  Te  Te178  1  0.89300389  0.76592042  0.59751579  1
  Te  Te179  1  0.92155976  0.75041059  0.89202439  1
