# generated using pymatgen
data_In2Te3
_symmetry_space_group_name_H-M   'P 1'
_cell_length_a   18.78003453
_cell_length_b   18.77863092
_cell_length_c   18.77167525
_cell_angle_alpha   90.01312184
_cell_angle_beta   89.95649204
_cell_angle_gamma   90.06408208
_symmetry_Int_Tables_number   1
_chemical_formula_structural   In2Te3
_chemical_formula_sum   'In72 Te108'
_cell_volume   6620.07541547
_cell_formula_units_Z   36
loop_
 _symmetry_equiv_pos_site_id
 _symmetry_equiv_pos_as_xyz
  1  'x, y, z'
loop_
 _atom_site_type_symbol
 _atom_site_label
 _atom_site_symmetry_multiplicity
 _atom_site_fract_x
 _atom_site_fract_y
 _atom_site_fract_z
 _atom_site_occupancy
  In  In0  1  0.65478110  0.52515302  0.50344591  1
  In  In1  1  0.17644939  0.01499916  0.50423173  1
  In  In2  1  0.50653979  0.52015032  0.68708103  1
  In  In3  1  0.00803181  0.17243463  0.50120825  1
  In  In4  1  0.02455614  0.15025426  0.83975088  1
  In  In5  1  0.83352661  0.16003934  0.67017201  1
  In  In6  1  0.83629130  0.69431491  0.82973280  1
  In  In7  1  0.84013959  0.16044816  0.02141718  1
  In  In8  1  0.81766613  0.67414787  0.50962607  1
  In  In9  1  0.66678731  0.52255776  0.15703363  1
  In  In10  1  0.51654439  0.15667616  0.32178392  1
  In  In11  1  0.64035508  0.67598931  0.00320614  1
  In  In12  1  0.66191287  0.82496920  0.16262138  1
  In  In13  1  0.15417406  0.15404522  0.31722940  1
  In  In14  1  0.19261257  0.50023701  0.69004452  1
  In  In15  1  0.65361621  0.00009024  0.64866201  1
  In  In16  1  0.49384039  0.66903068  0.51563535  1
  In  In17  1  0.85431135  0.35357504  0.83420236  1
  In  In18  1  0.14469704  0.34175756  0.14430230  1
  In  In19  1  0.15793403  0.80886236  -0.02301250  1
  In  In20  1  0.34854850  0.69829979  0.02244085  1
  In  In21  1  0.83165801  0.67299943  0.16197787  1
  In  In22  1  0.32442883  0.31395332  0.65895741  1
  In  In23  1  0.82388841  0.49668092  0.64231049  1
  In  In24  1  0.63718501  0.14725881  0.50120738  1
  In  In25  1  0.00147799  0.48175367  0.49724617  1
  In  In26  1  0.16650239  0.84453178  0.32435716  1
  In  In27  1  0.49465522  0.34405987  0.17445192  1
  In  In28  1  0.86060165  -0.04598861  0.80674955  1
  In  In29  1  0.46672803  0.00944980  0.81287455  1
  In  In30  1  0.15817081  0.32739021  0.51796606  1
  In  In31  1  0.35485256  0.34782030  0.35562971  1
  In  In32  1  0.18184076  0.16815667  -0.00054120  1
  In  In33  1  0.85671535  0.33771246  0.16524473  1
  In  In34  1  0.50911848  0.34558249  0.84921670  1
  In  In35  1  0.83372382  -0.00650884  0.49079740  1
  In  In36  1  0.82546154  0.49472737  0.30545407  1
  In  In37  1  0.17492468  0.81961493  0.67910587  1
  In  In38  1  0.34939754  -0.02109180  -0.00070245  1
  In  In39  1  0.65377771  -0.02348223  0.01113792  1
  In  In40  1  0.66037523  0.16127226  0.16512954  1
  In  In41  1  0.19919918  0.65898152  0.49638882  1
  In  In42  1  0.32487834  0.33219407  0.00241372  1
  In  In43  1  0.17568405  0.50788148  0.34443327  1
  In  In44  1  -0.00691336  0.66579099  -0.00252039  1
  In  In45  1  0.83755605  0.31035147  0.49878162  1
  In  In46  1  -0.01026799  -0.01117201  0.01307789  1
  In  In47  1  0.18574025  0.33001872  0.82152184  1
  In  In48  1  0.66064156  0.17959590  0.82971575  1
  In  In49  1  0.48085997  -0.00757857  0.50485621  1
  In  In50  1  -0.00526886  0.83352452  0.49559054  1
  In  In51  1  0.16786966  0.67956026  0.15788489  1
  In  In52  1  0.33120420  0.15491189  0.50873637  1
  In  In53  1  0.33744317  0.66882392  0.32862090  1
  In  In54  1  0.30993630  0.84001627  0.52020474  1
  In  In55  1  0.16789434  -0.00169467  0.82397502  1
  In  In56  1  0.34115251  0.50770056  0.15971261  1
  In  In57  1  0.49347426  0.84780077  0.30675354  1
  In  In58  1  -0.00619438  0.65876490  0.31580521  1
  In  In59  1  0.34179632  0.51457709  0.85817356  1
  In  In60  1  0.66257929  0.33815176  0.33095471  1
  In  In61  1  0.68497057  -0.00424408  0.32299450  1
  In  In62  1  0.48048836  0.15744626  0.00927058  1
  In  In63  1  0.66142137  0.82507674  0.85171297  1
  In  In64  1  0.16276067  0.00054795  0.16578432  1
  In  In65  1  0.01217046  0.50183869  0.84492454  1
  In  In66  1  0.65239498  0.80690501  0.51310535  1
  In  In67  1  0.01614220  0.67123213  0.67441956  1
  In  In68  1  0.65115569  0.36500852  -0.03092760  1
  In  In69  1  0.87296945  0.13367230  0.30168738  1
  In  In70  1  0.63734265  0.35677242  0.66709442  1
  In  In71  1  0.83919884  0.51706652  -0.01265644  1
  Te  Te72  1  0.07555782  0.09646696  0.08163456  1
  Te  Te73  1  0.06802608  0.06564182  0.40942516  1
  Te  Te74  1  0.08453065  0.07419757  0.72787146  1
  Te  Te75  1  0.06216323  0.42118019  0.05503277  1
  Te  Te76  1  0.08558154  0.39821619  0.40246295  1
  Te  Te77  1  0.08087651  0.41055102  0.74205893  1
  Te  Te78  1  0.06403448  0.76705237  0.09224674  1
  Te  Te79  1  0.09513505  0.73527879  0.41475763  1
  Te  Te80  1  0.08816816  0.74796683  0.77738421  1
  Te  Te81  1  0.40976280  0.06926223  0.10370678  1
  Te  Te82  1  0.41141466  0.07647159  0.39939477  1
  Te  Te83  1  0.37293892  0.09191963  0.73244092  1
  Te  Te84  1  0.42972199  0.42561796  0.06304197  1
  Te  Te85  1  0.45844302  0.42541097  0.42133631  1
  Te  Te86  1  0.40276681  0.41446744  0.75563398  1
  Te  Te87  1  0.42681987  0.78938343  0.11421440  1
  Te  Te88  1  0.40912274  0.77397929  0.42028397  1
  Te  Te89  1  0.39065014  0.81097380  0.73396182  1
  Te  Te90  1  0.75196857  0.06027359  0.09591954  1
  Te  Te91  1  0.75416974  0.10748236  0.41237016  1
  Te  Te92  1  0.74527542  0.07227448  0.75924597  1
  Te  Te93  1  0.75004351  0.41570419  0.08284646  1
  Te  Te94  1  0.75501888  0.42096382  0.42983907  1
  Te  Te95  1  0.74438294  0.42414192  0.75431630  1
  Te  Te96  1  0.75645652  0.75692657  0.06030307  1
  Te  Te97  1  0.75523394  0.76649321  0.41419898  1
  Te  Te98  1  0.73860611  0.76136016  0.74175753  1
  Te  Te99  1  0.07294658  0.24865420  0.23563714  1
  Te  Te100  1  0.09761242  0.22590701  0.60665993  1
  Te  Te101  1  0.09016392  0.26096444  0.92115984  1
  Te  Te102  1  0.09041665  0.57177259  0.23517268  1
  Te  Te103  1  0.09252255  0.57586709  0.57787053  1
  Te  Te104  1  0.09686206  0.60094805  0.91290635  1
  Te  Te105  1  0.06388885  0.92289101  0.25020291  1
  Te  Te106  1  0.09504501  0.90886227  0.58214199  1
  Te  Te107  1  0.07058622  0.91430832  0.90730676  1
  Te  Te108  1  0.41162682  0.24517287  0.25212904  1
  Te  Te109  1  0.42348838  0.25491076  0.56691444  1
  Te  Te110  1  0.40745978  0.24463580  0.90814795  1
  Te  Te111  1  0.43036975  0.59261253  0.24179549  1
  Te  Te112  1  0.40492058  0.58989580  0.60605425  1
  Te  Te113  1  0.42943161  0.62239451  0.91711830  1
  Te  Te114  1  0.40730636  0.91441741  0.20564911  1
  Te  Te115  1  0.41854270  0.90203593  0.60866085  1
  Te  Te116  1  0.43179492  0.89717968  0.90491273  1
  Te  Te117  1  0.75489539  0.24651368  0.24970987  1
  Te  Te118  1  0.73133866  0.24903107  0.59439842  1
  Te  Te119  1  0.75884022  0.25618271  0.91962290  1
  Te  Te120  1  0.73625992  0.60833870  0.26500322  1
  Te  Te121  1  0.72370504  0.60816536  0.61177019  1
  Te  Te122  1  0.74216160  0.59891334  0.90955095  1
  Te  Te123  1  0.76504355  0.90489838  0.23905212  1
  Te  Te124  1  0.75268509  0.90602539  0.58529052  1
  Te  Te125  1  0.76272056  0.91728324  0.92089796  1
  Te  Te126  1  0.26199861  0.24111816  0.10538092  1
  Te  Te127  1  0.24414238  0.24754622  0.41574794  1
  Te  Te128  1  0.25525050  0.21748251  0.75042842  1
  Te  Te129  1  0.25008289  0.58851356  0.06759574  1
  Te  Te130  1  0.29228565  0.55993465  0.42750965  1
  Te  Te131  1  0.25088307  0.60290042  0.77788682  1
  Te  Te132  1  0.23402074  0.90546401  0.06883891  1
  Te  Te133  1  0.26097646  0.93124008  0.40628151  1
  Te  Te134  1  0.27392851  0.89548334  0.77026106  1
  Te  Te135  1  0.58596638  0.25888344  0.07379551  1
  Te  Te136  1  0.56861154  0.25938392  0.42326573  1
  Te  Te137  1  0.55760342  0.24742074  0.74079235  1
  Te  Te138  1  0.55494707  0.59518473  0.09391308  1
  Te  Te139  1  0.57743958  0.60714890  0.40932543  1
  Te  Te140  1  0.59832466  0.57538148  0.78540635  1
  Te  Te141  1  0.55378258  0.88077262  0.07017751  1
  Te  Te142  1  0.58870611  0.92327940  0.42113710  1
  Te  Te143  1  0.58373436  0.92444702  0.75909774  1
  Te  Te144  1  0.94193155  0.23593985  0.09739556  1
  Te  Te145  1  0.92707983  0.24675873  0.39453686  1
  Te  Te146  1  0.92638002  0.24378323  0.75751578  1
  Te  Te147  1  0.92617684  0.57079443  0.09936956  1
  Te  Te148  1  0.91059230  0.58191530  0.42548868  1
  Te  Te149  1  0.91278853  0.57305345  0.74914791  1
  Te  Te150  1  0.89293465  0.93125342  0.10961860  1
  Te  Te151  1  0.91059722  0.90637627  0.39945186  1
  Te  Te152  1  0.93790805  0.88109160  0.70870714  1
  Te  Te153  1  0.25928917  0.07205093  0.25295037  1
  Te  Te154  1  0.28114432  0.05296293  0.60941789  1
  Te  Te155  1  0.26444937  0.07666504  0.91280875  1
  Te  Te156  1  0.25638542  0.41382861  0.24700597  1
  Te  Te157  1  0.25967177  0.42567584  0.57472076  1
  Te  Te158  1  0.23428258  0.42844706  0.92822091  1
  Te  Te159  1  0.26451657  0.76673449  0.23663992  1
  Te  Te160  1  0.27557286  0.71882727  0.61202205  1
  Te  Te161  1  0.26994863  0.74484329  0.90374934  1
  Te  Te162  1  0.57622341  0.05067194  0.22873199  1
  Te  Te163  1  0.54133751  0.09430410  0.60515614  1
  Te  Te164  1  0.58209513  0.08273353  0.91914793  1
  Te  Te165  1  0.57870211  0.44043440  0.25792553  1
  Te  Te166  1  0.55114078  0.42596387  0.56102449  1
  Te  Te167  1  0.57167484  0.47388389  0.90238439  1
  Te  Te168  1  0.58294083  0.74167835  0.25795369  1
  Te  Te169  1  0.56156261  0.75422337  0.61714891  1
  Te  Te170  1  0.54688179  0.74122627  0.90337545  1
  Te  Te171  1  0.94241455  0.03652945  0.21415152  1
  Te  Te172  1  0.92409975  0.07259772  0.58574393  1
  Te  Te173  1  0.90517871  0.07762419  0.90763393  1
  Te  Te174  1  0.93983357  0.41688690  0.25915523  1
  Te  Te175  1  0.92608713  0.39094405  0.59442900  1
  Te  Te176  1  0.94101645  0.40415755  0.95332158  1
  Te  Te177  1  0.91868674  0.76156332  0.24425437  1
  Te  Te178  1  0.91004294  0.76215836  0.60824414  1
  Te  Te179  1  0.91716187  0.77127650  0.92597543  1
