# generated using pymatgen
data_In2Te3
_symmetry_space_group_name_H-M   'P 1'
_cell_length_a   18.91132437
_cell_length_b   18.90743104
_cell_length_c   18.91452866
_cell_angle_alpha   90.05748618
_cell_angle_beta   89.99773817
_cell_angle_gamma   89.95777065
_symmetry_Int_Tables_number   1
_chemical_formula_structural   In2Te3
_chemical_formula_sum   'In72 Te108'
_cell_volume   6763.15989800
_cell_formula_units_Z   36
loop_
 _symmetry_equiv_pos_site_id
 _symmetry_equiv_pos_as_xyz
  1  'x, y, z'
loop_
 _atom_site_type_symbol
 _atom_site_label
 _atom_site_symmetry_multiplicity
 _atom_site_fract_x
 _atom_site_fract_y
 _atom_site_fract_z
 _atom_site_occupancy
  In  In0  1  0.81892335  0.64157918  0.16074309  1
  In  In1  1  0.82054133  0.48519494  -0.00108981  1
  In  In2  1  0.87065187  0.33762737  0.50674318  1
  In  In3  1  0.80888738  -0.00445649  0.83625410  1
  In  In4  1  0.84213731  0.65778346  0.47795048  1
  In  In5  1  0.17826296  -0.01828779  0.15271923  1
  In  In6  1  0.64020832  0.65682987  0.69432220  1
  In  In7  1  0.65191288  0.16739105  0.14227749  1
  In  In8  1  0.48383674  0.18736810  0.33537051  1
  In  In9  1  0.66557879  0.51128743  0.51217336  1
  In  In10  1  -0.00909224  0.17400309  0.83179906  1
  In  In11  1  0.33751709  0.51190747  0.16789402  1
  In  In12  1  0.32860910  -0.01225306  0.64102697  1
  In  In13  1  0.15727840  0.35447310  0.51059889  1
  In  In14  1  -0.00363685  -0.00504926  -0.01790822  1
  In  In15  1  0.49766870  0.34586996  0.84029605  1
  In  In16  1  0.66615601  0.17243785  0.84041385  1
  In  In17  1  0.35500240  0.36174391  0.33551815  1
  In  In18  1  0.50709903  0.16894453  0.67046340  1
  In  In19  1  0.04624026  -0.00036046  0.34058075  1
  In  In20  1  0.29646205  0.64836313  0.34230129  1
  In  In21  1  -0.00457634  0.33390377  0.01369938  1
  In  In22  1  0.46960137  0.65929981  0.83289258  1
  In  In23  1  0.18768723  0.66516490  0.14845158  1
  In  In24  1  0.18218586  0.34970188  0.15154308  1
  In  In25  1  0.85553158  0.85171406  0.32288980  1
  In  In26  1  0.48222760  -0.01324965  0.16470289  1
  In  In27  1  0.67765008  0.34476055  0.33346276  1
  In  In28  1  0.84616275  -0.00846558  0.53538512  1
  In  In29  1  0.61075886  -0.01217696  0.75433288  1
  In  In30  1  0.83010826  0.82954518  0.66667557  1
  In  In31  1  0.83415710  0.49104819  0.66443377  1
  In  In32  1  0.00258454  0.81215877  0.15179733  1
  In  In33  1  0.16612545  0.16892925  0.32650432  1
  In  In34  1  0.33785164  0.00210121  0.00714030  1
  In  In35  1  0.70310792  0.17374344  0.50209287  1
  In  In36  1  0.81406245  0.03341282  0.16668625  1
  In  In37  1  0.49713107  0.50400447  -0.00641918  1
  In  In38  1  0.02534185  0.65351826  0.34870943  1
  In  In39  1  0.65608590  0.65956108  0.00693002  1
  In  In40  1  0.33074706  0.81877159  0.86164508  1
  In  In41  1  0.50438534  0.36705727  0.50354901  1
  In  In42  1  0.32495833  0.65913718  0.63349806  1
  In  In43  1  0.34218410  0.33832523  0.69388083  1
  In  In44  1  0.03630595  0.52250283  0.84520964  1
  In  In45  1  0.81860107  0.85399900  -0.01124286  1
  In  In46  1  0.49087557  0.82893678  0.01376786  1
  In  In47  1  0.81784868  0.67718185  0.82976276  1
  In  In48  1  0.31415813  0.16676630  0.82045975  1
  In  In49  1  0.47801480  0.67534890  0.15414075  1
  In  In50  1  0.47979465  0.79826423  0.34068552  1
  In  In51  1  0.03184826  0.65876060  0.66758050  1
  In  In52  1  0.66609296  0.65731764  0.31745609  1
  In  In53  1  0.32276668  0.16122387  0.49875077  1
  In  In54  1  0.83738088  0.34689802  0.16116022  1
  In  In55  1  -0.01240218  -0.00333597  0.65766293  1
  In  In56  1  0.18373104  0.51384774  0.65911491  1
  In  In57  1  0.85964647  0.19782389  0.34556912  1
  In  In58  1  0.82002673  0.32722401  0.82680331  1
  In  In59  1  0.64366771  0.79657714  0.51467114  1
  In  In60  1  0.16276428  0.33310985  0.83071788  1
  In  In61  1  0.49290502  -0.00876868  0.52390796  1
  In  In62  1  0.29505745  -0.02712266  0.35495818  1
  In  In63  1  0.51450620  0.32673738  0.17716978  1
  In  In64  1  0.84722150  0.17790951  0.67375765  1
  In  In65  1  0.01974857  0.79883888  0.83253820  1
  In  In66  1  0.31870368  0.32737797  -0.01835925  1
  In  In67  1  0.66651061  -0.00407219  0.34067204  1
  In  In68  1  0.00927142  0.17157023  0.16987605  1
  In  In69  1  -0.00326417  0.49031893  0.16418452  1
  In  In70  1  0.04400912  0.82276154  0.50746551  1
  In  In71  1  0.15949183  -0.00856673  0.83357047  1
  Te  Te72  1  0.08368664  0.07573189  0.07796520  1
  Te  Te73  1  0.11711559  0.08331986  0.43836272  1
  Te  Te74  1  0.07870836  0.08585313  0.74570080  1
  Te  Te75  1  0.09635713  0.43686973  0.06043338  1
  Te  Te76  1  0.10544548  0.45966696  0.42137071  1
  Te  Te77  1  0.08595833  0.42801001  0.73758684  1
  Te  Te78  1  0.08468965  0.73113796  0.06075061  1
  Te  Te79  1  0.11989806  0.75916775  0.39578783  1
  Te  Te80  1  0.11895014  0.76093234  0.72967895  1
  Te  Te81  1  0.42858712  0.09244892  0.07995764  1
  Te  Te82  1  0.41452288  0.07287643  0.41157560  1
  Te  Te83  1  0.40710484  0.07890286  0.73851041  1
  Te  Te84  1  0.41055224  0.40587918  0.08488560  1
  Te  Te85  1  0.41419166  0.45716185  0.43085484  1
  Te  Te86  1  0.42236585  0.44441014  0.75787325  1
  Te  Te87  1  0.37904097  0.77053707  0.09473448  1
  Te  Te88  1  0.39446827  0.71849273  0.43329058  1
  Te  Te89  1  0.41968433  0.77206540  0.74379803  1
  Te  Te90  1  0.72110246  0.06649460  0.05992670  1
  Te  Te91  1  0.77622179  0.07240358  0.41363220  1
  Te  Te92  1  0.74624728  0.07613393  0.72451313  1
  Te  Te93  1  0.73083728  0.42016101  0.09449130  1
  Te  Te94  1  0.76064903  0.42044564  0.43342125  1
  Te  Te95  1  0.74176701  0.43028205  0.75887520  1
  Te  Te96  1  0.75008901  0.75150377  0.08336570  1
  Te  Te97  1  0.75973035  0.76866025  0.41077355  1
  Te  Te98  1  0.72307164  0.77064727  0.75712507  1
  Te  Te99  1  0.08769577  0.27388511  0.24758570  1
  Te  Te100  1  0.05525574  0.25854471  0.55358587  1
  Te  Te101  1  0.08426966  0.24472192  0.92789434  1
  Te  Te102  1  0.09579208  0.57922319  0.23743676  1
  Te  Te103  1  0.11477669  0.60146758  0.55566096  1
  Te  Te104  1  0.09983332  0.63249936  0.91852673  1
  Te  Te105  1  0.09464792  0.89333709  0.24412621  1
  Te  Te106  1  0.09806065  0.91009680  0.61236658  1
  Te  Te107  1  0.09415206  0.89225044  0.92872772  1
  Te  Te108  1  0.39172934  0.25082719  0.23639201  1
  Te  Te109  1  0.41837390  0.25230333  0.57698213  1
  Te  Te110  1  0.41656329  0.23562039  0.90787719  1
  Te  Te111  1  0.42073592  0.59090134  0.26527187  1
  Te  Te112  1  0.44105929  0.59937694  0.56575985  1
  Te  Te113  1  0.39460710  0.60297541  0.94983556  1
  Te  Te114  1  0.40123218  0.90642200  0.26784817  1
  Te  Te115  1  0.39529301  0.88370586  0.55553709  1
  Te  Te116  1  0.42847971  0.92417108  0.91234225  1
  Te  Te117  1  0.74482497  0.23439511  0.25196650  1
  Te  Te118  1  0.75966023  0.27575670  0.59584036  1
  Te  Te119  1  0.75531976  0.24734213  0.93008172  1
  Te  Te120  1  0.76204173  0.55935404  0.26656972  1
  Te  Te121  1  0.75793818  0.61379991  0.59766694  1
  Te  Te122  1  0.73648679  0.57627959  0.90827016  1
  Te  Te123  1  0.74670409  0.91608116  0.23870871  1
  Te  Te124  1  0.72975032  0.90685998  0.58202574  1
  Te  Te125  1  0.71037998  0.91001907  0.90546111  1
  Te  Te126  1  0.23742706  0.24186299  0.07009508  1
  Te  Te127  1  0.25468480  0.26655744  0.41230060  1
  Te  Te128  1  0.22648085  0.24389147  0.72367400  1
  Te  Te129  1  0.26752721  0.57865222  0.05539871  1
  Te  Te130  1  0.21545249  0.56127581  0.44026806  1
  Te  Te131  1  0.26034723  0.60033870  0.75543270  1
  Te  Te132  1  0.25969109  0.89067658  0.06847694  1
  Te  Te133  1  0.22626263  0.87832508  0.44501239  1
  Te  Te134  1  0.26399035  0.91229091  0.75917343  1
  Te  Te135  1  0.57397345  0.25983194  0.05991465  1
  Te  Te136  1  0.58938654  0.24837996  0.42697537  1
  Te  Te137  1  0.59236328  0.26599401  0.74646825  1
  Te  Te138  1  0.57956257  0.57275590  0.10383750  1
  Te  Te139  1  0.58552584  0.60313530  0.42806463  1
  Te  Te140  1  0.55673516  0.55790595  0.76623472  1
  Te  Te141  1  0.58430781  0.91208342  0.09198589  1
  Te  Te142  1  0.57462803  0.90131599  0.41684885  1
  Te  Te143  1  0.52681442  0.88006138  0.70691371  1
  Te  Te144  1  0.90214627  0.23421767  0.08208593  1
  Te  Te145  1  0.97203647  0.26177083  0.42236145  1
  Te  Te146  1  0.93689779  0.28113315  0.73959341  1
  Te  Te147  1  0.91953323  0.57913080  0.06707066  1
  Te  Te148  1  0.93906337  0.56025171  0.42538978  1
  Te  Te149  1  0.92405866  0.59417900  0.75696120  1
  Te  Te150  1  0.91546713  0.92665835  0.09397846  1
  Te  Te151  1  0.93997140  0.91805425  0.43086534  1
  Te  Te152  1  0.92099131  0.90769285  0.76905719  1
  Te  Te153  1  0.25538126  0.07380695  0.24695162  1
  Te  Te154  1  0.22992006  0.07912396  0.57742348  1
  Te  Te155  1  0.23873317  0.08478440  0.92284033  1
  Te  Te156  1  0.24454494  0.43537107  0.26051488  1
  Te  Te157  1  0.27657987  0.42003298  0.58475011  1
  Te  Te158  1  0.25639657  0.42615851  0.89283967  1
  Te  Te159  1  0.26711118  0.75068458  0.23943136  1
  Te  Te160  1  0.26850970  0.77237747  0.55330042  1
  Te  Te161  1  0.22735152  0.71087978  0.87306113  1
  Te  Te162  1  0.57735461  0.09009264  0.26083436  1
  Te  Te163  1  0.59698223  0.08793079  0.57589439  1
  Te  Te164  1  0.57549292  0.06252256  0.87485206  1
  Te  Te165  1  0.56832083  0.42159921  0.27496569  1
  Te  Te166  1  0.58871306  0.42736764  0.60573549  1
  Te  Te167  1  0.59180227  0.40712113  0.93627803  1
  Te  Te168  1  0.58273819  0.75476367  0.23712708  1
  Te  Te169  1  0.54371918  0.71379476  0.59045023  1
  Te  Te170  1  0.57014279  0.74227836  0.91565708  1
  Te  Te171  1  0.93399439  0.07527994  0.26281680  1
  Te  Te172  1  0.93489633  0.11103083  0.56907344  1
  Te  Te173  1  0.89709911  0.08973085  0.91700177  1
  Te  Te174  1  0.92435791  0.40702557  0.26102491  1
  Te  Te175  1  0.94242339  0.44605694  0.57688536  1
  Te  Te176  1  0.92945420  0.42277052  0.90799479  1
  Te  Te177  1  0.91900981  0.73117246  0.25342531  1
  Te  Te178  1  0.92612166  0.74930663  0.58090933  1
  Te  Te179  1  0.90922751  0.74897012  0.92698928  1
