# generated using pymatgen
data_In2Te3
_symmetry_space_group_name_H-M   'P 1'
_cell_length_a   18.96961263
_cell_length_b   18.94058947
_cell_length_c   18.95167255
_cell_angle_alpha   90.15781359
_cell_angle_beta   90.09735330
_cell_angle_gamma   90.12744720
_symmetry_Int_Tables_number   1
_chemical_formula_structural   In2Te3
_chemical_formula_sum   'In72 Te108'
_cell_volume   6809.20084112
_cell_formula_units_Z   36
loop_
 _symmetry_equiv_pos_site_id
 _symmetry_equiv_pos_as_xyz
  1  'x, y, z'
loop_
 _atom_site_type_symbol
 _atom_site_label
 _atom_site_symmetry_multiplicity
 _atom_site_fract_x
 _atom_site_fract_y
 _atom_site_fract_z
 _atom_site_occupancy
  In  In0  1  0.13354267  0.04594366  0.34282482  1
  In  In1  1  0.81948603  0.13592654  0.66664602  1
  In  In2  1  0.00764164  0.31665358  0.31727105  1
  In  In3  1  0.83817302  0.82484631  0.31656602  1
  In  In4  1  0.64145041  0.64966986  0.35466937  1
  In  In5  1  0.85381769  0.02443037  0.14293370  1
  In  In6  1  0.13432874  0.50008350  0.66396336  1
  In  In7  1  0.83550461  0.01548172  0.49254218  1
  In  In8  1  0.66863609  0.28129937  0.29485622  1
  In  In9  1  -0.00212511  0.81094458  0.47357456  1
  In  In10  1  0.34086122  0.50956662  0.89191277  1
  In  In11  1  0.19210267  0.18091141  0.01551350  1
  In  In12  1  -0.00469923  0.49818563  0.83521419  1
  In  In13  1  0.66357996  0.01871075  0.02731658  1
  In  In14  1  0.66372596  0.45356120  0.84618320  1
  In  In15  1  0.18565011  0.85784187  0.67636266  1
  In  In16  1  0.15849664  0.34107614  0.46989151  1
  In  In17  1  0.31718995  0.82414030  0.87450521  1
  In  In18  1  0.65932043  0.81117329  0.18124851  1
  In  In19  1  0.17998432  0.18662317  0.66315757  1
  In  In20  1  0.48296821  0.80923746  0.03348435  1
  In  In21  1  0.48292315  0.33859319  0.17247559  1
  In  In22  1  0.64183526  0.01092967  0.28720563  1
  In  In23  1  0.63837915  0.32723591  0.02106934  1
  In  In24  1  0.66046615  0.01037641  0.66488559  1
  In  In25  1  0.82739647  0.66470383  0.50012654  1
  In  In26  1  0.01161862  0.17158474  0.15908202  1
  In  In27  1  -0.00468697  0.15365835  0.80934754  1
  In  In28  1  -0.02367730  0.66227262  0.70361161  1
  In  In29  1  0.81854232  0.47789357  -0.00203712  1
  In  In30  1  0.14168436  0.66082990  0.86218521  1
  In  In31  1  0.47692750  0.33021729  0.88591385  1
  In  In32  1  0.35534970  0.03215701  0.65572900  1
  In  In33  1  0.50366896  0.32628180  0.49215304  1
  In  In34  1  0.51536542  -0.01226226  0.85677875  1
  In  In35  1  0.33236217  -0.01886348  0.28277727  1
  In  In36  1  0.81473068  0.00520764  0.83505995  1
  In  In37  1  0.19181841  0.33042418  0.84981899  1
  In  In38  1  0.50894112  0.67048182  0.85224062  1
  In  In39  1  0.51051633  0.20066076  0.68546514  1
  In  In40  1  0.65943467  0.65452954  0.00988640  1
  In  In41  1  -0.00268161  0.83464410  0.85684941  1
  In  In42  1  0.51085153  0.85466080  0.65976415  1
  In  In43  1  0.47980682  0.67511005  0.51391784  1
  In  In44  1  0.82000700  0.17846656  -0.00884771  1
  In  In45  1  0.03327408  -0.00956246  -0.00031870  1
  In  In46  1  0.67231202  0.67692201  0.67479056  1
  In  In47  1  0.34972584  0.17047571  0.17010966  1
  In  In48  1  -0.00234215  -0.01723219  0.63521475  1
  In  In49  1  0.16652268  0.86485553  0.19598249  1
  In  In50  1  -0.03090586  0.33179993  0.65456689  1
  In  In51  1  0.03341538  0.65138554  0.31340514  1
  In  In52  1  0.63164555  0.49823713  0.16112735  1
  In  In53  1  0.50950713  0.00148924  0.45654039  1
  In  In54  1  0.17419344  0.67232881  0.51666866  1
  In  In55  1  0.32490315  0.83381631  0.45785507  1
  In  In56  1  0.02254499  0.34449936  0.00134346  1
  In  In57  1  0.83360437  0.47197767  0.34946811  1
  In  In58  1  0.27961527  0.60731309  0.25464117  1
  In  In59  1  0.80203329  0.85020957  0.66319756  1
  In  In60  1  0.01286624  0.49447989  0.17318795  1
  In  In61  1  0.31078864  0.16243837  0.47128451  1
  In  In62  1  0.84352840  0.64212701  0.18190300  1
  In  In63  1  0.86332844  0.82834639  -0.00208684  1
  In  In64  1  0.35200259  0.50290897  0.47123539  1
  In  In65  1  0.32842205  0.34540083  0.66925278  1
  In  In66  1  -0.00320961  0.46726695  0.48598248  1
  In  In67  1  0.20338274  0.04193137  0.84858639  1
  In  In68  1  0.32148005  0.66903213  0.72715311  1
  In  In69  1  0.67371930  0.15817977  0.49423758  1
  In  In70  1  0.66464961  0.47382470  0.47896253  1
  In  In71  1  0.49259920  0.48358014  0.65444205  1
  Te  Te72  1  0.11250527  0.07649599  0.09332720  1
  Te  Te73  1  0.02653721  0.15176644  0.38218365  1
  Te  Te74  1  0.09578050  0.07045926  0.73198792  1
  Te  Te75  1  0.10808780  0.39579438  0.11165480  1
  Te  Te76  1  0.09334064  0.44076313  0.37681226  1
  Te  Te77  1  0.08172110  0.38743421  0.75243789  1
  Te  Te78  1  0.13561703  0.80965097  0.05741183  1
  Te  Te79  1  0.11318519  0.74912292  0.39856792  1
  Te  Te80  1  0.09669661  0.75448313  0.74439558  1
  Te  Te81  1  0.45800741  0.08500190  0.11579624  1
  Te  Te82  1  0.40356976  0.07909549  0.38508273  1
  Te  Te83  1  0.44247523  0.09138487  0.76499452  1
  Te  Te84  1  0.41019622  0.45654876  0.11129597  1
  Te  Te85  1  0.39202591  0.37645349  0.40759667  1
  Te  Te86  1  0.40548464  0.43084857  0.77059185  1
  Te  Te87  1  0.37427779  0.80520771  0.14110851  1
  Te  Te88  1  0.41406856  0.73611343  0.39833036  1
  Te  Te89  1  0.42997099  0.77384513  0.76124862  1
  Te  Te90  1  0.74072087  0.12768448  0.11619547  1
  Te  Te91  1  0.74169513  0.07399966  0.38924072  1
  Te  Te92  1  0.71639422  0.10066694  0.77509557  1
  Te  Te93  1  0.73906816  0.40604017  0.10523971  1
  Te  Te94  1  0.74253551  0.36638674  0.40603943  1
  Te  Te95  1  0.77020141  0.44383527  0.75069802  1
  Te  Te96  1  0.76545405  0.73929451  0.09065608  1
  Te  Te97  1  0.74311455  0.75282241  0.40996605  1
  Te  Te98  1  0.76412919  0.75115827  0.76264961  1
  Te  Te99  1  0.10796372  0.27148575  0.21607296  1
  Te  Te100  1  0.08304431  0.26256944  0.57689551  1
  Te  Te101  1  0.08423759  0.22758579  0.90970664  1
  Te  Te102  1  0.10514668  0.60996662  0.19198268  1
  Te  Te103  1  0.05642288  0.59298065  0.57313168  1
  Te  Te104  1  0.08539298  0.54986985  0.93912515  1
  Te  Te105  1  0.06374226  0.93802804  0.27162656  1
  Te  Te106  1  0.09542130  0.89809246  0.56001538  1
  Te  Te107  1  0.11590563  0.92358698  0.89283085  1
  Te  Te108  1  0.39570010  0.26961752  0.27169040  1
  Te  Te109  1  0.39994860  0.24352714  0.58002595  1
  Te  Te110  1  0.38968107  0.23734031  0.95720413  1
  Te  Te111  1  0.41451463  0.53305083  0.25113187  1
  Te  Te112  1  0.38893107  0.58420952  0.60462697  1
  Te  Te113  1  0.40705847  0.62741851  0.94968134  1
  Te  Te114  1  0.44671350  0.89676897  0.24433289  1
  Te  Te115  1  0.41608928  0.92138328  0.56082314  1
  Te  Te116  1  0.41541016  0.91472549  0.94629299  1
  Te  Te117  1  0.78576957  0.21192311  0.23995703  1
  Te  Te118  1  0.74051305  0.23777039  0.59702200  1
  Te  Te119  1  0.73111207  0.27021113  0.92042305  1
  Te  Te120  1  0.74005193  0.56775895  0.26463371  1
  Te  Te121  1  0.73008415  0.57728845  0.57327971  1
  Te  Te122  1  0.73995034  0.57446414  0.91152658  1
  Te  Te123  1  0.76371325  0.92302575  0.22518561  1
  Te  Te124  1  0.72872011  0.92747594  0.55666001  1
  Te  Te125  1  0.75620671  0.92191541  0.94543558  1
  Te  Te126  1  0.29423617  0.27599108  0.07387355  1
  Te  Te127  1  0.21944904  0.23778694  0.38518753  1
  Te  Te128  1  0.27835364  0.23760826  0.76696451  1
  Te  Te129  1  0.29193619  0.55729475  0.11038157  1
  Te  Te130  1  0.24676954  0.58910872  0.41268709  1
  Te  Te131  1  0.22611205  0.55953837  0.77248226  1
  Te  Te132  1  0.25209546  0.90278460  0.07774083  1
  Te  Te133  1  0.23846997  0.93865228  0.39780646  1
  Te  Te134  1  0.28631831  0.93955690  0.75732347  1
  Te  Te135  1  0.55544829  0.22728315  0.09838778  1
  Te  Te136  1  0.57300628  0.22549761  0.40429326  1
  Te  Te137  1  0.57559672  0.29144609  0.78093334  1
  Te  Te138  1  0.55579709  0.61391737  0.10752688  1
  Te  Te139  1  0.54841864  0.55976885  0.43430286  1
  Te  Te140  1  0.57015994  0.58525421  0.74303085  1
  Te  Te141  1  0.58156832  0.90966999  0.09633831  1
  Te  Te142  1  0.56989317  0.90367234  0.36316785  1
  Te  Te143  1  0.60733367  0.90826248  0.76392659  1
  Te  Te144  1  0.92030639  0.25848315  0.07393969  1
  Te  Te145  1  0.93390037  0.25775487  0.42808015  1
  Te  Te146  1  0.89156032  0.24482051  0.75339924  1
  Te  Te147  1  0.91681739  0.56544807  0.07471299  1
  Te  Te148  1  0.91834865  0.59302653  0.40178232  1
  Te  Te149  1  0.88786739  0.54661293  0.73926995  1
  Te  Te150  1  0.94489279  0.91207734  0.09452242  1
  Te  Te151  1  0.91835323  0.92132223  0.40614851  1
  Te  Te152  1  0.91963524  0.92410649  0.75154901  1
  Te  Te153  1  0.23653577  0.09041000  0.23961563  1
  Te  Te154  1  0.23626518  0.07684501  0.57252857  1
  Te  Te155  1  0.29570900  0.09319721  0.95132664  1
  Te  Te156  1  0.28618084  0.45278306  0.23303390  1
  Te  Te157  1  0.23881986  0.42774694  0.57762334  1
  Te  Te158  1  0.25018740  0.41385369  0.95559530  1
  Te  Te159  1  0.26448970  0.76081950  0.24629104  1
  Te  Te160  1  0.27090922  0.76013944  0.59567866  1
  Te  Te161  1  0.23996469  0.72559448  0.95550087  1
  Te  Te162  1  0.55855581  0.11607697  0.22363538  1
  Te  Te163  1  0.56037400  0.08709795  0.58008047  1
  Te  Te164  1  0.58009878  0.09442592  0.93464906  1
  Te  Te165  1  0.58308797  0.40566653  0.26941609  1
  Te  Te166  1  0.59629329  0.39431942  0.59178874  1
  Te  Te167  1  0.55886523  0.44039749  0.95199929  1
  Te  Te168  1  0.56586572  0.71561705  0.24485814  1
  Te  Te169  1  0.59096175  0.76013105  0.57306172  1
  Te  Te170  1  0.59340584  0.76674889  0.93264914  1
  Te  Te171  1  0.91664950  0.10350162  0.25458398  1
  Te  Te172  1  0.93319353  0.10196175  0.57068069  1
  Te  Te173  1  0.92364665  0.07438467  0.92507468  1
  Te  Te174  1  0.90808478  0.40460124  0.23883369  1
  Te  Te175  1  0.88783858  0.41883879  0.56879694  1
  Te  Te176  1  0.91188794  0.39569104  0.91056144  1
  Te  Te177  1  0.93942473  0.74723350  0.23567325  1
  Te  Te178  1  0.90904463  0.76245179  0.58798849  1
  Te  Te179  1  0.93188625  0.72218715  0.92196062  1
