# generated using pymatgen
data_In2Te3
_symmetry_space_group_name_H-M   'P 1'
_cell_length_a   18.78679676
_cell_length_b   18.78407104
_cell_length_c   18.79329234
_cell_angle_alpha   89.99729620
_cell_angle_beta   89.96624414
_cell_angle_gamma   89.98154445
_symmetry_Int_Tables_number   1
_chemical_formula_structural   In2Te3
_chemical_formula_sum   'In72 Te108'
_cell_volume   6632.01088621
_cell_formula_units_Z   36
loop_
 _symmetry_equiv_pos_site_id
 _symmetry_equiv_pos_as_xyz
  1  'x, y, z'
loop_
 _atom_site_type_symbol
 _atom_site_label
 _atom_site_symmetry_multiplicity
 _atom_site_fract_x
 _atom_site_fract_y
 _atom_site_fract_z
 _atom_site_occupancy
  In  In0  1  0.34606400  0.17151790  0.50619531  1
  In  In1  1  0.17284551  0.34959740  0.50330434  1
  In  In2  1  0.18360155  0.01655082  0.50538949  1
  In  In3  1  0.00311995  0.00344234  0.69420690  1
  In  In4  1  0.81284887  0.15523891  0.65743091  1
  In  In5  1  0.16151055  0.47905297  0.00767345  1
  In  In6  1  -0.00740733  0.65733896  -0.00153483  1
  In  In7  1  0.52456091  0.36314922  0.53416608  1
  In  In8  1  0.67365338  0.48443285  0.16873050  1
  In  In9  1  0.65898504  0.00133346  0.35454619  1
  In  In10  1  0.51299431  0.18304151  0.32547555  1
  In  In11  1  0.34301333  0.33885566  0.35328309  1
  In  In12  1  0.17625923  0.49311338  0.68269967  1
  In  In13  1  0.20164779  0.19743555  0.71082019  1
  In  In14  1  0.64842733  0.65627020  0.36591186  1
  In  In15  1  0.33660150  0.64621105  0.32514066  1
  In  In16  1  -0.00064220  0.33657780  0.67482148  1
  In  In17  1  0.83290096  0.67179069  0.16655521  1
  In  In18  1  0.81543435  0.33659689  0.50750600  1
  In  In19  1  0.83821250  0.66833791  0.48936110  1
  In  In20  1  0.49876219  0.46971731  -0.00985017  1
  In  In21  1  0.16632228  0.65395315  0.15655526  1
  In  In22  1  0.15771083  -0.00169471  0.17413196  1
  In  In23  1  -0.00945560  0.66175699  0.31543881  1
  In  In24  1  -0.01911122  0.82456448  0.49816853  1
  In  In25  1  0.15547865  0.50040709  0.34182656  1
  In  In26  1  0.17693856  0.65007423  0.84598418  1
  In  In27  1  0.51001491  0.65893211  0.80706076  1
  In  In28  1  0.47971018  0.65547275  0.16867492  1
  In  In29  1  0.50970756  -0.00716457  0.80365152  1
  In  In30  1  0.66452887  0.66112854  0.66845401  1
  In  In31  1  0.36000946  0.85129022  0.49635290  1
  In  In32  1  0.67134908  0.85946747  0.17897234  1
  In  In33  1  0.49479556  0.62585686  0.54325065  1
  In  In34  1  0.67593706  0.16864840  0.83341222  1
  In  In35  1  0.32780037  0.81841448  0.16577600  1
  In  In36  1  0.50793025  0.00948546  0.16220469  1
  In  In37  1  0.82436142  0.50389400  0.67085995  1
  In  In38  1  0.35097430  0.81058357  0.82145928  1
  In  In39  1  0.14804494  0.20831535  -0.02971952  1
  In  In40  1  -0.01568838  -0.01003744  0.35223867  1
  In  In41  1  0.32597367  0.67379017  0.00070531  1
  In  In42  1  0.14719838  0.16983663  0.29972555  1
  In  In43  1  0.16786235  0.32534345  0.15367553  1
  In  In44  1  0.17726873  0.83082404  0.65907659  1
  In  In45  1  -0.00808099  0.82904635  0.16559435  1
  In  In46  1  0.83032263  0.33682267  0.82822537  1
  In  In47  1  0.67308306  0.32222928  0.33537781  1
  In  In48  1  0.32588108  0.49093668  0.82402570  1
  In  In49  1  0.17175134  0.66364095  0.51102563  1
  In  In50  1  0.50356620  0.33328840  0.15442074  1
  In  In51  1  0.82468280  0.48521082  -0.01210026  1
  In  In52  1  0.51409278  -0.00474254  0.51684985  1
  In  In53  1  -0.02305831  0.18926048  0.51379727  1
  In  In54  1  0.69409091  0.03767331  0.02651732  1
  In  In55  1  0.15853856  -0.00390720  0.83566474  1
  In  In56  1  0.84946456  0.83487084  -0.00132312  1
  In  In57  1  0.49026826  0.15513875  0.66572220  1
  In  In58  1  0.50294666  0.19895681  -0.01560017  1
  In  In59  1  0.66343016  0.83285480  0.81566062  1
  In  In60  1  0.67347179  0.64481391  -0.03083260  1
  In  In61  1  -0.02046988  0.01666050  0.00300734  1
  In  In62  1  0.85403802  0.46825359  0.31243132  1
  In  In63  1  0.82401336  0.15198051  0.32702926  1
  In  In64  1  -0.01663493  0.64810395  0.66461162  1
  In  In65  1  0.84060658  0.02171735  0.83782387  1
  In  In66  1  -0.01226820  0.83572148  0.82698109  1
  In  In67  1  0.34070993  0.00338414  -0.00644826  1
  In  In68  1  -0.00971051  0.20567108  0.15099451  1
  In  In69  1  0.50775985  0.35206169  0.83526181  1
  In  In70  1  0.50691940  0.84718193  0.33788479  1
  In  In71  1  0.30115577  0.01149298  0.34759730  1
  Te  Te72  1  0.08829148  0.09890918  0.07974630  1
  Te  Te73  1  0.07950741  0.09289388  0.42047358  1
  Te  Te74  1  0.08367870  0.11024004  0.76557880  1
  Te  Te75  1  0.05882966  0.40432809  0.08725006  1
  Te  Te76  1  0.06711144  0.41741152  0.42802965  1
  Te  Te77  1  0.10132793  0.39372652  0.76975643  1
  Te  Te78  1  0.08604044  0.75295079  0.07209378  1
  Te  Te79  1  0.07778373  0.73887905  0.41631622  1
  Te  Te80  1  0.08471031  0.74441872  0.74732296  1
  Te  Te81  1  0.42252532  0.10211271  0.07753002  1
  Te  Te82  1  0.42695435  0.07547241  0.40728226  1
  Te  Te83  1  0.40580456  0.09243394  0.77010367  1
  Te  Te84  1  0.39928503  0.39838731  0.07052422  1
  Te  Te85  1  0.43722863  0.42625080  0.42839588  1
  Te  Te86  1  0.43693955  0.44384243  0.73263807  1
  Te  Te87  1  0.43147143  0.76194074  0.06971051  1
  Te  Te88  1  0.42553229  0.73999436  0.41094214  1
  Te  Te89  1  0.43703810  0.75089477  0.71641097  1
  Te  Te90  1  0.78043190  0.13193119  0.10231988  1
  Te  Te91  1  0.73922500  0.09670870  0.44332637  1
  Te  Te92  1  0.72816669  0.05829684  0.74016305  1
  Te  Te93  1  0.76732585  0.39936511  0.09513829  1
  Te  Te94  1  0.74314975  0.43326578  0.41297831  1
  Te  Te95  1  0.73792183  0.38928945  0.71953601  1
  Te  Te96  1  0.74189561  0.75092461  0.07201765  1
  Te  Te97  1  0.74545299  0.75605928  0.41294108  1
  Te  Te98  1  0.75635220  0.73292973  0.76021426  1
  Te  Te99  1  0.05712029  0.28952114  0.26866811  1
  Te  Te100  1  0.09863907  0.23791594  0.59360562  1
  Te  Te101  1  0.05770278  0.30388624  0.90094774  1
  Te  Te102  1  0.06956415  0.56312156  0.23031692  1
  Te  Te103  1  0.08186356  0.56425981  0.58347112  1
  Te  Te104  1  0.07365125  0.56151863  0.91100956  1
  Te  Te105  1  0.08012737  0.90462098  0.26655437  1
  Te  Te106  1  0.07809250  0.91966748  0.58067308  1
  Te  Te107  1  0.06859189  0.91449035  0.92945265  1
  Te  Te108  1  0.40515442  0.25017238  0.24536626  1
  Te  Te109  1  0.41401059  0.27118491  0.59602233  1
  Te  Te110  1  0.40359585  0.25086064  0.88239832  1
  Te  Te111  1  0.40954955  0.54930808  0.24095188  1
  Te  Te112  1  0.39865063  0.53157251  0.60619225  1
  Te  Te113  1  0.41717028  0.58671899  0.91372286  1
  Te  Te114  1  0.40853387  0.92247783  0.24684243  1
  Te  Te115  1  0.41352703  0.93362572  0.60596464  1
  Te  Te116  1  0.42794114  0.91103115  0.90769704  1
  Te  Te117  1  0.75446616  0.24727489  0.23458318  1
  Te  Te118  1  0.72481749  0.25321881  0.58909329  1
  Te  Te119  1  0.75724577  0.25028330  0.92771819  1
  Te  Te120  1  0.74909778  0.58569695  0.26144952  1
  Te  Te121  1  0.74181918  0.57737082  0.56410895  1
  Te  Te122  1  0.75199601  0.55841750  0.88003217  1
  Te  Te123  1  0.75796006  0.94738155  0.25736538  1
  Te  Te124  1  0.77901560  0.97748122  0.53003731  1
  Te  Te125  1  0.75286707  0.92788468  0.92476581  1
  Te  Te126  1  0.25509438  0.24656453  0.06450845  1
  Te  Te127  1  0.24039700  0.23242820  0.41121483  1
  Te  Te128  1  0.27854731  0.29687481  0.78977964  1
  Te  Te129  1  0.26635745  0.56359993  0.08739781  1
  Te  Te130  1  0.26021051  0.56721594  0.43191035  1
  Te  Te131  1  0.26943890  0.60616794  0.73646566  1
  Te  Te132  1  0.24579021  0.91506086  0.08028987  1
  Te  Te133  1  0.23305091  0.89827554  0.42076245  1
  Te  Te134  1  0.25910094  0.91804069  0.75164211  1
  Te  Te135  1  0.60223645  0.25589538  0.07684409  1
  Te  Te136  1  0.58275003  0.25382611  0.43871975  1
  Te  Te137  1  0.58190212  0.24982309  0.74754085  1
  Te  Te138  1  0.58597887  0.58115320  0.08072419  1
  Te  Te139  1  0.55006805  0.56015616  0.41934732  1
  Te  Te140  1  0.58943442  0.54786827  0.74011533  1
  Te  Te141  1  0.59044231  0.92346862  0.06771989  1
  Te  Te142  1  0.60248261  0.89091682  0.44674486  1
  Te  Te143  1  0.59325308  0.91074669  0.71201789  1
  Te  Te144  1  0.88497040  0.23163408  0.04784240  1
  Te  Te145  1  0.90323393  0.26150576  0.40539742  1
  Te  Te146  1  0.91043873  0.23393158  0.74392991  1
  Te  Te147  1  0.91213342  0.56874359  0.09114315  1
  Te  Te148  1  0.92275623  0.56700375  0.41277974  1
  Te  Te149  1  0.92898713  0.55367009  0.76326131  1
  Te  Te150  1  0.89897639  0.93412072  0.10382221  1
  Te  Te151  1  0.87749325  0.91279551  0.42902063  1
  Te  Te152  1  0.88889793  0.91203186  0.73990696  1
  Te  Te153  1  0.26210737  0.09701882  0.22834515  1
  Te  Te154  1  0.26253951  0.09304465  0.60913779  1
  Te  Te155  1  0.24356330  0.09275387  0.91676059  1
  Te  Te156  1  0.24648478  0.41015541  0.25836970  1
  Te  Te157  1  0.27021404  0.41321215  0.59563677  1
  Te  Te158  1  0.25388590  0.39834604  0.91825582  1
  Te  Te159  1  0.23561086  0.74244322  0.26005486  1
  Te  Te160  1  0.27728463  0.74814797  0.58043867  1
  Te  Te161  1  0.23817731  0.76827676  0.91922244  1
  Te  Te162  1  0.60420113  0.09542190  0.24153999  1
  Te  Te163  1  0.59871277  0.09545559  0.58333609  1
  Te  Te164  1  0.58455380  0.07734438  0.92201456  1
  Te  Te165  1  0.57500900  0.41518600  0.26179794  1
  Te  Te166  1  0.61218006  0.44381619  0.62440374  1
  Te  Te167  1  0.61452721  0.41494565  0.91857749  1
  Te  Te168  1  0.58444084  0.74884441  0.24489114  1
  Te  Te169  1  0.57466509  0.74401885  0.58278011  1
  Te  Te170  1  0.57809012  0.74918494  0.91137296  1
  Te  Te171  1  0.94039896  0.09291499  0.24729822  1
  Te  Te172  1  0.91818865  0.06417726  0.57809957  1
  Te  Te173  1  0.92098874  0.12038981  0.91463930  1
  Te  Te174  1  0.94103812  0.38961672  0.22169335  1
  Te  Te175  1  0.92014078  0.42214645  0.57865548  1
  Te  Te176  1  0.93318745  0.40424263  0.91719363  1
  Te  Te177  1  0.89344119  0.76945663  0.26674920  1
  Te  Te178  1  0.89424495  0.75596220  0.60385037  1
  Te  Te179  1  0.90198682  0.73073241  0.89964817  1
