# generated using pymatgen
data_In2Te3
_symmetry_space_group_name_H-M   'P 1'
_cell_length_a   18.86817212
_cell_length_b   18.87663958
_cell_length_c   18.87713996
_cell_angle_alpha   90.03799026
_cell_angle_beta   89.92055509
_cell_angle_gamma   90.00777374
_symmetry_Int_Tables_number   1
_chemical_formula_structural   In2Te3
_chemical_formula_sum   'In72 Te108'
_cell_volume   6723.41923333
_cell_formula_units_Z   36
loop_
 _symmetry_equiv_pos_site_id
 _symmetry_equiv_pos_as_xyz
  1  'x, y, z'
loop_
 _atom_site_type_symbol
 _atom_site_label
 _atom_site_symmetry_multiplicity
 _atom_site_fract_x
 _atom_site_fract_y
 _atom_site_fract_z
 _atom_site_occupancy
  In  In0  1  0.65308888  0.82925206  0.52262990  1
  In  In1  1  0.16334944  0.51999980  0.67818849  1
  In  In2  1  0.51101107  0.83197765  0.00103769  1
  In  In3  1  0.33661419  0.30506677  0.64430093  1
  In  In4  1  0.63598708  0.65319804  0.68480529  1
  In  In5  1  0.50198523  0.49303192  0.65932571  1
  In  In6  1  0.82337611  0.66222814  0.82270642  1
  In  In7  1  0.17871594  0.33772314  0.48246066  1
  In  In8  1  0.00425124  0.68130440  0.34218395  1
  In  In9  1  0.33971958  0.51824027  0.47804928  1
  In  In10  1  0.00374363  0.82355931  0.83582431  1
  In  In11  1  0.64321787  -0.00117903  -0.00306593  1
  In  In12  1  0.16478823  0.33283248  0.18090941  1
  In  In13  1  0.47887325  0.66105969  0.83316246  1
  In  In14  1  0.49564875  0.32470286  0.85772892  1
  In  In15  1  0.16552869  0.17754738  -0.00042943  1
  In  In16  1  0.67045500  0.66934818  0.34785320  1
  In  In17  1  0.48518919  0.29986756  0.52636318  1
  In  In18  1  0.01614383  0.14279446  0.48747752  1
  In  In19  1  0.48133273  0.84242370  0.32180453  1
  In  In20  1  0.01957593  0.84933962  0.49849429  1
  In  In21  1  0.01389716  0.68529200  0.67458550  1
  In  In22  1  0.19837119  -0.01060456  0.81996272  1
  In  In23  1  0.81016173  0.86626193  0.00118314  1
  In  In24  1  0.81635638  0.31223314  0.51914751  1
  In  In25  1  0.65285626  0.33319288  0.32021133  1
  In  In26  1  0.52159816  0.00095367  0.55637027  1
  In  In27  1  0.82691825  0.01456255  0.15694232  1
  In  In28  1  0.67203004  0.00497391  0.33364402  1
  In  In29  1  0.00037840  0.51758664  0.84745687  1
  In  In30  1  0.33482214  0.70718876  0.66143947  1
  In  In31  1  0.35085604  0.18427192  0.50499807  1
  In  In32  1  0.85112252  0.50233843  0.31503133  1
  In  In33  1  0.77030853  0.33408110  0.79028679  1
  In  In34  1  0.68357085  0.66338640  -0.00700821  1
  In  In35  1  0.18050151  0.84205666  0.02994082  1
  In  In36  1  0.19446525  0.65597060  0.16332451  1
  In  In37  1  0.62728332  0.18036759  0.13154021  1
  In  In38  1  0.00757577  0.12469329  0.15481538  1
  In  In39  1  0.79941659  0.66549453  0.49274999  1
  In  In40  1  -0.00687539  0.49972295  0.16590373  1
  In  In41  1  0.32637017  0.83411827  0.48938402  1
  In  In42  1  0.55167648  0.66664594  0.50019863  1
  In  In43  1  0.84472697  -0.00060177  0.49845440  1
  In  In44  1  0.65019707  0.47419213  0.14675949  1
  In  In45  1  0.00866564  0.47596933  0.51673390  1
  In  In46  1  -0.01479308  0.30900282  0.66650211  1
  In  In47  1  0.00470319  0.01278626  0.01045800  1
  In  In48  1  0.48096605  0.68281487  0.16315831  1
  In  In49  1  0.83497179  0.84368134  0.66352553  1
  In  In50  1  0.35337360  0.48639767  0.86593532  1
  In  In51  1  0.85113981  0.68046764  0.16536635  1
  In  In52  1  0.00044519  0.34335294  0.31159440  1
  In  In53  1  0.32578116  0.67097029  0.32785515  1
  In  In54  1  0.34085514  -0.01927309  -0.00837124  1
  In  In55  1  0.66219828  0.49687076  0.50034914  1
  In  In56  1  0.03318542  0.68758477  -0.01619306  1
  In  In57  1  0.18943872  0.32764944  0.82074330  1
  In  In58  1  0.34236108  0.00839223  0.32103555  1
  In  In59  1  0.82443036  0.47787930  0.01124552  1
  In  In60  1  0.82691868  0.17638188  0.33969223  1
  In  In61  1  0.83368815  0.00279295  0.86394927  1
  In  In62  1  0.35202331  0.14913517  0.14526826  1
  In  In63  1  0.35196594  0.48095079  0.14356492  1
  In  In64  1  0.17489326  -0.01112132  0.50350678  1
  In  In65  1  0.65762313  0.17213855  0.86542889  1
  In  In66  1  0.19076490  0.68823606  0.83294875  1
  In  In67  1  0.01094991  0.31646890  0.01038348  1
  In  In68  1  0.81512694  0.14928702  0.67850525  1
  In  In69  1  0.48786141  0.16824179  0.32796813  1
  In  In70  1  0.33319806  0.32528212  0.32377782  1
  In  In71  1  0.17741855  0.15728692  0.69388938  1
  Te  Te72  1  0.14063207  0.05680616  0.09433330  1
  Te  Te73  1  0.09495154  0.05819781  0.39901263  1
  Te  Te74  1  0.08592559  0.06981952  0.76741387  1
  Te  Te75  1  0.09309845  0.42413057  0.08068560  1
  Te  Te76  1  0.09206182  0.42930768  0.39770515  1
  Te  Te77  1  0.07554029  0.41453545  0.74492801  1
  Te  Te78  1  0.08253823  0.75317445  0.10759000  1
  Te  Te79  1  0.10314899  0.76737757  0.40797484  1
  Te  Te80  1  0.11385363  0.77983167  0.73875283  1
  Te  Te81  1  0.44395064  0.07304251  0.05523926  1
  Te  Te82  1  0.42977389  0.07108639  0.43194523  1
  Te  Te83  1  0.39439749  0.01589362  0.76765310  1
  Te  Te84  1  0.45107185  0.41257466  0.04778223  1
  Te  Te85  1  0.41669735  0.39888378  0.42832718  1
  Te  Te86  1  0.40519086  0.40533499  0.73882150  1
  Te  Te87  1  0.40078917  0.74845507  0.05815887  1
  Te  Te88  1  0.43422001  0.73687026  0.42453676  1
  Te  Te89  1  0.39269474  0.77146600  0.78163599  1
  Te  Te90  1  0.73799335  0.09716551  0.06525562  1
  Te  Te91  1  0.74231838  0.09462504  0.43529806  1
  Te  Te92  1  0.73007276  0.06895203  0.77332065  1
  Te  Te93  1  0.73873272  0.37709946  0.07732623  1
  Te  Te94  1  0.75919610  0.41321238  0.40811243  1
  Te  Te95  1  0.71052275  0.44521100  0.71996703  1
  Te  Te96  1  0.74497603  0.76207555  0.09119762  1
  Te  Te97  1  0.75079155  0.78261738  0.41201809  1
  Te  Te98  1  0.73760832  0.75700525  0.74207122  1
  Te  Te99  1  0.07752258  0.23044920  0.24925410  1
  Te  Te100  1  0.09694242  0.25087500  0.58018342  1
  Te  Te101  1  0.08229159  0.24509068  0.89344601  1
  Te  Te102  1  0.08207906  0.58771296  0.24898009  1
  Te  Te103  1  0.08630464  0.59593251  0.57229076  1
  Te  Te104  1  0.11792399  0.58127733  0.91777519  1
  Te  Te105  1  0.05020647  0.96888477  0.17608802  1
  Te  Te106  1  0.07866791  0.93482548  0.60166513  1
  Te  Te107  1  0.08773956  0.91371967  0.92479726  1
  Te  Te108  1  0.42839542  0.26176400  0.22535795  1
  Te  Te109  1  0.44674902  0.19247077  0.63518169  1
  Te  Te110  1  0.40852798  0.27641280  0.96945994  1
  Te  Te111  1  0.41477062  0.57550591  0.24807568  1
  Te  Te112  1  0.42019757  0.59577086  0.58279662  1
  Te  Te113  1  0.41162303  0.59549285  0.94951750  1
  Te  Te114  1  0.42099208  0.93099561  0.22030483  1
  Te  Te115  1  0.39383202  0.92385246  0.59139655  1
  Te  Te116  1  0.44211518  0.92054986  0.89786936  1
  Te  Te117  1  0.73190453  0.23306594  0.23727750  1
  Te  Te118  1  0.72002448  0.23201494  0.59796743  1
  Te  Te119  1  0.74347424  0.28010815  0.92427109  1
  Te  Te120  1  0.74847696  0.58431313  0.24000864  1
  Te  Te121  1  0.74249673  0.57621242  0.60380091  1
  Te  Te122  1  0.74930479  0.55730691  0.90501493  1
  Te  Te123  1  0.74916365  0.92193115  0.24069815  1
  Te  Te124  1  0.73743051  0.93534853  0.59232435  1
  Te  Te125  1  0.71482839  0.90885262  0.89342711  1
  Te  Te126  1  0.25864636  0.26132441  0.08630757  1
  Te  Te127  1  0.24488912  0.22880842  0.40127316  1
  Te  Te128  1  0.29039454  0.22629483  0.76953705  1
  Te  Te129  1  0.27354136  0.57925220  0.06354947  1
  Te  Te130  1  0.23367852  0.59479415  0.41487123  1
  Te  Te131  1  0.27644661  0.58490818  0.75452283  1
  Te  Te132  1  0.28257166  0.91312901  0.11349800  1
  Te  Te133  1  0.24687264  0.91072358  0.38605121  1
  Te  Te134  1  0.28608895  0.92158352  0.71959154  1
  Te  Te135  1  0.54879115  0.27420853  0.04136788  1
  Te  Te136  1  0.58278537  0.24260896  0.41955739  1
  Te  Te137  1  0.58372022  0.25330625  0.76398863  1
  Te  Te138  1  0.58359374  0.59528700  0.08457933  1
  Te  Te139  1  0.57478469  0.55693973  0.39418441  1
  Te  Te140  1  0.57673122  0.54861102  0.78019728  1
  Te  Te141  1  0.59519654  0.90475750  0.09944257  1
  Te  Te142  1  0.57513474  0.91376276  0.42019032  1
  Te  Te143  1  0.52639167  0.97436352  0.70726794  1
  Te  Te144  1  0.92285527  0.22664590  0.08628451  1
  Te  Te145  1  0.92981050  0.26388837  0.42659193  1
  Te  Te146  1  0.89652864  0.24239099  0.76750725  1
  Te  Te147  1  0.92376958  0.58938005  0.06266799  1
  Te  Te148  1  0.91381385  0.57458843  0.43284776  1
  Te  Te149  1  0.91979615  0.58185713  0.73590821  1
  Te  Te150  1  0.92842617  0.90283260  0.08886807  1
  Te  Te151  1  0.92655173  0.91909481  0.40742572  1
  Te  Te152  1  0.91890661  0.92450111  0.76091898  1
  Te  Te153  1  0.25636672  0.10376330  0.24833402  1
  Te  Te154  1  0.25637444  0.09170721  0.58295301  1
  Te  Te155  1  0.25968954  0.08847499  0.91796900  1
  Te  Te156  1  0.25313777  0.43319358  0.25345529  1
  Te  Te157  1  0.24851277  0.42446613  0.58658798  1
  Te  Te158  1  0.24400375  0.41035081  0.92838865  1
  Te  Te159  1  0.26116928  0.76588994  0.23625351  1
  Te  Te160  1  0.23203313  0.74969815  0.56673997  1
  Te  Te161  1  0.26428652  0.77616429  0.92572505  1
  Te  Te162  1  0.57851084  0.08356025  0.24056678  1
  Te  Te163  1  0.58454127  0.12561884  0.60640599  1
  Te  Te164  1  0.54680579  0.09021719  0.92690232  1
  Te  Te165  1  0.55665227  0.40830736  0.23884066  1
  Te  Te166  1  0.59245503  0.39357520  0.58811107  1
  Te  Te167  1  0.57218035  0.41359684  0.95068794  1
  Te  Te168  1  0.58491941  0.75235162  0.25266686  1
  Te  Te169  1  0.55468471  0.76499132  0.61952758  1
  Te  Te170  1  0.59037144  0.74135640  0.90220852  1
  Te  Te171  1  0.91108975  0.07455720  0.27011771  1
  Te  Te172  1  0.92823206  0.08424280  0.59496256  1
  Te  Te173  1  0.91241661  0.10288098  0.93876927  1
  Te  Te174  1  0.89396930  0.39423732  0.21650909  1
  Te  Te175  1  0.89667796  0.41369157  0.59985040  1
  Te  Te176  1  0.92495238  0.40896358  0.91805920  1
  Te  Te177  1  0.91132760  0.76704645  0.26666405  1
  Te  Te178  1  0.90959266  0.74272789  0.57703379  1
  Te  Te179  1  0.89959253  0.75004609  0.92246353  1
