# generated using pymatgen
data_In2Te3
_symmetry_space_group_name_H-M   'P 1'
_cell_length_a   18.77654694
_cell_length_b   18.76967096
_cell_length_c   18.79113834
_cell_angle_alpha   89.99594143
_cell_angle_beta   90.05917223
_cell_angle_gamma   90.05216285
_symmetry_Int_Tables_number   1
_chemical_formula_structural   In2Te3
_chemical_formula_sum   'In72 Te108'
_cell_volume   6622.54722455
_cell_formula_units_Z   36
loop_
 _symmetry_equiv_pos_site_id
 _symmetry_equiv_pos_as_xyz
  1  'x, y, z'
loop_
 _atom_site_type_symbol
 _atom_site_label
 _atom_site_symmetry_multiplicity
 _atom_site_fract_x
 _atom_site_fract_y
 _atom_site_fract_z
 _atom_site_occupancy
  In  In0  1  0.17776281  0.15714094  -0.02594354  1
  In  In1  1  -0.00508521  0.51643729  0.81725010  1
  In  In2  1  0.17911026  0.84154205  -0.02063784  1
  In  In3  1  0.17090817  0.64383063  0.14248874  1
  In  In4  1  0.16298949  -0.02508151  0.17133577  1
  In  In5  1  0.33457246  0.14365331  0.82156012  1
  In  In6  1  0.65221752  0.14665087  0.51719353  1
  In  In7  1  0.16268349  0.84265698  0.34644010  1
  In  In8  1  0.49432504  -0.00221714  0.50536471  1
  In  In9  1  0.84311140  -0.01404423  0.48940481  1
  In  In10  1  0.18446215  0.47676650  0.66301706  1
  In  In11  1  0.68467044  0.65497383  0.31706090  1
  In  In12  1  0.13894021  0.32723528  0.15843473  1
  In  In13  1  0.31447918  0.31709605  0.39071763  1
  In  In14  1  0.35684664  0.15004777  0.16242094  1
  In  In15  1  0.03865555  0.13971081  0.50795262  1
  In  In16  1  0.46341657  0.32197381  0.50522057  1
  In  In17  1  0.83026021  0.84970705  0.68410239  1
  In  In18  1  0.17813267  0.69544682  0.52187400  1
  In  In19  1  0.50751295  0.00734885  0.15520712  1
  In  In20  1  0.01190575  0.30406595  0.66084871  1
  In  In21  1  0.69928689  0.86945371  0.18529291  1
  In  In22  1  0.81201267  0.34544694  0.48762529  1
  In  In23  1  0.52018966  0.32336574  0.16424834  1
  In  In24  1  0.33842077  -0.00684227  0.35077651  1
  In  In25  1  0.50703619  0.32812616  0.84313192  1
  In  In26  1  0.00977413  0.51434868  0.47489227  1
  In  In27  1  0.85817384  0.52155550  0.66011158  1
  In  In28  1  0.83677716  0.68770876  0.50403861  1
  In  In29  1  0.47343960  0.66269292  0.49934337  1
  In  In30  1  0.67664508  0.69394553  0.68378775  1
  In  In31  1  -0.00280930  0.69819519  0.32556207  1
  In  In32  1  0.48324182  0.67247003  0.83734333  1
  In  In33  1  0.65780305  0.16331642  0.85451272  1
  In  In34  1  -0.02521416  0.16778749  0.16626353  1
  In  In35  1  0.00269473  0.33504867  0.32928905  1
  In  In36  1  0.81821930  0.33504638  0.86049247  1
  In  In37  1  0.32127817  0.49833187  0.14905064  1
  In  In38  1  0.17997542  0.12748741  0.68138626  1
  In  In39  1  0.32004298  0.31444194  0.66360479  1
  In  In40  1  0.85086130  0.13375988  0.66265465  1
  In  In41  1  0.50518830  0.65752700  0.15484106  1
  In  In42  1  0.48572247  0.50324918  0.64818047  1
  In  In43  1  0.50306434  0.15345339  0.32292797  1
  In  In44  1  0.83685815  -0.00358670  0.84243441  1
  In  In45  1  0.65355512  0.34346912  0.31976345  1
  In  In46  1  0.16776517  0.68950435  0.83279062  1
  In  In47  1  0.65534473  0.67763303  0.00086029  1
  In  In48  1  0.66213050  0.50695819  0.85482574  1
  In  In49  1  0.00963328  0.16109814  0.84031521  1
  In  In50  1  0.17027620  0.49487067  0.33265298  1
  In  In51  1  0.01586472  0.70097087  0.66622189  1
  In  In52  1  -0.00310152  0.48724164  0.13808735  1
  In  In53  1  0.49683154  -0.00443590  0.83281991  1
  In  In54  1  0.83851718  0.17234384  0.34566103  1
  In  In55  1  0.68607370  0.14566910  0.13315864  1
  In  In56  1  -0.01407178  0.84690057  0.16376163  1
  In  In57  1  0.48783280  0.84418931  -0.00460395  1
  In  In58  1  0.83697245  0.33800256  0.14225041  1
  In  In59  1  0.48210180  0.84771311  0.68629221  1
  In  In60  1  0.32964433  0.33719295  -0.01224030  1
  In  In61  1  0.82126876  0.50486746  0.00869077  1
  In  In62  1  0.66947985  0.31576555  0.70278106  1
  In  In63  1  0.64718713  0.49448137  0.48883455  1
  In  In64  1  0.33119288  0.51341966  0.84814250  1
  In  In65  1  0.66385053  0.84519883  0.49877178  1
  In  In66  1  0.82974007  0.83242284  -0.00790705  1
  In  In67  1  0.33667263  0.83188522  0.15157873  1
  In  In68  1  -0.01717295  0.66717802  -0.00171175  1
  In  In69  1  0.33734410  0.67719161  0.33888992  1
  In  In70  1  -0.00644034  0.00144132  -0.00726530  1
  In  In71  1  0.50319352  0.80509876  0.35345332  1
  Te  Te72  1  0.08862011  0.08200390  0.08805551  1
  Te  Te73  1  0.12719636  0.08597481  0.40471102  1
  Te  Te74  1  0.06697375  0.05851712  0.75131494  1
  Te  Te75  1  0.10645791  0.43051247  0.05792770  1
  Te  Te76  1  0.09948570  0.39962420  0.42950683  1
  Te  Te77  1  0.08084017  0.40707858  0.75145995  1
  Te  Te78  1  0.08947483  0.76112192  0.08472707  1
  Te  Te79  1  0.06906272  0.76704562  0.44173823  1
  Te  Te80  1  0.09231878  0.79479277  0.75515258  1
  Te  Te81  1  0.42110017  0.07241494  0.05394596  1
  Te  Te82  1  0.40802905  0.10349146  0.43071626  1
  Te  Te83  1  0.41440578  0.06304947  0.72575740  1
  Te  Te84  1  0.42599714  0.41378381  0.07751812  1
  Te  Te85  1  0.41225411  0.42410045  0.41153282  1
  Te  Te86  1  0.41517005  0.41059500  0.74983696  1
  Te  Te87  1  0.40730052  0.73057409  0.06366201  1
  Te  Te88  1  0.38508384  0.77770737  0.44382225  1
  Te  Te89  1  0.39739902  0.73619309  0.73613426  1
  Te  Te90  1  0.77593026  0.05235683  0.06292561  1
  Te  Te91  1  0.74206764  0.07659399  0.41686334  1
  Te  Te92  1  0.74212683  0.08101450  0.75327007  1
  Te  Te93  1  0.72702619  0.41928254  0.08501871  1
  Te  Te94  1  0.75242819  0.44452027  0.38722754  1
  Te  Te95  1  0.76327664  0.43480633  0.74497009  1
  Te  Te96  1  0.75000119  0.75323129  0.09495724  1
  Te  Te97  1  0.75114431  0.76471952  0.40378812  1
  Te  Te98  1  0.75546129  0.76743467  0.78297440  1
  Te  Te99  1  0.08447862  0.22742503  0.26052367  1
  Te  Te100  1  0.12467917  0.24208473  0.58287089  1
  Te  Te101  1  0.08060910  0.25757728  0.92631973  1
  Te  Te102  1  0.07599848  0.58182266  0.24936903  1
  Te  Te103  1  0.08169454  0.58073526  0.59282579  1
  Te  Te104  1  0.08531940  0.58946324  0.91694331  1
  Te  Te105  1  0.05857395  0.92887326  0.27388013  1
  Te  Te106  1  0.14090236  0.92554194  0.59482053  1
  Te  Te107  1  0.09182828  0.93562883  0.90294591  1
  Te  Te108  1  0.41019135  0.25734746  0.26147592  1
  Te  Te109  1  0.40384008  0.21754615  0.58948559  1
  Te  Te110  1  0.41600366  0.23240090  0.91942879  1
  Te  Te111  1  0.40941995  0.58114972  0.24725989  1
  Te  Te112  1  0.38194349  0.58894250  0.58825476  1
  Te  Te113  1  0.44613481  0.56205108  0.92709371  1
  Te  Te114  1  0.42424352  0.90951083  0.24980133  1
  Te  Te115  1  0.39591325  0.92685274  0.59269710  1
  Te  Te116  1  0.39432466  0.90470682  0.89820635  1
  Te  Te117  1  0.75059922  0.24890590  0.24505905  1
  Te  Te118  1  0.75731059  0.24307315  0.59005199  1
  Te  Te119  1  0.73317767  0.25261330  0.94782071  1
  Te  Te120  1  0.77946981  0.56443520  0.25632559  1
  Te  Te121  1  0.74052271  0.58552870  0.57499424  1
  Te  Te122  1  0.76160964  0.60681574  0.91159898  1
  Te  Te123  1  0.79812145  0.93325890  0.27943537  1
  Te  Te124  1  0.74175043  0.93507721  0.59238491  1
  Te  Te125  1  0.73717132  0.93677580  0.93739043  1
  Te  Te126  1  0.25306916  0.24110408  0.09022883  1
  Te  Te127  1  0.22743598  0.20526320  0.42400479  1
  Te  Te128  1  0.23262633  0.24559830  0.76712905  1
  Te  Te129  1  0.26015612  0.58306787  0.04329021  1
  Te  Te130  1  0.24312405  0.59199223  0.42444839  1
  Te  Te131  1  0.24709891  0.58865427  0.74535697  1
  Te  Te132  1  0.26733021  0.93593237  0.06665341  1
  Te  Te133  1  0.23658012  0.93021750  0.44388867  1
  Te  Te134  1  0.21948993  0.90519162  0.72077216  1
  Te  Te135  1  0.57449968  0.22199192  0.07099531  1
  Te  Te136  1  0.58520435  0.25039452  0.42244192  1
  Te  Te137  1  0.55866988  0.22402754  0.74435618  1
  Te  Te138  1  0.60112021  0.56863884  0.08562687  1
  Te  Te139  1  0.56886007  0.59281651  0.40270019  1
  Te  Te140  1  0.58660106  0.57886598  0.73926122  1
  Te  Te141  1  0.59886713  0.91528625  0.07633233  1
  Te  Te142  1  0.58098303  0.92742288  0.39947656  1
  Te  Te143  1  0.59438954  0.91077544  0.75709194  1
  Te  Te144  1  0.93657267  0.26451434  0.06181585  1
  Te  Te145  1  0.93095187  0.24728176  0.44171043  1
  Te  Te146  1  0.89938503  0.25282984  0.75179960  1
  Te  Te147  1  0.89784282  0.59953333  0.10458592  1
  Te  Te148  1  0.90471337  0.59385405  0.40291997  1
  Te  Te149  1  0.91128138  0.62850353  0.75439753  1
  Te  Te150  1  0.89002064  0.94669605  0.09397692  1
  Te  Te151  1  0.90870002  0.90642710  0.38427497  1
  Te  Te152  1  0.93530146  0.93084419  0.75327726  1
  Te  Te153  1  0.25679341  0.07157456  0.24786618  1
  Te  Te154  1  0.24663500  0.03563901  0.58318517  1
  Te  Te155  1  0.24255673  0.05082832  0.89559096  1
  Te  Te156  1  0.24965347  0.39937594  0.24561726  1
  Te  Te157  1  0.26676049  0.40904712  0.56031745  1
  Te  Te158  1  0.23675225  0.41362751  0.90282206  1
  Te  Te159  1  0.23704457  0.75169209  0.24630109  1
  Te  Te160  1  0.23630231  0.77872461  0.62992957  1
  Te  Te161  1  0.27926481  0.76217778  0.90249262  1
  Te  Te162  1  0.60882446  0.07501357  0.24826814  1
  Te  Te163  1  0.57539235  0.06533298  0.61148400  1
  Te  Te164  1  0.56815264  0.07855920  0.93685017  1
  Te  Te165  1  0.57466768  0.43847961  0.24007369  1
  Te  Te166  1  0.58977105  0.39609805  0.59095421  1
  Te  Te167  1  0.60209650  0.39755810  0.93336278  1
  Te  Te168  1  0.58780932  0.76109622  0.23373421  1
  Te  Te169  1  0.57599508  0.74846015  0.58051589  1
  Te  Te170  1  0.58338426  0.76788462  0.90114478  1
  Te  Te171  1  0.91419109  0.07305242  0.26431743  1
  Te  Te172  1  0.94818626  0.04489939  0.58595226  1
  Te  Te173  1  0.89880591  0.10722341  0.93091075  1
  Te  Te174  1  0.91027041  0.42378459  0.24854302  1
  Te  Te175  1  0.92729234  0.41420624  0.57589677  1
  Te  Te176  1  0.92209390  0.42835880  0.92142931  1
  Te  Te177  1  0.89661333  0.74840429  0.22989338  1
  Te  Te178  1  0.92418379  0.78735079  0.57849774  1
  Te  Te179  1  0.94158743  0.77892921  0.91247619  1
