# generated using pymatgen
data_In2Te3
_symmetry_space_group_name_H-M   'P 1'
_cell_length_a   18.90467599
_cell_length_b   18.89055680
_cell_length_c   18.89815687
_cell_angle_alpha   89.87017760
_cell_angle_beta   89.99163942
_cell_angle_gamma   89.92144457
_symmetry_Int_Tables_number   1
_chemical_formula_structural   In2Te3
_chemical_formula_sum   'In72 Te108'
_cell_volume   6748.88331202
_cell_formula_units_Z   36
loop_
 _symmetry_equiv_pos_site_id
 _symmetry_equiv_pos_as_xyz
  1  'x, y, z'
loop_
 _atom_site_type_symbol
 _atom_site_label
 _atom_site_symmetry_multiplicity
 _atom_site_fract_x
 _atom_site_fract_y
 _atom_site_fract_z
 _atom_site_occupancy
  In  In0  1  -0.00855916  0.14767126  0.17216046  1
  In  In1  1  0.50838551  0.33380821  0.49786763  1
  In  In2  1  0.82440259  0.14175086  0.32065091  1
  In  In3  1  0.15833161  0.34621080  0.15074269  1
  In  In4  1  0.51702672  0.81671101  0.00449389  1
  In  In5  1  0.66841732  0.18394151  0.16444491  1
  In  In6  1  0.68626873  -0.02220300  0.34355933  1
  In  In7  1  -0.00949654  0.49812951  0.49561372  1
  In  In8  1  0.14016140  0.67289082  0.17992642  1
  In  In9  1  0.80355494  0.83514388  0.00988725  1
  In  In10  1  0.36202654  0.10121322  0.51580898  1
  In  In11  1  0.52050399  0.53226706  0.68001046  1
  In  In12  1  0.84748420  0.15797989  0.65537421  1
  In  In13  1  0.82068851  0.79290104  0.64538095  1
  In  In14  1  0.19020053  0.15322938  0.65299158  1
  In  In15  1  0.17131917  0.33587875  0.84442029  1
  In  In16  1  0.17105301  0.82518809  0.68375919  1
  In  In17  1  0.48547628  -0.00551870  0.17097557  1
  In  In18  1  -0.01514558  0.83705724  0.18106355  1
  In  In19  1  0.32241135  0.68454637  0.35966127  1
  In  In20  1  0.64609419  0.81510116  0.52265052  1
  In  In21  1  0.84309755  0.17594314  0.00457444  1
  In  In22  1  0.36502721  0.85066534  0.50868514  1
  In  In23  1  0.34354743  0.51463072  0.17710339  1
  In  In24  1  0.33842654  0.47422173  0.51929636  1
  In  In25  1  0.49237927  0.50193037  -0.02294670  1
  In  In26  1  -0.00671293  0.35351858  0.32582700  1
  In  In27  1  0.01186992  0.35803238  0.68010423  1
  In  In28  1  0.67212241  0.34178040  0.66509935  1
  In  In29  1  0.33930024  0.32030431  -0.00275818  1
  In  In30  1  0.67465804  0.01714502  0.00156441  1
  In  In31  1  0.19590348  0.32615352  0.52150914  1
  In  In32  1  0.48902013  0.16259444  0.33229415  1
  In  In33  1  -0.00502292  0.65343022  0.01336903  1
  In  In34  1  0.81252204  0.54657934  0.65101927  1
  In  In35  1  0.50448543  0.15590014  0.66683630  1
  In  In36  1  0.33599333  0.83217030  0.83255299  1
  In  In37  1  0.01931388  -0.01396063  0.00928829  1
  In  In38  1  0.34289546  0.16413941  0.84796306  1
  In  In39  1  0.02345697  0.15466509  0.47639345  1
  In  In40  1  -0.02568263  0.82119725  0.48116238  1
  In  In41  1  0.84801346  0.50728186  0.01401906  1
  In  In42  1  0.81087576  0.32205302  0.49888261  1
  In  In43  1  0.82041475  0.51462633  0.34217940  1
  In  In44  1  0.54042139  0.80658676  0.32131158  1
  In  In45  1  0.82654657  0.36746749  0.84775926  1
  In  In46  1  0.65889704  0.67445925  0.00287967  1
  In  In47  1  0.34959169  0.65829156  0.68661838  1
  In  In48  1  0.65145597  0.34956879  -0.00226260  1
  In  In49  1  0.01666337  0.81800003  0.83026286  1
  In  In50  1  0.00326897  -0.00731644  0.65397385  1
  In  In51  1  0.82608438  0.81732999  0.32689379  1
  In  In52  1  0.66064920  0.16756021  0.80158893  1
  In  In53  1  0.16286551  0.83651377  0.33463485  1
  In  In54  1  0.16693409  0.13108414  0.31471944  1
  In  In55  1  0.01865337  0.18878138  0.83340936  1
  In  In56  1  0.15410716  0.50045051  -0.00091240  1
  In  In57  1  0.33457310  0.16501407  0.17306916  1
  In  In58  1  0.32744636  0.30813162  0.34158440  1
  In  In59  1  0.34822622  0.67779133  -0.00329774  1
  In  In60  1  0.64896102  -0.02128690  0.65039287  1
  In  In61  1  0.20156200  0.83940909  -0.00340943  1
  In  In62  1  0.82626135  0.65521476  0.83837154  1
  In  In63  1  0.35308447  0.36123312  0.66620527  1
  In  In64  1  0.66987154  0.51208416  0.14492417  1
  In  In65  1  0.31721452  0.02115173  0.00015567  1
  In  In66  1  0.83353136  -0.02416138  0.85107467  1
  In  In67  1  0.15655532  0.67033498  0.51082337  1
  In  In68  1  0.14319332  0.51860008  0.32186945  1
  In  In69  1  0.67255134  0.34187737  0.31569947  1
  In  In70  1  0.50634094  -0.01418039  0.82113404  1
  In  In71  1  0.53522746  0.53585056  0.34817748  1
  Te  Te72  1  0.09437021  0.07994874  0.09199582  1
  Te  Te73  1  0.10609190  0.04786199  0.42039177  1
  Te  Te74  1  0.08550536  0.08547376  0.74209785  1
  Te  Te75  1  0.06441627  0.44944002  0.10525882  1
  Te  Te76  1  0.09913719  0.40348360  0.42849716  1
  Te  Te77  1  0.08596989  0.43750692  0.77692257  1
  Te  Te78  1  0.08405964  0.76859910  0.07295587  1
  Te  Te79  1  0.07305632  0.73351431  0.40168838  1
  Te  Te80  1  0.07914045  0.72318858  0.73821935  1
  Te  Te81  1  0.42762638  0.09703698  0.07328324  1
  Te  Te82  1  0.39572356  0.05700487  0.37821438  1
  Te  Te83  1  0.40466752  0.07144991  0.74534841  1
  Te  Te84  1  0.41664723  0.42055681  0.08529486  1
  Te  Te85  1  0.42474708  0.41842789  0.40109324  1
  Te  Te86  1  0.41868261  0.45472953  0.75865100  1
  Te  Te87  1  0.41208773  0.76573909  0.09455360  1
  Te  Te88  1  0.44114333  0.74650625  0.42946531  1
  Te  Te89  1  0.42469288  0.78069689  0.72424818  1
  Te  Te90  1  0.76738429  0.08538619  0.10020116  1
  Te  Te91  1  0.73843849  0.08850828  0.42531610  1
  Te  Te92  1  0.75649572  0.06294792  0.74374646  1
  Te  Te93  1  0.76010295  0.40405854  0.08714408  1
  Te  Te94  1  0.72770898  0.42708460  0.42858042  1
  Te  Te95  1  0.74421207  0.44601689  0.74713213  1
  Te  Te96  1  0.72196916  0.75967703  0.11229263  1
  Te  Te97  1  0.73652124  0.74114632  0.42558089  1
  Te  Te98  1  0.74227058  0.75424519  0.76381477  1
  Te  Te99  1  0.09354805  0.25587844  0.26057815  1
  Te  Te100  1  0.07414931  0.24805874  0.59337347  1
  Te  Te101  1  0.07516055  0.27254029  0.93830360  1
  Te  Te102  1  0.03867355  0.58428229  0.24278835  1
  Te  Te103  1  0.07016841  0.58026432  0.58913982  1
  Te  Te104  1  0.08717378  0.60081851  0.91307948  1
  Te  Te105  1  0.08766663  0.92242411  0.24022691  1
  Te  Te106  1  0.07527534  0.88581317  0.57716432  1
  Te  Te107  1  0.10410283  0.91838821  0.90282117  1
  Te  Te108  1  0.42916909  0.26559997  0.23715880  1
  Te  Te109  1  0.40794142  0.24681194  0.57153159  1
  Te  Te110  1  0.43691989  0.25838154  0.90686115  1
  Te  Te111  1  0.42234385  0.60425608  0.27082808  1
  Te  Te112  1  0.42587508  0.58509716  0.57170938  1
  Te  Te113  1  0.41833976  0.60087830  0.89302043  1
  Te  Te114  1  0.43320487  0.88429419  0.25397980  1
  Te  Te115  1  0.40067426  0.97140841  0.58836112  1
  Te  Te116  1  0.42172904  0.91982876  0.93100263  1
  Te  Te117  1  0.77642229  0.26112399  0.23982475  1
  Te  Te118  1  0.73014691  0.22614148  0.58495736  1
  Te  Te119  1  0.74726641  0.24229967  0.90263333  1
  Te  Te120  1  0.72258936  0.59647377  0.25758719  1
  Te  Te121  1  0.71628581  0.61132284  0.55610841  1
  Te  Te122  1  0.73864609  0.56912668  0.92697749  1
  Te  Te123  1  0.74816919  0.90392974  0.23415685  1
  Te  Te124  1  0.75881445  0.90928358  0.57005552  1
  Te  Te125  1  0.71286378  0.90276592  0.90649163  1
  Te  Te126  1  0.24007108  0.24003001  0.07943706  1
  Te  Te127  1  0.24378363  0.21752218  0.42663021  1
  Te  Te128  1  0.25867900  0.25848927  0.73873888  1
  Te  Te129  1  0.24341204  0.59299030  0.09340093  1
  Te  Te130  1  0.24688143  0.56608388  0.42467563  1
  Te  Te131  1  0.26111371  0.55064916  0.72834318  1
  Te  Te132  1  0.24733325  0.93497967  0.09787108  1
  Te  Te133  1  0.25422223  0.90699794  0.42789925  1
  Te  Te134  1  0.24009632  0.92378115  0.76774867  1
  Te  Te135  1  0.57613019  0.24667794  0.06990173  1
  Te  Te136  1  0.59264647  0.24766144  0.40621168  1
  Te  Te137  1  0.56341196  0.27129018  0.74565116  1
  Te  Te138  1  0.55702925  0.59185827  0.08239958  1
  Te  Te139  1  0.62389752  0.62587077  0.42773942  1
  Te  Te140  1  0.60232540  0.62694686  0.76164320  1
  Te  Te141  1  0.59024800  0.92262596  0.08676198  1
  Te  Te142  1  0.57817708  0.91302340  0.42739151  1
  Te  Te143  1  0.56121390  0.88577258  0.72605602  1
  Te  Te144  1  0.93676932  0.25339165  0.08499326  1
  Te  Te145  1  0.91630104  0.25272130  0.41483487  1
  Te  Te146  1  0.90457660  0.25898203  0.75382207  1
  Te  Te147  1  0.87832650  0.62594440  0.09927625  1
  Te  Te148  1  0.90065347  0.59844271  0.43568415  1
  Te  Te149  1  0.91451552  0.57690689  0.75145661  1
  Te  Te150  1  0.90217165  0.92460534  0.08401262  1
  Te  Te151  1  0.91249909  0.92111065  0.39079740  1
  Te  Te152  1  0.91445708  0.90361322  0.74284545  1
  Te  Te153  1  0.27833330  0.05322058  0.25318622  1
  Te  Te154  1  0.23975584  0.03721605  0.57422666  1
  Te  Te155  1  0.22969487  0.09857164  0.91141183  1
  Te  Te156  1  0.25085964  0.41781572  0.25657612  1
  Te  Te157  1  0.22311323  0.44588169  0.62015322  1
  Te  Te158  1  0.26452042  0.42944568  0.92166664  1
  Te  Te159  1  0.25335573  0.75210100  0.24275233  1
  Te  Te160  1  0.26613161  0.74818244  0.58178343  1
  Te  Te161  1  0.24324690  0.73049914  0.89838007  1
  Te  Te162  1  0.59109394  0.08263173  0.24961527  1
  Te  Te163  1  0.57788078  0.07759698  0.56724010  1
  Te  Te164  1  0.58064148  0.08921711  0.90459621  1
  Te  Te165  1  0.57710321  0.43397635  0.24233501  1
  Te  Te166  1  0.58631236  0.43328432  0.57907842  1
  Te  Te167  1  0.59499143  0.43510767  0.89390915  1
  Te  Te168  1  0.62899382  0.72254651  0.23435646  1
  Te  Te169  1  0.62046228  0.70891854  0.63245512  1
  Te  Te170  1  0.56140521  0.72153582  0.89742714  1
  Te  Te171  1  0.93459521  0.05562423  0.27497900  1
  Te  Te172  1  0.91887010  0.07129651  0.55438181  1
  Te  Te173  1  0.92769505  0.07946651  0.90975387  1
  Te  Te174  1  0.90138501  0.43468956  0.24659210  1
  Te  Te175  1  0.89476330  0.41051775  0.58944621  1
  Te  Te176  1  0.93408576  0.42424472  0.92735004  1
  Te  Te177  1  0.90891239  0.72509464  0.24189302  1
  Te  Te178  1  0.92204413  0.71458220  0.57288544  1
  Te  Te179  1  0.90870542  0.76196186  0.92618899  1
