# generated using pymatgen
data_In2Te3
_symmetry_space_group_name_H-M   'P 1'
_cell_length_a   18.81494810
_cell_length_b   18.81365099
_cell_length_c   18.81213176
_cell_angle_alpha   90.05555774
_cell_angle_beta   89.92048423
_cell_angle_gamma   89.92265538
_symmetry_Int_Tables_number   1
_chemical_formula_structural   In2Te3
_chemical_formula_sum   'In72 Te108'
_cell_volume   6659.06264986
_cell_formula_units_Z   36
loop_
 _symmetry_equiv_pos_site_id
 _symmetry_equiv_pos_as_xyz
  1  'x, y, z'
loop_
 _atom_site_type_symbol
 _atom_site_label
 _atom_site_symmetry_multiplicity
 _atom_site_fract_x
 _atom_site_fract_y
 _atom_site_fract_z
 _atom_site_occupancy
  In  In0  1  0.18185462  0.85432382  0.31872656  1
  In  In1  1  0.31558703  0.01874617  0.62690026  1
  In  In2  1  0.15819644  0.84709609  0.66559583  1
  In  In3  1  0.00558931  0.17635983  0.15594350  1
  In  In4  1  0.48364682  0.16564897  0.66121723  1
  In  In5  1  0.31196056  0.49549400  0.16031643  1
  In  In6  1  0.31441637  0.32836030  0.00803059  1
  In  In7  1  0.18348318  0.83949889  0.03038501  1
  In  In8  1  0.33601491  0.16078143  0.83596420  1
  In  In9  1  0.48577777  0.30387910  0.17728131  1
  In  In10  1  0.81300873  0.51299172  0.37620376  1
  In  In11  1  0.33550918  0.34121114  0.67316987  1
  In  In12  1  0.18231011  0.30284097  0.17038660  1
  In  In13  1  0.66136479  0.18325018  0.47940255  1
  In  In14  1  0.49608257  0.49971197  0.33213950  1
  In  In15  1  0.65486853  0.13353491  0.15818100  1
  In  In16  1  0.00722503  0.82247959  0.83469562  1
  In  In17  1  0.65464723  0.66608873  0.32966886  1
  In  In18  1  0.82495910  0.67215196  0.18751753  1
  In  In19  1  0.01908968  0.34774696  0.31433023  1
  In  In20  1  0.85384019  0.01346656  0.85862844  1
  In  In21  1  0.47533391  0.14252217  0.03372989  1
  In  In22  1  0.81367836  0.82741803  0.69407271  1
  In  In23  1  0.01365036  0.33137930  0.64744992  1
  In  In24  1  -0.01721048  0.64796652  0.66786861  1
  In  In25  1  0.47704638  0.01283282  0.49017025  1
  In  In26  1  0.01175185  0.16350673  0.50143858  1
  In  In27  1  0.15597554  0.31355555  0.86602358  1
  In  In28  1  0.18250968  0.48813869  0.66804181  1
  In  In29  1  0.00943973  0.47995149  0.16085567  1
  In  In30  1  0.66947875  0.01618629  0.00783427  1
  In  In31  1  0.64268882  0.01321286  0.32905249  1
  In  In32  1  0.00272894  0.02288717  0.01003153  1
  In  In33  1  0.65768907  -0.02663551  0.67441699  1
  In  In34  1  0.65657776  0.83074771  0.50049903  1
  In  In35  1  0.34643275  0.85939219  0.47726561  1
  In  In36  1  0.49855197  0.66641376  0.15209866  1
  In  In37  1  0.35869115  0.82976847  0.82804290  1
  In  In38  1  0.47875480  0.69308951  0.49627881  1
  In  In39  1  0.83270436  -0.00710069  0.14095884  1
  In  In40  1  0.49035231  0.35522418  0.83177365  1
  In  In41  1  0.81817667  0.34850874  0.83091385  1
  In  In42  1  0.33546312  0.68722491  0.67972667  1
  In  In43  1  0.84654577  0.35552002  0.49219485  1
  In  In44  1  0.82836164  0.49330967  -0.00254268  1
  In  In45  1  0.64058116  0.51623445  0.81755234  1
  In  In46  1  0.66261576  0.79163035  0.81735833  1
  In  In47  1  0.50613249  0.84959632  -0.01422915  1
  In  In48  1  0.17037523  0.02581058  0.84051959  1
  In  In49  1  -0.01539927  0.65232808  0.32163834  1
  In  In50  1  0.82827416  0.66284625  0.82199216  1
  In  In51  1  0.51749251  0.50285801  -0.01005667  1
  In  In52  1  0.33168981  0.49513994  0.48672391  1
  In  In53  1  -0.00262329  0.83866801  0.51500772  1
  In  In54  1  0.66137856  0.81571809  0.17049106  1
  In  In55  1  0.16108965  0.66741173  0.48908467  1
  In  In56  1  0.81604268  0.15544738  0.33284667  1
  In  In57  1  0.16937386  0.63855538  0.85930685  1
  In  In58  1  0.50629911  0.32850690  0.51213882  1
  In  In59  1  0.33792058  0.64522426  0.00510778  1
  In  In60  1  0.16081460  0.49437582  0.34964812  1
  In  In61  1  0.85077611  0.32807206  0.14566359  1
  In  In62  1  0.02064637  0.67505918  0.00388892  1
  In  In63  1  0.66149512  0.35124178  0.67129385  1
  In  In64  1  0.83176520  0.82691519  0.34548390  1
  In  In65  1  0.03276440  0.01382027  0.65858732  1
  In  In66  1  0.81786437  0.85311626  0.02083044  1
  In  In67  1  0.34571705  0.86534026  0.19614267  1
  In  In68  1  0.66878885  0.16690691  0.85812705  1
  In  In69  1  0.65196927  0.33415680  0.33314339  1
  In  In70  1  0.84897808  0.16587963  0.66810091  1
  In  In71  1  0.02790050  0.00247655  0.33501035  1
  Te  Te72  1  0.10191780  0.07073629  0.11054347  1
  Te  Te73  1  0.11328841  0.08679634  0.42268957  1
  Te  Te74  1  0.08596185  0.11107419  0.75459875  1
  Te  Te75  1  0.10665597  0.39986882  0.08310582  1
  Te  Te76  1  0.07647515  0.40877680  0.43482298  1
  Te  Te77  1  0.09190773  0.40571023  0.75627833  1
  Te  Te78  1  0.09811231  0.74642099  0.10601590  1
  Te  Te79  1  0.07367890  0.76047745  0.40493969  1
  Te  Te80  1  0.09696043  0.73267712  0.74662885  1
  Te  Te81  1  0.40897731  0.03882442  0.11727491  1
  Te  Te82  1  0.36569228  0.08570964  0.42096226  1
  Te  Te83  1  0.41115597  0.06418302  0.74545036  1
  Te  Te84  1  0.42011776  0.41343063  0.08234780  1
  Te  Te85  1  0.41481122  0.39544474  0.40671523  1
  Te  Te86  1  0.43392075  0.43932729  0.72523625  1
  Te  Te87  1  0.40495588  0.76162801  0.07634900  1
  Te  Te88  1  0.40037097  0.75579128  0.38713419  1
  Te  Te89  1  0.45184192  0.72350219  0.77079424  1
  Te  Te90  1  0.77827172  0.11017870  0.06242833  1
  Te  Te91  1  0.74536915  0.06390693  0.43061295  1
  Te  Te92  1  0.75286071  0.07911602  0.75286413  1
  Te  Te93  1  0.74513996  0.41221176  0.08951573  1
  Te  Te94  1  0.70939039  0.41396411  0.44994734  1
  Te  Te95  1  0.75350294  0.45221887  0.73459080  1
  Te  Te96  1  0.74132270  0.73188833  0.07301373  1
  Te  Te97  1  0.75125755  0.73123181  0.42920910  1
  Te  Te98  1  0.73225814  0.69934987  0.70841599  1
  Te  Te99  1  0.09551222  0.22558998  0.27061629  1
  Te  Te100  1  0.11520865  0.23707750  0.58259518  1
  Te  Te101  1  0.06916405  0.22906227  0.95100152  1
  Te  Te102  1  0.09214101  0.57954160  0.24268376  1
  Te  Te103  1  0.08744197  0.57329482  0.58278587  1
  Te  Te104  1  0.06058843  0.56001780  0.91979152  1
  Te  Te105  1  0.10951003  0.94577458  0.22372829  1
  Te  Te106  1  0.11020254  0.93431372  0.55161569  1
  Te  Te107  1  0.08784059  0.91635454  0.92180717  1
  Te  Te108  1  0.36139656  0.23707926  0.22711375  1
  Te  Te109  1  0.39333278  0.24194454  0.56934589  1
  Te  Te110  1  0.43050229  0.24788024  0.92234649  1
  Te  Te111  1  0.40649681  0.58394604  0.24222899  1
  Te  Te112  1  0.40305100  0.58904908  0.58143230  1
  Te  Te113  1  0.42219687  0.57723968  0.90582952  1
  Te  Te114  1  0.43875988  0.96582394  0.25316201  1
  Te  Te115  1  0.42261318  0.91407429  0.59703040  1
  Te  Te116  1  0.40244676  0.93332001  0.92218662  1
  Te  Te117  1  0.73806700  0.24723227  0.24040707  1
  Te  Te118  1  0.75275321  0.25137000  0.58305752  1
  Te  Te119  1  0.76773330  0.24740591  0.92940923  1
  Te  Te120  1  0.73792739  0.56614269  0.25180408  1
  Te  Te121  1  0.78479285  0.54204965  0.52251887  1
  Te  Te122  1  0.73700370  0.58604499  0.91535091  1
  Te  Te123  1  0.74847990  0.92080007  0.25130656  1
  Te  Te124  1  0.76002060  0.91278557  0.57913997  1
  Te  Te125  1  0.74161487  0.91857652  0.90484291  1
  Te  Te126  1  0.25226854  0.20937522  0.07324251  1
  Te  Te127  1  0.29161397  0.22037339  0.37238820  1
  Te  Te128  1  0.24594196  0.24976635  0.75455362  1
  Te  Te129  1  0.22658249  0.57289377  0.06811942  1
  Te  Te130  1  0.26209010  0.59868328  0.39856518  1
  Te  Te131  1  0.26658721  0.57589160  0.76010511  1
  Te  Te132  1  0.27227620  0.94381433  0.08945333  1
  Te  Te133  1  0.26633438  0.95490926  0.39409441  1
  Te  Te134  1  0.25299094  0.92808208  0.75062762  1
  Te  Te135  1  0.58378057  0.24182749  0.07641466  1
  Te  Te136  1  0.55063517  0.23488187  0.39151335  1
  Te  Te137  1  0.58264225  0.24290731  0.74892845  1
  Te  Te138  1  0.59726922  0.57905462  0.08770236  1
  Te  Te139  1  0.57235910  0.58630667  0.42961066  1
  Te  Te140  1  0.56583150  0.61891862  0.74269685  1
  Te  Te141  1  0.58558648  0.92411630  0.09572962  1
  Te  Te142  1  0.56294477  0.91260844  0.41130467  1
  Te  Te143  1  0.57515505  0.90219414  0.77110311  1
  Te  Te144  1  0.96401553  0.28319147  0.05548724  1
  Te  Te145  1  0.91521793  0.24505307  0.40663167  1
  Te  Te146  1  0.92365448  0.26314239  0.75281574  1
  Te  Te147  1  0.91681100  0.58971030  0.09517966  1
  Te  Te148  1  0.93424273  0.57682222  0.43829098  1
  Te  Te149  1  0.93204802  0.56605189  0.77851239  1
  Te  Te150  1  0.94385597  0.90312056  0.08804709  1
  Te  Te151  1  0.91967586  0.92750486  0.41700222  1
  Te  Te152  1  0.93045273  0.92104839  0.74602930  1
  Te  Te153  1  0.27753309  0.11123615  0.27233189  1
  Te  Te154  1  0.21127233  0.11156757  0.57947572  1
  Te  Te155  1  0.24852255  0.10219914  0.94230362  1
  Te  Te156  1  0.25120475  0.40471105  0.26565021  1
  Te  Te157  1  0.24350759  0.39677094  0.56172612  1
  Te  Te158  1  0.26127192  0.41189652  0.90009302  1
  Te  Te159  1  0.25912960  0.75445844  0.24196234  1
  Te  Te160  1  0.25031733  0.76136016  0.57245865  1
  Te  Te161  1  0.24693068  0.75959770  0.91069645  1
  Te  Te162  1  0.54377643  0.09687782  0.25387711  1
  Te  Te163  1  0.58874187  0.08358461  0.58181900  1
  Te  Te164  1  0.56270812  0.07704528  0.91828004  1
  Te  Te165  1  0.57583243  0.41735915  0.23142395  1
  Te  Te166  1  0.56209502  0.43508622  0.59923698  1
  Te  Te167  1  0.60649796  0.40074673  0.91601799  1
  Te  Te168  1  0.55514780  0.75970296  0.26221611  1
  Te  Te169  1  0.57292842  0.75387585  0.59382276  1
  Te  Te170  1  0.59239395  0.74029734  0.93633496  1
  Te  Te171  1  0.91427634  0.07846561  0.24503132  1
  Te  Te172  1  0.91616483  0.06840801  0.57337286  1
  Te  Te173  1  0.95184558  0.11606918  0.90403842  1
  Te  Te174  1  0.89926458  0.42425006  0.26179078  1
  Te  Te175  1  0.90923050  0.42867861  0.60410993  1
  Te  Te176  1  0.92288893  0.41790568  0.91186961  1
  Te  Te177  1  0.92781550  0.77200093  0.24129054  1
  Te  Te178  1  0.90110939  0.74799957  0.58913147  1
  Te  Te179  1  0.90289244  0.75667451  0.92358032  1
