# generated using pymatgen
data_In2Te3
_symmetry_space_group_name_H-M   'P 1'
_cell_length_a   18.79449917
_cell_length_b   18.81404978
_cell_length_c   18.81226302
_cell_angle_alpha   90.20469576
_cell_angle_beta   89.94085766
_cell_angle_gamma   90.04669677
_symmetry_Int_Tables_number   1
_chemical_formula_structural   In2Te3
_chemical_formula_sum   'In72 Te108'
_cell_volume   6651.98011710
_cell_formula_units_Z   36
loop_
 _symmetry_equiv_pos_site_id
 _symmetry_equiv_pos_as_xyz
  1  'x, y, z'
loop_
 _atom_site_type_symbol
 _atom_site_label
 _atom_site_symmetry_multiplicity
 _atom_site_fract_x
 _atom_site_fract_y
 _atom_site_fract_z
 _atom_site_occupancy
  In  In0  1  0.67491586  0.32701960  0.00688288  1
  In  In1  1  0.81534882  0.17136774  0.68990040  1
  In  In2  1  0.67318074  0.65387236  0.38643772  1
  In  In3  1  0.85144602  0.17667964  0.35551085  1
  In  In4  1  0.14249363  0.67788174  0.84516536  1
  In  In5  1  0.35850864  0.63878937  0.64115676  1
  In  In6  1  0.33383599  0.66400898  0.00145057  1
  In  In7  1  0.50881873  -0.01915438  0.47631381  1
  In  In8  1  0.15048506  -0.02887994  0.84239474  1
  In  In9  1  0.66592651  0.80814667  0.18299229  1
  In  In10  1  0.32547692  0.16346242  0.51472259  1
  In  In11  1  -0.01281154  -0.00126854  0.67212462  1
  In  In12  1  0.84667939  0.67624770  0.14672990  1
  In  In13  1  -0.01260589  0.16217690  0.83390276  1
  In  In14  1  0.32645100  0.34246215  0.66010362  1
  In  In15  1  -0.01268276  0.51308353  0.82457736  1
  In  In16  1  0.35566187  0.14842521  0.81643673  1
  In  In17  1  0.82716601  -0.02425178  0.51914923  1
  In  In18  1  0.65321196  0.49497488  0.17309834  1
  In  In19  1  0.83030860  0.81684068  0.67227410  1
  In  In20  1  0.81607443  0.34668211  0.83646191  1
  In  In21  1  0.84147653  -0.02802504  0.13658174  1
  In  In22  1  0.68125046  0.64294893  -0.00091421  1
  In  In23  1  0.32339055  0.49747757  0.82309851  1
  In  In24  1  0.83533946  0.16370264  0.01325744  1
  In  In25  1  0.64832502  0.16358666  0.15248630  1
  In  In26  1  0.49807542  0.00265934  0.15994909  1
  In  In27  1  0.17629069  0.35125345  0.50442997  1
  In  In28  1  0.81179307  0.34960619  0.17303553  1
  In  In29  1  0.16240747  0.84278168  0.32527003  1
  In  In30  1  0.34167715  0.84167220  0.49842322  1
  In  In31  1  0.66710277  0.18633263  0.50807025  1
  In  In32  1  0.34175466  0.01465163  0.33469237  1
  In  In33  1  0.32868345  0.33778193  -0.00506388  1
  In  In34  1  0.16629596  0.36191908  0.17126145  1
  In  In35  1  0.18052569  0.16793311  0.35239721  1
  In  In36  1  0.17084199  -0.02909777  0.15470915  1
  In  In37  1  0.02200009  0.34988612  0.34310140  1
  In  In38  1  0.35186300  0.52087331  0.16268387  1
  In  In39  1  0.18867460  0.16678247  0.63748381  1
  In  In40  1  0.63338568  0.10491312  0.85960784  1
  In  In41  1  -0.00127640  0.15728129  0.14937561  1
  In  In42  1  0.49721094  0.33345806  0.82687517  1
  In  In43  1  -0.02165592  0.38995406  0.65122568  1
  In  In44  1  0.14600129  0.64138625  0.52265091  1
  In  In45  1  0.65058953  0.84790567  0.80670484  1
  In  In46  1  -0.00212712  0.52312630  0.14880046  1
  In  In47  1  0.82880339  -0.01413773  0.84792998  1
  In  In48  1  0.66112462  -0.00662454  0.31830823  1
  In  In49  1  0.48897254  0.82330974  0.00917962  1
  In  In50  1  0.00002221  0.81887227  0.52501108  1
  In  In51  1  -0.00633318  0.18195808  0.47357593  1
  In  In52  1  0.17475692  0.16477438  -0.00700618  1
  In  In53  1  0.13768532  0.34159469  0.82826430  1
  In  In54  1  0.31788282  0.82581771  0.14072892  1
  In  In55  1  0.47824500  0.36739699  0.46550238  1
  In  In56  1  0.18633496  0.48904657  0.34374987  1
  In  In57  1  -0.01802444  0.66174161  0.31741324  1
  In  In58  1  0.15488677  0.81946149  0.68539407  1
  In  In59  1  0.82633928  0.51083703  0.35288886  1
  In  In60  1  0.51236912  0.15433300  0.66783962  1
  In  In61  1  0.38034128  0.18688247  0.17901331  1
  In  In62  1  0.67649616  0.51644337  0.83521206  1
  In  In63  1  0.35968004  0.66916812  0.34779172  1
  In  In64  1  0.14394551  0.69085331  0.14055030  1
  In  In65  1  0.65601603  0.35344297  0.66354807  1
  In  In66  1  0.66834581  0.36373002  0.33199314  1
  In  In67  1  0.00192893  0.00045610  0.34604700  1
  In  In68  1  0.35904263  0.83081565  0.83227643  1
  In  In69  1  0.51745255  0.83148563  0.33736101  1
  In  In70  1  0.68471623  0.65883811  0.64388516  1
  In  In71  1  0.48727574  0.65924307  0.82917615  1
  Te  Te72  1  0.08323646  0.06398093  0.06533522  1
  Te  Te73  1  0.09813954  0.07469491  0.44022652  1
  Te  Te74  1  0.09181158  0.08913762  0.74854069  1
  Te  Te75  1  0.07041629  0.41571232  0.07631290  1
  Te  Te76  1  0.07404329  0.45119903  0.44273365  1
  Te  Te77  1  0.10059587  0.44432304  0.72276385  1
  Te  Te78  1  0.06686601  0.78164488  0.05212410  1
  Te  Te79  1  0.09082951  0.74262474  0.41632677  1
  Te  Te80  1  0.04420145  0.72967652  0.73748508  1
  Te  Te81  1  0.40001591  0.07986920  0.08046161  1
  Te  Te82  1  0.43089156  0.10079439  0.42069925  1
  Te  Te83  1  0.44463963  0.04553564  0.74956832  1
  Te  Te84  1  0.41936337  0.42522220  0.07138501  1
  Te  Te85  1  0.37373764  0.44495858  0.39787785  1
  Te  Te86  1  0.42873056  0.43125042  0.73436458  1
  Te  Te87  1  0.42733321  0.72502414  0.10789397  1
  Te  Te88  1  0.44969479  0.74472050  0.44861577  1
  Te  Te89  1  0.42953689  0.74928590  0.72098144  1
  Te  Te90  1  0.73642407  0.06529366  0.07418861  1
  Te  Te91  1  0.75125514  0.08003449  0.42025090  1
  Te  Te92  1  0.73541413  0.05927488  0.74946165  1
  Te  Te93  1  0.75883778  0.43952350  0.06586553  1
  Te  Te94  1  0.73307788  0.43677152  0.44548675  1
  Te  Te95  1  0.76242244  0.44138057  0.73131761  1
  Te  Te96  1  0.75067382  0.76227368  0.06448786  1
  Te  Te97  1  0.73617223  0.77276152  0.44432879  1
  Te  Te98  1  0.74484992  0.73255754  0.76681954  1
  Te  Te99  1  0.08011081  0.23749161  0.25559029  1
  Te  Te100  1  0.07885047  0.25914812  0.58248150  1
  Te  Te101  1  0.06658560  0.25209232  0.93018133  1
  Te  Te102  1  0.09940664  0.58058675  0.25592505  1
  Te  Te103  1  0.05923760  0.59506996  0.63312762  1
  Te  Te104  1  0.07400343  0.57717248  0.92862602  1
  Te  Te105  1  0.05741758  0.90751347  0.23550945  1
  Te  Te106  1  0.09166917  0.92293724  0.59021443  1
  Te  Te107  1  0.06237192  0.87487784  0.91289669  1
  Te  Te108  1  0.45252149  0.28028914  0.26221151  1
  Te  Te109  1  0.43248887  0.25731450  0.58699022  1
  Te  Te110  1  0.42152631  0.23949058  0.91964136  1
  Te  Te111  1  0.44044885  0.56961128  0.27270253  1
  Te  Te112  1  0.45041678  0.55555842  0.55757975  1
  Te  Te113  1  0.41859325  0.56252393  0.92476011  1
  Te  Te114  1  0.40764916  0.90254104  0.25331332  1
  Te  Te115  1  0.44173244  0.90921229  0.58784182  1
  Te  Te116  1  0.43279798  0.93103603  0.92046907  1
  Te  Te117  1  0.74587986  0.23899654  0.25482542  1
  Te  Te118  1  0.76391455  0.27169237  0.58683238  1
  Te  Te119  1  0.74758270  0.22595305  0.90517679  1
  Te  Te120  1  0.75480029  0.59017614  0.24514813  1
  Te  Te121  1  0.75686358  0.55868985  0.55642438  1
  Te  Te122  1  0.78354796  0.59138547  0.90494543  1
  Te  Te123  1  0.76508719  0.90339578  0.25082305  1
  Te  Te124  1  0.73222126  0.90918110  0.60941305  1
  Te  Te125  1  0.72372460  0.91119899  0.91921315  1
  Te  Te126  1  0.24811029  0.24753455  0.10010136  1
  Te  Te127  1  0.27191932  0.26847236  0.41727481  1
  Te  Te128  1  0.25105586  0.25707690  0.76441353  1
  Te  Te129  1  0.23300241  0.58185344  0.08206318  1
  Te  Te130  1  0.26245538  0.58613172  0.43480187  1
  Te  Te131  1  0.25812818  0.61556516  0.75513675  1
  Te  Te132  1  0.25460697  0.91681603  0.04561895  1
  Te  Te133  1  0.24542504  0.93059610  0.41952369  1
  Te  Te134  1  0.25816629  0.91268285  0.74949263  1
  Te  Te135  1  0.56522132  0.25564685  0.07460539  1
  Te  Te136  1  0.58132132  0.26260546  0.41211561  1
  Te  Te137  1  0.60102115  0.24183604  0.75809909  1
  Te  Te138  1  0.57685023  0.57747208  0.07882752  1
  Te  Te139  1  0.56689529  0.57234536  0.45390536  1
  Te  Te140  1  0.58187981  0.58306609  0.73772680  1
  Te  Te141  1  0.59079575  0.90497872  0.09117111  1
  Te  Te142  1  0.63195781  0.88713397  0.42864476  1
  Te  Te143  1  0.54365340  0.92354784  0.73983832  1
  Te  Te144  1  0.91465118  0.26938141  0.08858622  1
  Te  Te145  1  0.90426083  0.29795179  0.42969072  1
  Te  Te146  1  0.92826155  0.26805317  0.74039837  1
  Te  Te147  1  0.92691228  0.60187568  0.04484475  1
  Te  Te148  1  0.91350772  0.60205614  0.43440982  1
  Te  Te149  1  0.93379821  0.61486566  0.72774379  1
  Te  Te150  1  0.92092913  0.88636933  0.04472009  1
  Te  Te151  1  0.91555425  0.89936863  0.42162552  1
  Te  Te152  1  0.92325393  0.89871189  0.76460058  1
  Te  Te153  1  0.24102755  0.08210077  0.24173943  1
  Te  Te154  1  0.28075633  0.05665788  0.60522366  1
  Te  Te155  1  0.25400696  0.07183929  0.90200190  1
  Te  Te156  1  0.28272193  0.40834821  0.25667064  1
  Te  Te157  1  0.24827445  0.44655323  0.59197673  1
  Te  Te158  1  0.22924250  0.42562119  0.91924468  1
  Te  Te159  1  0.25273451  0.73958699  0.25538306  1
  Te  Te160  1  0.24971847  0.74680584  0.58030262  1
  Te  Te161  1  0.25315979  0.76043264  0.91771719  1
  Te  Te162  1  0.56482598  0.09519320  0.26244094  1
  Te  Te163  1  0.59615790  0.07033368  0.57283756  1
  Te  Te164  1  0.52975346  0.05248113  0.94857175  1
  Te  Te165  1  0.55599114  0.39662530  0.23621570  1
  Te  Te166  1  0.56709696  0.43276307  0.57222796  1
  Te  Te167  1  0.59055728  0.41694916  0.91409295  1
  Te  Te168  1  0.58592892  0.71389693  0.26866658  1
  Te  Te169  1  0.58655726  0.70842786  0.54101256  1
  Te  Te170  1  0.58016203  0.74289939  0.91577452  1
  Te  Te171  1  0.90664837  0.07699204  0.24485228  1
  Te  Te172  1  0.91065378  0.09845074  0.58153581  1
  Te  Te173  1  0.92549490  0.06725662  0.93459044  1
  Te  Te174  1  0.91969366  0.42762400  0.25251259  1
  Te  Te175  1  0.88516075  0.47056894  0.57200768  1
  Te  Te176  1  0.92496717  0.41036865  0.91106228  1
  Te  Te177  1  0.91798313  0.76767022  0.24017408  1
  Te  Te178  1  0.89571067  0.72551378  0.57286500  1
  Te  Te179  1  0.95066576  0.76832337  0.94593655  1
