# generated using pymatgen
data_In2Te3
_symmetry_space_group_name_H-M   'P 1'
_cell_length_a   18.75541650
_cell_length_b   18.75408193
_cell_length_c   18.74646956
_cell_angle_alpha   89.96275666
_cell_angle_beta   90.02050951
_cell_angle_gamma   89.97424043
_symmetry_Int_Tables_number   1
_chemical_formula_structural   In2Te3
_chemical_formula_sum   'In72 Te108'
_cell_volume   6593.89229928
_cell_formula_units_Z   36
loop_
 _symmetry_equiv_pos_site_id
 _symmetry_equiv_pos_as_xyz
  1  'x, y, z'
loop_
 _atom_site_type_symbol
 _atom_site_label
 _atom_site_symmetry_multiplicity
 _atom_site_fract_x
 _atom_site_fract_y
 _atom_site_fract_z
 _atom_site_occupancy
  In  In0  1  0.36714876  0.35717820  0.34240894  1
  In  In1  1  0.03339889  0.81436186  0.82705651  1
  In  In2  1  0.19983513  -0.00238709  0.15104255  1
  In  In3  1  0.18722889  0.16556913  -0.00473023  1
  In  In4  1  0.63835919  0.54845445  0.16439263  1
  In  In5  1  -0.00632720  0.81453970  0.49681361  1
  In  In6  1  0.19867752  0.65340426  0.80725434  1
  In  In7  1  0.51356866  0.83518669  0.31615225  1
  In  In8  1  -0.00989407  0.47588318  0.16036405  1
  In  In9  1  0.82888639  -0.01378667  0.18752676  1
  In  In10  1  0.65082991  0.32445371  0.64181255  1
  In  In11  1  0.01764465  0.34165768  0.65769041  1
  In  In12  1  0.49270413  0.34367536  0.16928756  1
  In  In13  1  -0.00084320  0.33922459  -0.00492495  1
  In  In14  1  0.00910710  0.15941784  0.16899776  1
  In  In15  1  0.80616744  0.67738435  0.48704638  1
  In  In16  1  0.82070378  0.33628499  0.84379722  1
  In  In17  1  0.17702726  0.01364084  0.51323964  1
  In  In18  1  0.18347105  0.35429614  0.53044334  1
  In  In19  1  0.36078583  0.83288182  0.84375382  1
  In  In20  1  0.81909857  0.48487493  -0.00639378  1
  In  In21  1  0.35616276  0.18976768  0.49714010  1
  In  In22  1  0.17629272  0.01512609  0.84654532  1
  In  In23  1  0.48899461  0.16466134  -0.00840278  1
  In  In24  1  0.18949240  0.49878636  0.33948959  1
  In  In25  1  0.19375761  0.66402826  0.19267032  1
  In  In26  1  0.81727921  0.82328060  0.66271290  1
  In  In27  1  -0.01006856  0.83097022  0.16345458  1
  In  In28  1  0.00250123  0.00386486  0.33439663  1
  In  In29  1  0.62697041  -0.03942512  0.68941565  1
  In  In30  1  0.65407661  0.68036735  0.64116516  1
  In  In31  1  0.65159258  -0.01054107  0.01577753  1
  In  In32  1  0.35163580  0.83629444  0.48398195  1
  In  In33  1  0.78960322  0.65496559  0.16456668  1
  In  In34  1  0.67119095  0.36224944  0.36997748  1
  In  In35  1  -0.00988205  0.02208185  0.67399545  1
  In  In36  1  0.18162396  0.80991821  0.33922746  1
  In  In37  1  0.78721162  0.82074310  0.34452935  1
  In  In38  1  0.38138176  0.69986666  0.00485044  1
  In  In39  1  0.35730110  0.51217733  0.18503633  1
  In  In40  1  0.35725134  0.00456800  0.65470169  1
  In  In41  1  0.19703860  0.32619159  0.78287338  1
  In  In42  1  0.50715172  -0.01323314  0.49975826  1
  In  In43  1  -0.00644118  0.66806830  0.34712869  1
  In  In44  1  0.01140441  0.51413284  0.51868127  1
  In  In45  1  0.66328454  0.35050970  -0.02248815  1
  In  In46  1  0.66205547  0.50705821  0.84595978  1
  In  In47  1  0.17413803  0.82064767  0.67089693  1
  In  In48  1  0.81375304  0.17383017  0.65285826  1
  In  In49  1  0.66777433  0.16389308  0.17879264  1
  In  In50  1  -0.02654781  0.31028043  0.36206295  1
  In  In51  1  0.81032223  0.65278770  0.80916292  1
  In  In52  1  0.83218218  -0.00819021  0.85142262  1
  In  In53  1  0.17239842  0.16808942  0.31449329  1
  In  In54  1  0.33969400  0.32229498  0.01149383  1
  In  In55  1  0.49849360  0.49498076  0.66070894  1
  In  In56  1  0.00233432  0.15789559  0.83956235  1
  In  In57  1  0.48568997  0.00018335  0.16618768  1
  In  In58  1  0.48008360  0.18112467  0.67383597  1
  In  In59  1  0.34096049  0.51650251  0.82171530  1
  In  In60  1  0.00250533  0.67726413  -0.00810068  1
  In  In61  1  0.50806253  0.16649430  0.32587317  1
  In  In62  1  0.17656802  0.86654455  -0.00604848  1
  In  In63  1  0.16738867  0.50703516  -0.00278377  1
  In  In64  1  0.81610885  0.00539268  0.51947634  1
  In  In65  1  0.65757908  0.15859663  0.48065906  1
  In  In66  1  0.83150305  0.32238275  0.17902726  1
  In  In67  1  0.83010014  0.50996200  0.64487659  1
  In  In68  1  0.34553988  0.66975267  0.34984071  1
  In  In69  1  0.66731644  0.16736074  0.81970007  1
  In  In70  1  0.81313833  0.82990367  0.00830977  1
  In  In71  1  0.35299661  0.66519877  0.67517012  1
  Te  Te72  1  0.09054626  0.07268742  0.07437280  1
  Te  Te73  1  0.08633614  0.09742808  0.42130013  1
  Te  Te74  1  0.10245657  0.09983330  0.73951448  1
  Te  Te75  1  0.10306405  0.40220728  0.08876434  1
  Te  Te76  1  0.08442676  0.41765591  0.41718141  1
  Te  Te77  1  0.09026576  0.42419331  0.75502852  1
  Te  Te78  1  0.09743372  0.75053870  0.08876197  1
  Te  Te79  1  0.10327128  0.72366656  0.43827163  1
  Te  Te80  1  0.07383473  0.71399974  0.71688851  1
  Te  Te81  1  0.39916031  0.08674952  0.08035218  1
  Te  Te82  1  0.41717602  0.07787037  0.41497969  1
  Te  Te83  1  0.41020092  0.08743220  0.76586720  1
  Te  Te84  1  0.42688894  0.43724997  0.06950628  1
  Te  Te85  1  0.40087402  0.47100758  0.43487006  1
  Te  Te86  1  0.39782345  0.40597161  0.73354110  1
  Te  Te87  1  0.46325680  0.75557586  0.11540870  1
  Te  Te88  1  0.45938433  0.73518838  0.43738142  1
  Te  Te89  1  0.44848363  0.74301791  0.76182446  1
  Te  Te90  1  0.75403860  0.07873399  0.08690768  1
  Te  Te91  1  0.74520651  0.06618412  0.40470003  1
  Te  Te92  1  0.75221201  0.06044039  0.73606589  1
  Te  Te93  1  0.73572301  0.41989155  0.10269430  1
  Te  Te94  1  0.75821078  0.46321769  0.43146517  1
  Te  Te95  1  0.74093315  0.41565947  0.73977551  1
  Te  Te96  1  0.70836592  0.76479789  0.09653842  1
  Te  Te97  1  0.68780014  0.73079624  0.41272914  1
  Te  Te98  1  0.71513551  0.76078497  0.75808848  1
  Te  Te99  1  0.07422183  0.26885595  0.25282202  1
  Te  Te100  1  0.09226059  0.24581201  0.57432776  1
  Te  Te101  1  0.09748618  0.26084608  0.90525025  1
  Te  Te102  1  0.07700204  0.57961009  0.24645026  1
  Te  Te103  1  0.09520804  0.59813781  0.60328934  1
  Te  Te104  1  0.08629424  0.59053756  0.89852247  1
  Te  Te105  1  0.09015522  0.90686277  0.25318398  1
  Te  Te106  1  0.07801617  0.91732070  0.58374796  1
  Te  Te107  1  0.06439410  0.93486655  0.91526559  1
  Te  Te108  1  0.40511845  0.24363384  0.24410131  1
  Te  Te109  1  0.41440256  0.28937062  0.59194983  1
  Te  Te110  1  0.41537910  0.25740810  0.90265391  1
  Te  Te111  1  0.45436383  0.59975010  0.26333994  1
  Te  Te112  1  0.42972176  0.59244978  0.56914391  1
  Te  Te113  1  0.43270866  0.59812567  0.90790559  1
  Te  Te114  1  0.40539009  0.92419783  0.26734051  1
  Te  Te115  1  0.43938377  0.88978062  0.59988597  1
  Te  Te116  1  0.46275524  0.90348719  0.92657161  1
  Te  Te117  1  0.73922542  0.25321871  0.27879560  1
  Te  Te118  1  0.75921340  0.26635480  0.54455890  1
  Te  Te119  1  0.75144877  0.23295953  0.93118528  1
  Te  Te120  1  0.73183510  0.57722259  0.27782788  1
  Te  Te121  1  0.71525392  0.56476921  0.55788579  1
  Te  Te122  1  0.74023870  0.60578415  0.94069278  1
  Te  Te123  1  0.72483607  0.88747196  0.22668051  1
  Te  Te124  1  0.71917823  0.90215083  0.57753908  1
  Te  Te125  1  0.72167292  0.90333283  0.90838288  1
  Te  Te126  1  0.24993577  0.24706482  0.10143246  1
  Te  Te127  1  0.25314090  0.26810004  0.41246817  1
  Te  Te128  1  0.26918961  0.21605945  0.71958193  1
  Te  Te129  1  0.26760956  0.59304039  0.07806484  1
  Te  Te130  1  0.26671203  0.57609534  0.43959603  1
  Te  Te131  1  0.24028575  0.55111709  0.69786313  1
  Te  Te132  1  0.29214056  0.91414121  0.07038188  1
  Te  Te133  1  0.25137607  0.92771663  0.41197969  1
  Te  Te134  1  0.25828450  0.91775114  0.75279727  1
  Te  Te135  1  0.58716782  0.25448943  0.08463152  1
  Te  Te136  1  0.56154910  0.26680668  0.42731928  1
  Te  Te137  1  0.57362386  0.27210046  0.76323709  1
  Te  Te138  1  0.55407828  0.59211441  0.04391344  1
  Te  Te139  1  0.53016066  0.52737399  0.38145338  1
  Te  Te140  1  0.58334400  0.59121864  0.74677575  1
  Te  Te141  1  0.54129180  0.89594180  0.06678399  1
  Te  Te142  1  0.59929512  0.92061767  0.40523851  1
  Te  Te143  1  0.53584322  0.89359922  0.78679770  1
  Te  Te144  1  0.91486403  0.24332514  0.07856408  1
  Te  Te145  1  0.88610969  0.22765932  0.44388474  1
  Te  Te146  1  0.90775451  0.24930369  0.74867889  1
  Te  Te147  1  0.91584066  0.58579213  0.08178061  1
  Te  Te148  1  0.90114935  0.57376007  0.42109324  1
  Te  Te149  1  0.91553361  0.56908608  0.75016174  1
  Te  Te150  1  0.91518212  0.92631655  0.07323794  1
  Te  Te151  1  0.90733237  0.90921032  0.41201477  1
  Te  Te152  1  0.91954514  0.90678951  0.74411221  1
  Te  Te153  1  0.26893909  0.07251770  0.25787763  1
  Te  Te154  1  0.25854566  0.11396018  0.59704721  1
  Te  Te155  1  0.28541162  0.07795577  0.92426947  1
  Te  Te156  1  0.25865143  0.40843047  0.24024592  1
  Te  Te157  1  0.28641768  0.41971588  0.61500668  1
  Te  Te158  1  0.25446314  0.41784331  0.90824819  1
  Te  Te159  1  0.29229876  0.76782240  0.24077602  1
  Te  Te160  1  0.26461318  0.74749099  0.57561692  1
  Te  Te161  1  0.24657002  0.74841394  0.91688448  1
  Te  Te162  1  0.59441115  0.05903107  0.25981617  1
  Te  Te163  1  0.58391170  0.08888274  0.59750217  1
  Te  Te164  1  0.58157273  0.07602605  0.90729821  1
  Te  Te165  1  0.57704994  0.42727570  0.26328023  1
  Te  Te166  1  0.58070118  0.42346615  0.55700272  1
  Te  Te167  1  0.55641324  0.42334213  0.90812931  1
  Te  Te168  1  0.56515514  0.72197085  0.23093415  1
  Te  Te169  1  0.57128800  0.75644772  0.54647286  1
  Te  Te170  1  0.61011785  0.71041809  0.97298064  1
  Te  Te171  1  0.90509456  0.09760982  0.26271961  1
  Te  Te172  1  0.92726091  0.10372467  0.56249440  1
  Te  Te173  1  0.90874427  0.08942792  0.93027776  1
  Te  Te174  1  0.90415336  0.41989014  0.27116957  1
  Te  Te175  1  0.91262973  0.40654498  0.56831397  1
  Te  Te176  1  0.92658224  0.43365287  0.89824020  1
  Te  Te177  1  0.90011769  0.74609416  0.25293884  1
  Te  Te178  1  0.90897143  0.72636521  0.58966797  1
  Te  Te179  1  0.90537562  0.75577376  0.90282705  1
