# generated using pymatgen
data_In2Te3
_symmetry_space_group_name_H-M   'P 1'
_cell_length_a   18.91594810
_cell_length_b   18.91341759
_cell_length_c   18.90589244
_cell_angle_alpha   89.97227133
_cell_angle_beta   89.95756549
_cell_angle_gamma   89.86630176
_symmetry_Int_Tables_number   1
_chemical_formula_structural   In2Te3
_chemical_formula_sum   'In72 Te108'
_cell_volume   6763.84981616
_cell_formula_units_Z   36
loop_
 _symmetry_equiv_pos_site_id
 _symmetry_equiv_pos_as_xyz
  1  'x, y, z'
loop_
 _atom_site_type_symbol
 _atom_site_label
 _atom_site_symmetry_multiplicity
 _atom_site_fract_x
 _atom_site_fract_y
 _atom_site_fract_z
 _atom_site_occupancy
  In  In0  1  0.83540020  0.32787451  0.81514338  1
  In  In1  1  0.82047250  0.19005092  0.65324162  1
  In  In2  1  0.19531997  0.33568328  0.20270872  1
  In  In3  1  0.17187094  0.00481413  0.17771596  1
  In  In4  1  0.34332724  0.31627911  0.66920263  1
  In  In5  1  0.50629345  0.51451222  0.32131684  1
  In  In6  1  0.50074121  0.68462369  0.47762052  1
  In  In7  1  0.81743275  0.67975322  0.16680801  1
  In  In8  1  0.00100669  0.33713177  0.64098607  1
  In  In9  1  0.33305333  0.16640774  0.84953986  1
  In  In10  1  0.66030708  0.82232265  0.17605574  1
  In  In11  1  0.32641334  0.00114877  0.67047034  1
  In  In12  1  0.84127752  0.82361202  0.64858168  1
  In  In13  1  0.01918060  0.01073567  0.67528497  1
  In  In14  1  0.50326663  0.67587627  0.85099758  1
  In  In15  1  0.84712262  0.01212470  0.81277443  1
  In  In16  1  0.66024546  -0.00095625  0.68703098  1
  In  In17  1  -0.00629135  0.67000639  0.64296116  1
  In  In18  1  0.50879319  0.18369526  0.65351201  1
  In  In19  1  0.34296665  0.82560560  0.16422138  1
  In  In20  1  0.17746509  0.70290294  0.85001826  1
  In  In21  1  -0.00748386  0.17037688  0.51239532  1
  In  In22  1  0.34492099  0.46606150  0.84140536  1
  In  In23  1  -0.00743031  0.50893041  0.15759308  1
  In  In24  1  -0.01562922  0.65480340  0.31092967  1
  In  In25  1  0.18286476  0.51397540  0.00386872  1
  In  In26  1  0.05385829  0.88307219  0.88263602  1
  In  In27  1  0.64913837  0.00002087  0.00365989  1
  In  In28  1  0.34702992  0.66433995  0.33774349  1
  In  In29  1  0.18109656  0.66511371  0.16602135  1
  In  In30  1  0.50542167  0.51356331  0.02396026  1
  In  In31  1  0.34474819  0.84068444  0.87041736  1
  In  In32  1  0.16508913  0.63788023  0.47923395  1
  In  In33  1  0.18397148  0.17328230  0.03824755  1
  In  In34  1  0.81944656  0.50321848  0.29934032  1
  In  In35  1  0.67108760  0.66532461  0.64281346  1
  In  In36  1  0.66870669  0.49431079  0.82099818  1
  In  In37  1  0.48935554  0.16427954  0.32080870  1
  In  In38  1  0.36263066  0.46949903  0.49993573  1
  In  In39  1  -0.00864455  0.81971786  0.50713946  1
  In  In40  1  0.51172773  -0.01872055  0.47957186  1
  In  In41  1  0.49910515  -0.00450231  0.85550966  1
  In  In42  1  0.15371587  0.34923454  0.46175469  1
  In  In43  1  0.65552697  0.81872879  0.86399329  1
  In  In44  1  0.80048808  0.01876940  0.47474708  1
  In  In45  1  0.33081177  -0.01266775  0.31414518  1
  In  In46  1  0.83148517  0.33154438  0.49360712  1
  In  In47  1  0.81413863  0.35037200  0.14234747  1
  In  In48  1  0.00849569  0.82299562  0.16428677  1
  In  In49  1  0.63489272  0.45482347  0.51335513  1
  In  In50  1  0.20275936  0.81391895  0.65590052  1
  In  In51  1  0.64441699  0.32704703  0.01604987  1
  In  In52  1  -0.00987050  0.66273508  0.02249253  1
  In  In53  1  0.84919254  0.84369472  0.00935077  1
  In  In54  1  0.81607568  -0.02096569  0.17480811  1
  In  In55  1  0.48001830  0.14668404  0.01818603  1
  In  In56  1  0.34812715  0.84117900  0.48577932  1
  In  In57  1  0.82671682  0.65774797  0.85157663  1
  In  In58  1  0.35664007  0.64459147  0.67688730  1
  In  In59  1  0.15304657  0.50852911  0.67260441  1
  In  In60  1  0.81856961  0.17509955  0.34990369  1
  In  In61  1  0.49309155  0.31170067  0.82007368  1
  In  In62  1  -0.01323118  0.50196101  0.82613142  1
  In  In63  1  -0.01284464  0.33596269  -0.02141003  1
  In  In64  1  -0.00928870  -0.00055472  0.32873422  1
  In  In65  1  0.18350777  0.16324075  0.32664833  1
  In  In66  1  0.67183460  0.80927906  0.47165162  1
  In  In67  1  0.03258857  0.14448551  0.84121391  1
  In  In68  1  0.83339949  0.16394075  -0.01459004  1
  In  In69  1  0.63889319  0.31472290  0.32088927  1
  In  In70  1  0.19276860  0.01137104  0.51594215  1
  In  In71  1  0.48763307  0.33909328  0.16786975  1
  Te  Te72  1  0.08131507  0.11078515  0.12646329  1
  Te  Te73  1  0.08193874  0.07779878  0.42567391  1
  Te  Te74  1  0.12558590  0.07589686  0.75028839  1
  Te  Te75  1  0.07753718  0.42016647  0.06940699  1
  Te  Te76  1  0.04466628  0.44071772  0.43532796  1
  Te  Te77  1  0.07853868  0.40456864  0.75491965  1
  Te  Te78  1  0.10258228  0.75289332  0.06850921  1
  Te  Te79  1  0.07356147  0.73642352  0.40921631  1
  Te  Te80  1  0.08655812  0.74852765  0.73224717  1
  Te  Te81  1  0.41270691  0.07869936  0.13106835  1
  Te  Te82  1  0.40611284  0.06898660  0.41612215  1
  Te  Te83  1  0.42987192  0.08861616  0.75117692  1
  Te  Te84  1  0.40241836  0.42259837  0.07970646  1
  Te  Te85  1  0.43602883  0.39977693  0.39019317  1
  Te  Te86  1  0.43654088  0.42427573  0.73047698  1
  Te  Te87  1  0.43865519  0.74859993  0.07936116  1
  Te  Te88  1  0.43749406  0.78077888  0.37858984  1
  Te  Te89  1  0.41408294  0.75733378  0.75567398  1
  Te  Te90  1  0.74932090  0.08215227  0.08263925  1
  Te  Te91  1  0.69797824  0.08768405  0.38103896  1
  Te  Te92  1  0.74281092  0.10579343  0.75662452  1
  Te  Te93  1  0.71404752  0.43955452  0.08159734  1
  Te  Te94  1  0.74017315  0.40970458  0.39689699  1
  Te  Te95  1  0.75907676  0.42010724  0.72812922  1
  Te  Te96  1  0.74001819  0.75432792  0.05903692  1
  Te  Te97  1  0.78163473  0.72780194  0.42408337  1
  Te  Te98  1  0.74924899  0.75753219  0.75238879  1
  Te  Te99  1  0.08784195  0.24266359  0.24591360  1
  Te  Te100  1  0.10369163  0.24802157  0.57670497  1
  Te  Te101  1  0.09883569  0.24680508  0.92866741  1
  Te  Te102  1  0.09817486  0.56735846  0.25027679  1
  Te  Te103  1  0.06118963  0.55873876  0.56084089  1
  Te  Te104  1  0.07583605  0.59237486  0.91061564  1
  Te  Te105  1  0.08881469  0.90533961  0.26249962  1
  Te  Te106  1  0.09461037  0.90394327  0.58263366  1
  Te  Te107  1  0.15010941  0.95811773  0.96020989  1
  Te  Te108  1  0.40317345  0.28047115  0.27671368  1
  Te  Te109  1  0.42275809  0.25742355  0.55875037  1
  Te  Te110  1  0.41343706  0.25896285  0.93872569  1
  Te  Te111  1  0.40519261  0.57845431  0.23068953  1
  Te  Te112  1  0.44229977  0.57691043  0.57181579  1
  Te  Te113  1  0.41026684  0.57707134  0.92012718  1
  Te  Te114  1  0.43353631  0.93652904  0.21586561  1
  Te  Te115  1  0.42396441  0.91504812  0.59181338  1
  Te  Te116  1  0.39719817  0.95292198  0.95181142  1
  Te  Te117  1  0.74753301  0.24985665  0.23619603  1
  Te  Te118  1  0.74054918  0.22217903  0.53526927  1
  Te  Te119  1  0.74122570  0.26133218  0.91510991  1
  Te  Te120  1  0.72218461  0.61101310  0.25930824  1
  Te  Te121  1  0.73103278  0.55603849  0.56515599  1
  Te  Te122  1  0.70907198  0.60080590  0.91665059  1
  Te  Te123  1  0.74150188  0.90015849  0.27445075  1
  Te  Te124  1  0.74352913  0.92089306  0.58320005  1
  Te  Te125  1  0.75859400  0.92724285  0.90731064  1
  Te  Te126  1  0.27341307  0.27794569  0.09244081  1
  Te  Te127  1  0.25659472  0.26132692  0.40758469  1
  Te  Te128  1  0.25239956  0.25731221  0.76754567  1
  Te  Te129  1  0.27657798  0.56984628  0.10368837  1
  Te  Te130  1  0.26181178  0.54600160  0.40335880  1
  Te  Te131  1  0.24397231  0.59013107  0.76358815  1
  Te  Te132  1  0.23829800  0.90520173  0.08773584  1
  Te  Te133  1  0.23728311  0.91112660  0.41146059  1
  Te  Te134  1  0.25107652  0.90779397  0.76315975  1
  Te  Te135  1  0.57453572  0.22841016  0.10639727  1
  Te  Te136  1  0.54995429  0.25628250  0.42384043  1
  Te  Te137  1  0.60763023  0.26560501  0.73290818  1
  Te  Te138  1  0.53091349  0.62896946  0.12083386  1
  Te  Te139  1  0.59555449  0.57900107  0.42698778  1
  Te  Te140  1  0.58185865  0.59655005  0.74559414  1
  Te  Te141  1  0.57692118  0.92591372  0.10736856  1
  Te  Te142  1  0.60000064  0.90668714  0.38582432  1
  Te  Te143  1  0.57417174  0.90024691  0.76341841  1
  Te  Te144  1  0.91446439  0.25001665  0.07976796  1
  Te  Te145  1  0.93405652  0.25853282  0.40571733  1
  Te  Te146  1  0.93730294  0.22978704  0.74908903  1
  Te  Te147  1  0.88115074  0.57393224  0.07595255  1
  Te  Te148  1  0.92587147  0.54691866  0.39701530  1
  Te  Te149  1  0.90168781  0.59059919  0.73653609  1
  Te  Te150  1  0.93952083  0.93463503  0.08837572  1
  Te  Te151  1  0.90660506  0.91841728  0.42639035  1
  Te  Te152  1  0.93022221  0.90367043  0.74558402  1
  Te  Te153  1  0.28659012  0.10387640  0.22039781  1
  Te  Te154  1  0.27722714  0.10854756  0.58277637  1
  Te  Te155  1  0.25657815  0.07716390  0.94423770  1
  Te  Te156  1  0.23113982  0.45340179  0.27949230  1
  Te  Te157  1  0.24847654  0.42223460  0.59163854  1
  Te  Te158  1  0.22833640  0.41125562  0.90839258  1
  Te  Te159  1  0.24799659  0.75537765  0.26682791  1
  Te  Te160  1  0.27344642  0.71820559  0.55793527  1
  Te  Te161  1  0.27720337  0.73629775  0.95014517  1
  Te  Te162  1  0.60475237  0.09515594  0.26319409  1
  Te  Te163  1  0.58492481  0.07429106  0.57885213  1
  Te  Te164  1  0.58692196  0.10466957  0.91264627  1
  Te  Te165  1  0.59492603  0.42927333  0.22962288  1
  Te  Te166  1  0.58096551  0.37479101  0.62387672  1
  Te  Te167  1  0.56683679  0.41506882  0.91312333  1
  Te  Te168  1  0.59346284  0.70789863  0.24321276  1
  Te  Te169  1  0.57543461  0.76683473  0.58180155  1
  Te  Te170  1  0.54283566  0.77862035  0.95354698  1
  Te  Te171  1  0.89697286  0.08707312  0.25108723  1
  Te  Te172  1  0.90702302  0.06913368  0.58894747  1
  Te  Te173  1  0.93469471  0.06565559  0.92565552  1
  Te  Te174  1  0.91956224  0.40416772  0.23884122  1
  Te  Te175  1  0.88617103  0.41880226  0.60056041  1
  Te  Te176  1  0.88661324  0.43158169  0.91611129  1
  Te  Te177  1  0.90030501  0.76976800  0.25591008  1
  Te  Te178  1  0.87719155  0.71438286  0.54275028  1
  Te  Te179  1  0.93262709  0.75813064  0.91404982  1
