# generated using pymatgen
data_In2Te3
_symmetry_space_group_name_H-M   'P 1'
_cell_length_a   18.96766684
_cell_length_b   18.95510411
_cell_length_c   18.98172854
_cell_angle_alpha   89.92914010
_cell_angle_beta   90.09373613
_cell_angle_gamma   89.77445321
_symmetry_Int_Tables_number   1
_chemical_formula_structural   In2Te3
_chemical_formula_sum   'In72 Te108'
_cell_volume   6824.51139469
_cell_formula_units_Z   36
loop_
 _symmetry_equiv_pos_site_id
 _symmetry_equiv_pos_as_xyz
  1  'x, y, z'
loop_
 _atom_site_type_symbol
 _atom_site_label
 _atom_site_symmetry_multiplicity
 _atom_site_fract_x
 _atom_site_fract_y
 _atom_site_fract_z
 _atom_site_occupancy
  In  In0  1  0.68880425  0.85460387  0.16657241  1
  In  In1  1  0.32783597  0.12910140  0.52119967  1
  In  In2  1  0.50423310  0.63973312  0.82798904  1
  In  In3  1  0.01323703  0.15850013  0.19540329  1
  In  In4  1  0.17315143  0.65796470  0.83114633  1
  In  In5  1  0.01257668  0.81471704  0.84644898  1
  In  In6  1  0.15750483  0.81077020  -0.00919103  1
  In  In7  1  0.48388612  0.34641857  0.15497497  1
  In  In8  1  0.50820264  0.00161288  0.84200067  1
  In  In9  1  0.15510849  -0.01126049  0.50248815  1
  In  In10  1  0.32932376  0.53063403  0.15630010  1
  In  In11  1  0.81403753  0.82389339  0.66745083  1
  In  In12  1  0.34571596  0.66645665  -0.01832688  1
  In  In13  1  0.84790598  0.01463574  0.81794756  1
  In  In14  1  0.67754841  0.85188691  0.48618883  1
  In  In15  1  0.85082437  0.33441808  0.49646832  1
  In  In16  1  0.80877004  0.66313416  0.49875371  1
  In  In17  1  0.16098223  0.67416835  0.50812198  1
  In  In18  1  0.32332995  0.67117129  0.68210286  1
  In  In19  1  0.34147106  0.16793258  0.82155791  1
  In  In20  1  0.66178218  0.48354019  0.56215550  1
  In  In21  1  0.50815939  0.68653824  0.50794255  1
  In  In22  1  0.19586825  0.49997009  -0.01193452  1
  In  In23  1  -0.00617598  0.66049676  0.66474819  1
  In  In24  1  0.31018569  0.34278605  0.35921937  1
  In  In25  1  0.67473368  0.51200432  0.15332561  1
  In  In26  1  0.01031814  0.01309954  0.66389298  1
  In  In27  1  0.48941132  -0.01166753  0.51269386  1
  In  In28  1  0.66940401  0.26036492  0.87185574  1
  In  In29  1  0.52050205  -0.01804328  0.18403355  1
  In  In30  1  0.32979312  0.17996147  0.16291275  1
  In  In31  1  0.16758188  0.32582353  0.16589382  1
  In  In32  1  0.28920133  -0.07239866  0.65666962  1
  In  In33  1  0.85197374  0.48105183  0.33105064  1
  In  In34  1  -0.01190826  -0.01518944  0.35050440  1
  In  In35  1  0.81371343  0.83163553  -0.00787404  1
  In  In36  1  0.16857086  -0.00797224  0.15525580  1
  In  In37  1  0.19010067  0.17870893  0.00579415  1
  In  In38  1  0.16938075  0.36374164  0.82681013  1
  In  In39  1  0.81450649  0.50997913  -0.00607252  1
  In  In40  1  -0.00475079  0.69016503  0.31442806  1
  In  In41  1  0.50748326  0.65758223  0.15300465  1
  In  In42  1  -0.00386854  0.66131621  0.02768748  1
  In  In43  1  -0.01115700  0.49502054  0.52373315  1
  In  In44  1  0.15839006  0.30772511  0.52385473  1
  In  In45  1  0.85174958  0.33872331  0.17628136  1
  In  In46  1  0.83168044  0.68097679  0.16620642  1
  In  In47  1  0.52115811  0.15681344  0.31937732  1
  In  In48  1  0.49073166  0.82185470  0.34441763  1
  In  In49  1  -0.00561388  0.49318240  0.81176259  1
  In  In50  1  0.68713848  0.02175867  0.00824478  1
  In  In51  1  0.68881905  0.13501755  0.45499706  1
  In  In52  1  0.51026705  0.15709065  0.01099886  1
  In  In53  1  0.84980683  0.18860078  0.65390155  1
  In  In54  1  0.34465839  0.33301680  0.67298503  1
  In  In55  1  0.50114121  0.32836745  0.81776117  1
  In  In56  1  0.66227760  0.67623472  0.35818656  1
  In  In57  1  0.65351065  0.01821863  0.68360902  1
  In  In58  1  0.47860431  0.51795782  0.31135285  1
  In  In59  1  0.64619195  0.81455509  0.83334871  1
  In  In60  1  0.34174911  0.51152346  0.49850546  1
  In  In61  1  0.33394265  -0.02011326  -0.00560294  1
  In  In62  1  -0.02139360  0.17602717  0.83050317  1
  In  In63  1  -0.03121939  -0.00084073  -0.00637350  1
  In  In64  1  0.69022645  0.47012476  0.81282637  1
  In  In65  1  0.00612735  0.34491245  0.00887710  1
  In  In66  1  0.50280869  0.17874869  0.68488595  1
  In  In67  1  0.32777513  -0.01203222  0.30700301  1
  In  In68  1  0.18664400  0.81476514  0.33052926  1
  In  In69  1  0.68989049  0.33462707  0.32751858  1
  In  In70  1  0.13283517  0.50406949  0.34390791  1
  In  In71  1  -0.01688051  0.16546910  0.48741543  1
  Te  Te72  1  0.08640055  0.08685034  0.06726448  1
  Te  Te73  1  0.08637194  0.08630151  0.41028124  1
  Te  Te74  1  0.07400754  0.07918191  0.77725467  1
  Te  Te75  1  0.09843086  0.43527294  0.08622534  1
  Te  Te76  1  0.07130020  0.40270343  0.43659721  1
  Te  Te77  1  0.06942563  0.40030851  0.72659373  1
  Te  Te78  1  0.06496314  0.77008751  0.09661283  1
  Te  Te79  1  0.07398133  0.76372576  0.42106086  1
  Te  Te80  1  0.09358627  0.74945576  0.73793897  1
  Te  Te81  1  0.41595488  0.07059206  0.10216506  1
  Te  Te82  1  0.41701553  0.07826308  0.39883151  1
  Te  Te83  1  0.41617321  0.06672045  0.73750529  1
  Te  Te84  1  0.42740848  0.45626763  0.07344178  1
  Te  Te85  1  0.42865689  0.41620355  0.41648348  1
  Te  Te86  1  0.45073952  0.43158001  0.71762317  1
  Te  Te87  1  0.43806678  0.74965460  0.06195602  1
  Te  Te88  1  0.39979538  0.75029802  0.43221219  1
  Te  Te89  1  0.43573428  0.74069371  0.74449247  1
  Te  Te90  1  0.73140876  0.10338144  0.11968273  1
  Te  Te91  1  0.77592949  0.03254395  0.38833559  1
  Te  Te92  1  0.75437210  0.11040179  0.74717889  1
  Te  Te93  1  0.74118144  0.39377683  0.08026080  1
  Te  Te94  1  0.74408437  0.43680983  0.43387941  1
  Te  Te95  1  0.78654464  0.39597690  0.72612575  1
  Te  Te96  1  0.72728374  0.73678739  0.07285034  1
  Te  Te97  1  0.77244497  0.77433486  0.39419802  1
  Te  Te98  1  0.75331611  0.73682312  0.76884306  1
  Te  Te99  1  0.09693251  0.25279735  0.26934722  1
  Te  Te100  1  0.04943207  0.24140946  0.59524940  1
  Te  Te101  1  0.09223817  0.25718424  0.91713304  1
  Te  Te102  1  0.07538038  0.59117426  0.24265405  1
  Te  Te103  1  0.09642231  0.56964543  0.59759551  1
  Te  Te104  1  0.07649592  0.58025446  0.92041435  1
  Te  Te105  1  0.09437494  0.91476262  0.25925207  1
  Te  Te106  1  0.06856284  0.90575052  0.58477052  1
  Te  Te107  1  0.08046974  0.92644109  0.92241123  1
  Te  Te108  1  0.41069605  0.25766710  0.26581394  1
  Te  Te109  1  0.41632181  0.23956324  0.57529156  1
  Te  Te110  1  0.42336420  0.24610303  0.92064643  1
  Te  Te111  1  0.38928893  0.63371942  0.25993131  1
  Te  Te112  1  0.42560850  0.59164333  0.59179149  1
  Te  Te113  1  0.39424289  0.55993365  0.89247866  1
  Te  Te114  1  0.41109153  0.88735193  0.23113871  1
  Te  Te115  1  0.40927435  0.88852996  0.58237209  1
  Te  Te116  1  0.43702156  0.90456071  0.92418534  1
  Te  Te117  1  0.78350248  0.23887186  0.26537754  1
  Te  Te118  1  0.74789990  0.23756046  0.55192006  1
  Te  Te119  1  0.77217303  0.29073852  0.96771062  1
  Te  Te120  1  0.74968251  0.58486712  0.26489002  1
  Te  Te121  1  0.73062704  0.60380279  0.60842012  1
  Te  Te122  1  0.73823246  0.58446727  0.89475722  1
  Te  Te123  1  0.73789826  0.96417326  0.25108050  1
  Te  Te124  1  0.74562636  0.93809202  0.59405978  1
  Te  Te125  1  0.74453495  0.92995439  0.89210346  1
  Te  Te126  1  0.27739899  0.28559933  0.06764134  1
  Te  Te127  1  0.24786106  0.22607683  0.43129015  1
  Te  Te128  1  0.24138949  0.25048434  0.74531093  1
  Te  Te129  1  0.23552897  0.61802800  0.07500292  1
  Te  Te130  1  0.23990668  0.58552150  0.41275980  1
  Te  Te131  1  0.24489463  0.56344400  0.74578521  1
  Te  Te132  1  0.25291535  0.88949923  0.08353368  1
  Te  Te133  1  0.26051855  0.91514997  0.41933744  1
  Te  Te134  1  0.25174069  0.89493626  0.79141819  1
  Te  Te135  1  0.57949222  0.24933012  0.10162793  1
  Te  Te136  1  0.59292835  0.25212210  0.41107493  1
  Te  Te137  1  0.61400309  0.27161406  0.72397190  1
  Te  Te138  1  0.56658406  0.55595981  0.06257756  1
  Te  Te139  1  0.57231439  0.57266075  0.41933416  1
  Te  Te140  1  0.58630847  0.54957465  0.73903907  1
  Te  Te141  1  0.59249049  0.91901877  0.06665864  1
  Te  Te142  1  0.57703235  0.93101509  0.40305661  1
  Te  Te143  1  0.56853268  0.90745453  0.73737464  1
  Te  Te144  1  0.93470657  0.24260749  0.09196537  1
  Te  Te145  1  0.89452912  0.23865693  0.39235776  1
  Te  Te146  1  0.88828756  0.27813787  0.76765909  1
  Te  Te147  1  0.90555712  0.56498068  0.10210395  1
  Te  Te148  1  0.92282165  0.58721322  0.42163030  1
  Te  Te149  1  0.90523809  0.59830373  0.76245277  1
  Te  Te150  1  0.88925796  0.91774999  0.08485284  1
  Te  Te151  1  0.87922356  0.92285437  0.42599565  1
  Te  Te152  1  0.92244098  0.89963701  0.75386842  1
  Te  Te153  1  0.23756855  0.09441805  0.24570630  1
  Te  Te154  1  0.22908499  0.06649955  0.61213379  1
  Te  Te155  1  0.25533492  0.08000260  0.91134967  1
  Te  Te156  1  0.25519573  0.43006850  0.24834780  1
  Te  Te157  1  0.25720236  0.41146950  0.57678224  1
  Te  Te158  1  0.28470294  0.42716257  0.89419353  1
  Te  Te159  1  0.26465336  0.72708398  0.24600607  1
  Te  Te160  1  0.24949939  0.76119403  0.58769353  1
  Te  Te161  1  0.26429075  0.77144517  0.88541443  1
  Te  Te162  1  0.62077520  0.08804329  0.22867393  1
  Te  Te163  1  0.58389889  0.09441914  0.56857298  1
  Te  Te164  1  0.60199029  0.10770135  0.90051583  1
  Te  Te165  1  0.58782997  0.42228983  0.25120337  1
  Te  Te166  1  0.55908613  0.39405809  0.61064900  1
  Te  Te167  1  0.59966737  0.39145933  0.91194246  1
  Te  Te168  1  0.59377639  0.75286886  0.24581421  1
  Te  Te169  1  0.61567337  0.75625689  0.57954579  1
  Te  Te170  1  0.56179501  0.73785384  0.92526414  1
  Te  Te171  1  0.92467340  0.05002780  0.23347530  1
  Te  Te172  1  0.90290975  0.07052370  0.57459059  1
  Te  Te173  1  0.88525410  0.10970904  0.93111802  1
  Te  Te174  1  0.95328553  0.40738659  0.25771232  1
  Te  Te175  1  0.88275386  0.43206876  0.60759489  1
  Te  Te176  1  0.91126278  0.41951167  0.91815365  1
  Te  Te177  1  0.91368275  0.78181096  0.23229611  1
  Te  Te178  1  0.90836146  0.74909414  0.57438464  1
  Te  Te179  1  0.91097080  0.73554312  0.92521634  1
