# generated using pymatgen
data_In2Te3
_symmetry_space_group_name_H-M   'P 1'
_cell_length_a   18.97345169
_cell_length_b   18.98192837
_cell_length_c   18.98279238
_cell_angle_alpha   90.01356658
_cell_angle_beta   90.17475721
_cell_angle_gamma   89.99312695
_symmetry_Int_Tables_number   1
_chemical_formula_structural   In2Te3
_chemical_formula_sum   'In72 Te108'
_cell_volume   6836.67190812
_cell_formula_units_Z   36
loop_
 _symmetry_equiv_pos_site_id
 _symmetry_equiv_pos_as_xyz
  1  'x, y, z'
loop_
 _atom_site_type_symbol
 _atom_site_label
 _atom_site_symmetry_multiplicity
 _atom_site_fract_x
 _atom_site_fract_y
 _atom_site_fract_z
 _atom_site_occupancy
  In  In0  1  0.30759112  0.85461505  0.48996659  1
  In  In1  1  -0.00621465  0.65482258  -0.00500815  1
  In  In2  1  0.18203575  0.46097481  0.66481728  1
  In  In3  1  0.32577192  0.49195517  0.49599482  1
  In  In4  1  0.49750253  0.82294968  0.33864250  1
  In  In5  1  0.83010195  0.32648918  0.16671370  1
  In  In6  1  0.49559260  0.48516763  0.67289335  1
  In  In7  1  0.01468081  0.63701101  0.67111492  1
  In  In8  1  0.02325046  0.49467373  0.84608175  1
  In  In9  1  0.33876157  0.50214883  0.82492334  1
  In  In10  1  0.01253192  -0.00034417  0.33726580  1
  In  In11  1  0.83343727  0.90292655  -0.04559029  1
  In  In12  1  0.64466501  0.16063369  0.49969725  1
  In  In13  1  0.33424694  0.66036203  0.32292713  1
  In  In14  1  -0.03214477  -0.01104474  0.65177224  1
  In  In15  1  0.68512721  0.84962299  0.16012537  1
  In  In16  1  0.82612016  0.68247988  0.83881847  1
  In  In17  1  0.50350554  0.67981124  0.82849637  1
  In  In18  1  0.65005480  0.32131168  0.00618115  1
  In  In19  1  0.14947650  0.49510189  0.34647721  1
  In  In20  1  0.69822194  0.35153409  0.68061662  1
  In  In21  1  0.52087007  0.82905243  0.68129695  1
  In  In22  1  0.20022020  0.81159782  -0.02311498  1
  In  In23  1  -0.01835981  0.83361518  0.49666840  1
  In  In24  1  0.87155831  0.14501566  -0.00816300  1
  In  In25  1  0.34993831  0.31691988  0.00025911  1
  In  In26  1  0.83004905  0.15684585  0.67162581  1
  In  In27  1  0.17728157  0.49278959  0.01803635  1
  In  In28  1  0.68369963  0.84244081  0.53533816  1
  In  In29  1  0.50006378  0.47396482  -0.01407197  1
  In  In30  1  0.65902491  0.66669156  0.34654887  1
  In  In31  1  0.82389254  0.51353188  0.34598524  1
  In  In32  1  0.80687946  0.16192691  0.34844830  1
  In  In33  1  0.18612034  0.65699705  0.16493030  1
  In  In34  1  0.48542272  0.01914213  0.14416356  1
  In  In35  1  0.34062404  0.84958771  0.16878748  1
  In  In36  1  0.86572553  0.36753756  0.53244518  1
  In  In37  1  0.84006264  0.49213525  -0.01696503  1
  In  In38  1  0.81554887  0.66356417  0.18178480  1
  In  In39  1  0.86463933  0.30810731  0.82120054  1
  In  In40  1  0.14968907  0.03394237  0.85915533  1
  In  In41  1  0.48586864  0.84719016  -0.00715867  1
  In  In42  1  0.48095345  0.15120690  0.32285412  1
  In  In43  1  0.65551031  0.51259927  0.49016971  1
  In  In44  1  0.03339050  0.14157825  0.15443384  1
  In  In45  1  0.83581228  0.00379106  0.16756734  1
  In  In46  1  -0.00796424  0.32366689  0.31588743  1
  In  In47  1  0.67205179  0.66543380  0.66712692  1
  In  In48  1  -0.01291171  0.84453440  0.15944607  1
  In  In49  1  0.83586016  0.65040424  0.50159213  1
  In  In50  1  0.51562386  0.35436462  0.18966994  1
  In  In51  1  0.66784410  0.68348297  0.02471246  1
  In  In52  1  0.35740033  0.67251098  0.67956611  1
  In  In53  1  0.31923781  0.00504865  0.66010034  1
  In  In54  1  0.50286369  0.00625771  0.49954336  1
  In  In55  1  0.16748685  0.36176144  0.18176989  1
  In  In56  1  0.29821636  0.15766611  0.17801756  1
  In  In57  1  0.66610431  0.17386653  0.84043303  1
  In  In58  1  0.02435013  0.68087014  0.32008535  1
  In  In59  1  0.49449635  0.65035228  0.15757598  1
  In  In60  1  -0.00685789  0.17636084  0.52930398  1
  In  In61  1  0.13566734  0.67861290  0.51887392  1
  In  In62  1  0.48878342  0.15634629  0.64728484  1
  In  In63  1  0.00507055  0.85592602  0.81429699  1
  In  In64  1  0.16842761  0.01901836  0.47512396  1
  In  In65  1  0.15238511  0.18717930  0.68017977  1
  In  In66  1  0.15576271  0.84279989  0.68615127  1
  In  In67  1  0.15020264  0.28484575  0.87442392  1
  In  In68  1  0.50303383  -0.00222959  0.84036430  1
  In  In69  1  0.49260825  0.33070988  0.82468036  1
  In  In70  1  0.67335098  0.17005677  0.17330166  1
  In  In71  1  0.47420248  0.33122649  0.48592488  1
  Te  Te72  1  0.10478668  0.11085801  0.02287974  1
  Te  Te73  1  0.07182488  0.11694218  0.41272654  1
  Te  Te74  1  0.07531445  0.06544085  0.72757983  1
  Te  Te75  1  0.07394878  0.41055993  0.07864609  1
  Te  Te76  1  0.07761127  0.38820218  0.41613141  1
  Te  Te77  1  0.10075169  0.39012716  0.77015520  1
  Te  Te78  1  0.07442552  0.73903539  0.09266796  1
  Te  Te79  1  0.09722208  0.77803336  0.41011794  1
  Te  Te80  1  0.08530853  0.73614711  0.76617274  1
  Te  Te81  1  0.36918416  0.07647647  0.07158144  1
  Te  Te82  1  0.40227733  0.09568148  0.43675511  1
  Te  Te83  1  0.40812205  0.08548492  0.75236657  1
  Te  Te84  1  0.41230084  0.41916105  0.09426184  1
  Te  Te85  1  0.38793545  0.40594106  0.39106171  1
  Te  Te86  1  0.39107627  0.39369925  0.73154167  1
  Te  Te87  1  0.40970030  0.74732266  0.07939660  1
  Te  Te88  1  0.40043196  0.75144683  0.42849692  1
  Te  Te89  1  0.40020548  0.78644462  0.77702766  1
  Te  Te90  1  0.75201249  0.08916828  0.07382880  1
  Te  Te91  1  0.72304961  0.06605351  0.41897354  1
  Te  Te92  1  0.77395476  0.07928852  0.78860321  1
  Te  Te93  1  0.74690358  0.41564146  0.07644394  1
  Te  Te94  1  0.75628386  0.41309970  0.43587289  1
  Te  Te95  1  0.78300538  0.42214101  0.77454696  1
  Te  Te96  1  0.78240704  0.77025964  0.07503734  1
  Te  Te97  1  0.75266807  0.75187885  0.42666603  1
  Te  Te98  1  0.73609105  0.76227038  0.75569530  1
  Te  Te99  1  0.09911155  0.24141742  0.24780360  1
  Te  Te100  1  0.08776810  0.27643964  0.58037284  1
  Te  Te101  1  0.03098750  0.18983266  0.90048400  1
  Te  Te102  1  0.08134652  0.57119875  0.23368113  1
  Te  Te103  1  0.08056372  0.54179203  0.57031104  1
  Te  Te104  1  0.11057745  0.59208476  0.92202294  1
  Te  Te105  1  0.08360721  0.93677725  0.22430977  1
  Te  Te106  1  0.09055831  0.91843145  0.57034464  1
  Te  Te107  1  0.09191203  0.90935168  0.92503141  1
  Te  Te108  1  0.41183560  0.25127000  0.23417613  1
  Te  Te109  1  0.39688541  0.24467470  0.57580250  1
  Te  Te110  1  0.44261055  0.23201278  0.92184006  1
  Te  Te111  1  0.43803916  0.57206337  0.26727872  1
  Te  Te112  1  0.42245432  0.57912574  0.58007183  1
  Te  Te113  1  0.42267987  0.58660270  0.91760296  1
  Te  Te114  1  0.42951045  0.93260900  0.25999907  1
  Te  Te115  1  0.41821622  0.90901628  0.59073794  1
  Te  Te116  1  0.39944252  0.94953886  0.93350171  1
  Te  Te117  1  0.72934447  0.27563911  0.26927464  1
  Te  Te118  1  0.74584018  0.24830410  0.58090799  1
  Te  Te119  1  0.76654600  0.25071695  0.93389306  1
  Te  Te120  1  0.71750167  0.56275721  0.24601236  1
  Te  Te121  1  0.75514228  0.56254202  0.59441469  1
  Te  Te122  1  0.74096186  0.59273182  0.92568611  1
  Te  Te123  1  0.76036703  0.92158280  0.26171414  1
  Te  Te124  1  0.78946414  0.90999246  0.60883916  1
  Te  Te125  1  0.72288086  0.96222767  0.88156355  1
  Te  Te126  1  0.23828870  0.26570191  0.08619599  1
  Te  Te127  1  0.28036072  0.16692823  0.33374981  1
  Te  Te128  1  0.24876679  0.22667009  0.78440396  1
  Te  Te129  1  0.27716885  0.57504497  0.08682080  1
  Te  Te130  1  0.23447973  0.60210300  0.42931831  1
  Te  Te131  1  0.24711672  0.58027959  0.73282360  1
  Te  Te132  1  0.23166055  0.90345746  0.08587917  1
  Te  Te133  1  0.25762199  0.94308313  0.38291935  1
  Te  Te134  1  0.23563111  0.94072257  0.76754317  1
  Te  Te135  1  0.56276076  0.24029020  0.09683997  1
  Te  Te136  1  0.56914265  0.24839796  0.40327800  1
  Te  Te137  1  0.58901629  0.24951079  0.73090292  1
  Te  Te138  1  0.58685529  0.56533645  0.07441415  1
  Te  Te139  1  0.55626097  0.58003314  0.40565147  1
  Te  Te140  1  0.58547089  0.57544462  0.75470755  1
  Te  Te141  1  0.58771143  0.92754625  0.07558774  1
  Te  Te142  1  0.58871016  0.90467718  0.42716214  1
  Te  Te143  1  0.60480246  0.91963568  0.76265861  1
  Te  Te144  1  0.93226115  0.24033676  0.09361737  1
  Te  Te145  1  0.90066480  0.25934653  0.42738863  1
  Te  Te146  1  0.93537463  0.25514631  0.70310335  1
  Te  Te147  1  0.90504519  0.57870848  0.09147524  1
  Te  Te148  1  0.93868609  0.59007323  0.40926523  1
  Te  Te149  1  0.91950660  0.58019847  0.77431362  1
  Te  Te150  1  0.92976804  0.94855411  0.06150123  1
  Te  Te151  1  0.90999018  0.92202502  0.40574891  1
  Te  Te152  1  0.88352931  0.89638469  0.73333567  1
  Te  Te153  1  0.22816380  0.05031218  0.25838212  1
  Te  Te154  1  0.23853292  0.10296310  0.57891922  1
  Te  Te155  1  0.24064846  0.10024095  0.95660119  1
  Te  Te156  1  0.26096930  0.42683377  0.27682817  1
  Te  Te157  1  0.25207394  0.38313866  0.56267479  1
  Te  Te158  1  0.25905256  0.40681201  0.91230136  1
  Te  Te159  1  0.24642864  0.76230296  0.25509712  1
  Te  Te160  1  0.25213581  0.75588409  0.59928514  1
  Te  Te161  1  0.28829690  0.75110317  0.88047069  1
  Te  Te162  1  0.58630659  0.07181827  0.24878548  1
  Te  Te163  1  0.59989248  0.06194800  0.60707347  1
  Te  Te164  1  0.56210396  0.10951623  0.92223672  1
  Te  Te165  1  0.63174595  0.41518953  0.25041175  1
  Te  Te166  1  0.58331097  0.40429938  0.57922937  1
  Te  Te167  1  0.60117117  0.41116214  0.89279096  1
  Te  Te168  1  0.58842902  0.75464673  0.23393921  1
  Te  Te169  1  0.57722382  0.73833150  0.57461041  1
  Te  Te170  1  0.59121218  0.76318579  0.92065733  1
  Te  Te171  1  0.91173519  0.10700910  0.25169570  1
  Te  Te172  1  0.88670356  0.07232751  0.55655633  1
  Te  Te173  1  0.93009976  0.08013310  0.87282681  1
  Te  Te174  1  0.90669016  0.42889229  0.24877977  1
  Te  Te175  1  0.94268714  0.47158651  0.59672470  1
  Te  Te176  1  0.94213271  0.39636080  0.92747671  1
  Te  Te177  1  0.90927981  0.75689787  0.25734707  1
  Te  Te178  1  0.92349147  0.73250708  0.59422988  1
  Te  Te179  1  0.92243861  0.76870672  0.91996005  1
