# generated using pymatgen
data_In2Te3
_symmetry_space_group_name_H-M   'P 1'
_cell_length_a   18.82810321
_cell_length_b   18.84521552
_cell_length_c   18.85077903
_cell_angle_alpha   90.03332208
_cell_angle_beta   90.03831342
_cell_angle_gamma   89.88614793
_symmetry_Int_Tables_number   1
_chemical_formula_structural   In2Te3
_chemical_formula_sum   'In72 Te108'
_cell_volume   6688.61123043
_cell_formula_units_Z   36
loop_
 _symmetry_equiv_pos_site_id
 _symmetry_equiv_pos_as_xyz
  1  'x, y, z'
loop_
 _atom_site_type_symbol
 _atom_site_label
 _atom_site_symmetry_multiplicity
 _atom_site_fract_x
 _atom_site_fract_y
 _atom_site_fract_z
 _atom_site_occupancy
  In  In0  1  0.66577113  0.66446599  0.34543213  1
  In  In1  1  0.34386965  0.16567772  0.52488861  1
  In  In2  1  0.14124493  0.16928932  0.34941116  1
  In  In3  1  0.84703770  0.65965695  0.14440294  1
  In  In4  1  0.16164756  0.65006136  0.13891558  1
  In  In5  1  0.48743764  0.48462656  0.01239552  1
  In  In6  1  0.79270563  0.89653190  0.34440525  1
  In  In7  1  0.34243058  0.32940275  0.65893524  1
  In  In8  1  0.19138045  0.16138511  0.00500724  1
  In  In9  1  0.00706720  0.67392359  0.67920386  1
  In  In10  1  0.00830811  -0.01326503  -0.00157848  1
  In  In11  1  0.34042893  -0.00460354  0.34367392  1
  In  In12  1  0.35260341  0.02413680  0.02626952  1
  In  In13  1  0.33806875  0.66258475  0.35444696  1
  In  In14  1  0.50553006  0.66777851  0.18670171  1
  In  In15  1  0.33472867  0.48359259  0.15663729  1
  In  In16  1  0.18625040  0.66342410  0.50243932  1
  In  In17  1  0.15733787  0.17717518  0.66621965  1
  In  In18  1  0.51249737  0.65201773  0.79498239  1
  In  In19  1  0.33833165  0.49536497  0.51574701  1
  In  In20  1  0.52726334  0.88091831  0.32894468  1
  In  In21  1  0.55441557  0.18043514  0.63778142  1
  In  In22  1  0.82751356  0.01114429  0.80986641  1
  In  In23  1  0.55014560  0.13719333  0.36915257  1
  In  In24  1  0.66223116  0.82938005  0.83283420  1
  In  In25  1  -0.03784705  0.35024764  0.67207354  1
  In  In26  1  0.55092527  0.46508985  0.34890546  1
  In  In27  1  0.31025094  0.84525294  0.81733734  1
  In  In28  1  0.48586716  0.30545748  0.84601470  1
  In  In29  1  -0.01691600  0.00229451  0.64920322  1
  In  In30  1  -0.02699160  0.20486098  0.80962378  1
  In  In31  1  0.35841005  0.85067361  0.21201418  1
  In  In32  1  0.17309123  0.83245246  -0.01012777  1
  In  In33  1  -0.00655124  0.49670689  0.15103230  1
  In  In34  1  -0.00454771  0.67743686  0.29900239  1
  In  In35  1  0.66542666  0.02511694  0.01576536  1
  In  In36  1  -0.03272661  0.16142740  0.48545353  1
  In  In37  1  -0.02861353  0.85180389  0.48390525  1
  In  In38  1  0.16245913  -0.00819571  0.17838325  1
  In  In39  1  0.35719308  0.17183427  0.16428853  1
  In  In40  1  0.81066187  0.85365586  0.64700247  1
  In  In41  1  0.51637981  0.48197774  0.63148835  1
  In  In42  1  0.66066849  0.48623969  0.19370030  1
  In  In43  1  0.12073368  0.65032363  0.85248806  1
  In  In44  1  0.31452479  0.49053091  0.83972506  1
  In  In45  1  0.35260733  0.33629089  0.31524798  1
  In  In46  1  0.53679693  0.85548067  0.63796853  1
  In  In47  1  0.16842890  0.33289864  0.50730866  1
  In  In48  1  0.84271039  0.47751012  -0.02064225  1
  In  In49  1  0.84335636  0.83030186  0.00241093  1
  In  In50  1  0.52635983  0.85758200  -0.01386833  1
  In  In51  1  0.70596916  0.65532535  0.00384759  1
  In  In52  1  0.66332697  0.64900846  0.64785272  1
  In  In53  1  -0.01461267  0.34274329  -0.00798973  1
  In  In54  1  0.68202321  0.17501386  0.81744802  1
  In  In55  1  0.65372000  0.30817596  0.01569787  1
  In  In56  1  0.33933917  0.66454822  0.68802938  1
  In  In57  1  0.49077603  0.02331959  0.81155736  1
  In  In58  1  0.34848961  0.65820623  0.02743442  1
  In  In59  1  0.82700808  0.17164514  -0.00415827  1
  In  In60  1  0.17775195  0.01576477  0.84769793  1
  In  In61  1  -0.01124979  0.48456766  0.51230479  1
  In  In62  1  -0.04634116  0.15500538  0.21952936  1
  In  In63  1  0.84975192  0.65394085  0.83972912  1
  In  In64  1  0.15404734  0.33793795  0.82527037  1
  In  In65  1  0.36127556  0.83602356  0.50504812  1
  In  In66  1  -0.00651793  0.85329868  0.17538046  1
  In  In67  1  -0.02532143  0.31361600  0.34497503  1
  In  In68  1  0.79739337  0.30598144  0.19732245  1
  In  In69  1  0.16268817  0.83259574  0.31837930  1
  In  In70  1  0.81886000  0.64776803  0.49391170  1
  In  In71  1  0.81418779  0.47147688  0.36515063  1
  Te  Te72  1  0.08294466  0.08469701  0.08796868  1
  Te  Te73  1  0.08413686  0.07671946  0.44666527  1
  Te  Te74  1  0.06801260  0.08979790  0.75691396  1
  Te  Te75  1  0.08534135  0.40788124  0.07794518  1
  Te  Te76  1  0.07600439  0.40803427  0.41182293  1
  Te  Te77  1  0.07176374  0.42539568  0.74096976  1
  Te  Te78  1  0.07355117  0.76133148  0.08203432  1
  Te  Te79  1  0.08274863  0.74218695  0.41283419  1
  Te  Te80  1  0.10795955  0.75484026  0.75069280  1
  Te  Te81  1  0.46617843  0.11511473  0.07276591  1
  Te  Te82  1  0.42828328  0.07025089  0.44138438  1
  Te  Te83  1  0.43709887  0.11000656  0.70568776  1
  Te  Te84  1  0.43108920  0.38132684  0.10176179  1
  Te  Te85  1  0.42716213  0.41012597  0.42659571  1
  Te  Te86  1  0.42017474  0.42766019  0.74746367  1
  Te  Te87  1  0.43103428  0.76884807  0.09225312  1
  Te  Te88  1  0.44061131  0.76675423  0.39549873  1
  Te  Te89  1  0.43570396  0.77509413  0.74918745  1
  Te  Te90  1  0.75356340  0.10408046  0.10526067  1
  Te  Te91  1  0.70513139  0.05880577  0.44951888  1
  Te  Te92  1  0.74042674  0.08297240  0.71514644  1
  Te  Te93  1  0.75460465  0.41714943  0.08889704  1
  Te  Te94  1  0.68563973  0.40817636  0.40672219  1
  Te  Te95  1  0.82880333  0.38558108  0.73964355  1
  Te  Te96  1  0.74415493  0.76603521  0.09926516  1
  Te  Te97  1  0.75500789  0.76329363  0.41938476  1
  Te  Te98  1  0.74982303  0.74307386  0.74393045  1
  Te  Te99  1  0.07216106  0.25078930  0.24295734  1
  Te  Te100  1  0.05799805  0.25511342  0.57846685  1
  Te  Te101  1  0.07932973  0.23178504  0.92074813  1
  Te  Te102  1  0.09101315  0.57079152  0.24775217  1
  Te  Te103  1  0.08497095  0.58251363  0.58143954  1
  Te  Te104  1  0.05676347  0.55429975  0.93993645  1
  Te  Te105  1  0.06161836  0.94094666  0.28004734  1
  Te  Te106  1  0.07101769  0.90937353  0.57492976  1
  Te  Te107  1  0.08119346  0.90540282  0.89273235  1
  Te  Te108  1  0.43709794  0.21319156  0.28640732  1
  Te  Te109  1  0.44465149  0.27098391  0.56569114  1
  Te  Te110  1  0.40901115  0.21372709  0.92866514  1
  Te  Te111  1  0.41525904  0.57069631  0.25839983  1
  Te  Te112  1  0.42669844  0.60038888  0.58107053  1
  Te  Te113  1  0.42518053  0.58558800  0.90968522  1
  Te  Te114  1  0.44687591  0.97098606  0.23517841  1
  Te  Te115  1  0.41897743  0.93490355  0.59700761  1
  Te  Te116  1  0.40999511  0.92412048  0.91408053  1
  Te  Te117  1  0.71744708  0.22526622  0.29169350  1
  Te  Te118  1  0.67087739  0.25987071  0.57417498  1
  Te  Te119  1  0.75815164  0.27328588  0.90928945  1
  Te  Te120  1  0.76495144  0.58712548  0.25250656  1
  Te  Te121  1  0.76006444  0.55137474  0.58879641  1
  Te  Te122  1  0.74087557  0.55700599  0.89588883  1
  Te  Te123  1  0.71491710  0.96169198  0.23808982  1
  Te  Te124  1  0.72980606  0.93600481  0.55277725  1
  Te  Te125  1  0.74817676  0.92373666  0.91815868  1
  Te  Te126  1  0.25581913  0.25470055  0.09798118  1
  Te  Te127  1  0.25842553  0.24967126  0.41659095  1
  Te  Te128  1  0.25932607  0.24701130  0.75443483  1
  Te  Te129  1  0.24224804  0.55324721  0.05376837  1
  Te  Te130  1  0.24433041  0.55626215  0.41081614  1
  Te  Te131  1  0.23041874  0.58536026  0.75718052  1
  Te  Te132  1  0.25769793  0.91084060  0.09063717  1
  Te  Te133  1  0.24674273  0.90483150  0.42191882  1
  Te  Te134  1  0.24768461  0.94958175  0.73581973  1
  Te  Te135  1  0.56212551  0.23610809  0.10349732  1
  Te  Te136  1  0.61590415  0.26103700  0.42639308  1
  Te  Te137  1  0.60097543  0.28562041  0.75023312  1
  Te  Te138  1  0.58974970  0.58457494  0.08801447  1
  Te  Te139  1  0.58048028  0.58387600  0.43285121  1
  Te  Te140  1  0.60182873  0.54244261  0.74580726  1
  Te  Te141  1  0.59835989  0.92020194  0.09770007  1
  Te  Te142  1  0.60524092  0.93478139  0.44657122  1
  Te  Te143  1  0.60283906  0.93919261  0.74727577  1
  Te  Te144  1  0.91213342  0.25114357  0.09816307  1
  Te  Te145  1  0.86441828  0.23838057  0.40857961  1
  Te  Te146  1  0.85761639  0.23767862  0.71613376  1
  Te  Te147  1  0.93831744  0.59160617  0.03752760  1
  Te  Te148  1  0.92572684  0.58365085  0.40090239  1
  Te  Te149  1  0.91140863  0.57512210  0.73184996  1
  Te  Te150  1  0.89903473  0.94100909  0.09393049  1
  Te  Te151  1  0.89751693  0.96937517  0.42506770  1
  Te  Te152  1  0.91301578  0.90167678  0.74799583  1
  Te  Te153  1  0.24910417  0.08731978  0.25869496  1
  Te  Te154  1  0.22999521  0.08658075  0.57447000  1
  Te  Te155  1  0.29582902  0.10630648  0.90356545  1
  Te  Te156  1  0.24531725  0.41096356  0.24884496  1
  Te  Te157  1  0.23688610  0.42657258  0.60589112  1
  Te  Te158  1  0.25464148  0.38668912  0.92307255  1
  Te  Te159  1  0.25420992  0.73221606  0.23810203  1
  Te  Te160  1  0.26172640  0.75758053  0.59339820  1
  Te  Te161  1  0.26713129  0.73482123  0.91990748  1
  Te  Te162  1  0.63618002  0.09585798  0.25073776  1
  Te  Te163  1  0.60064078  0.05450539  0.55632826  1
  Te  Te164  1  0.58628369  0.09700482  0.90629176  1
  Te  Te165  1  0.56018437  0.38168601  0.22253018  1
  Te  Te166  1  0.63444151  0.41210536  0.57275401  1
  Te  Te167  1  0.57909379  0.40509976  0.92254164  1
  Te  Te168  1  0.59925601  0.76634697  0.25245461  1
  Te  Te169  1  0.59714661  0.74658966  0.55935693  1
  Te  Te170  1  0.58744470  0.73053260  0.92228925  1
  Te  Te171  1  0.87648762  0.05754487  0.29549998  1
  Te  Te172  1  0.88514883  0.09851248  0.59404324  1
  Te  Te173  1  0.91901876  0.08327377  0.91130527  1
  Te  Te174  1  0.90363990  0.41798669  0.24837941  1
  Te  Te175  1  0.88079599  0.39313375  0.55162657  1
  Te  Te176  1  0.92866723  0.41446037  0.87225112  1
  Te  Te177  1  0.89067849  0.77916015  0.25936464  1
  Te  Te178  1  0.90765647  0.74777483  0.57796718  1
  Te  Te179  1  0.92950394  0.75734510  0.90866438  1
