# generated using pymatgen
data_In2Te3
_symmetry_space_group_name_H-M   'P 1'
_cell_length_a   18.91720959
_cell_length_b   18.91491148
_cell_length_c   18.95777444
_cell_angle_alpha   90.05385678
_cell_angle_beta   89.96696350
_cell_angle_gamma   90.09630314
_symmetry_Int_Tables_number   1
_chemical_formula_structural   In2Te3
_chemical_formula_sum   'In72 Te108'
_cell_volume   6783.40681173
_cell_formula_units_Z   36
loop_
 _symmetry_equiv_pos_site_id
 _symmetry_equiv_pos_as_xyz
  1  'x, y, z'
loop_
 _atom_site_type_symbol
 _atom_site_label
 _atom_site_symmetry_multiplicity
 _atom_site_fract_x
 _atom_site_fract_y
 _atom_site_fract_z
 _atom_site_occupancy
  In  In0  1  0.19979516  0.64272261  0.47728434  1
  In  In1  1  0.00990500  0.67834742  0.00003114  1
  In  In2  1  -0.03210300  0.79945346  0.16776714  1
  In  In3  1  -0.02431744  -0.02197813  0.34264864  1
  In  In4  1  0.63897215  0.34802582  0.68682293  1
  In  In5  1  0.02486620  0.16497876  0.83943650  1
  In  In6  1  0.62970302  -0.00694935  0.03817518  1
  In  In7  1  0.16897538  0.20506031  0.66484240  1
  In  In8  1  0.81093352  0.33111970  0.17728670  1
  In  In9  1  0.18967650  0.01322180  0.16024879  1
  In  In10  1  0.82073107  0.52638953  0.65885200  1
  In  In11  1  0.82934711  0.34321666  0.49270928  1
  In  In12  1  0.83406682  0.15640112  0.64350504  1
  In  In13  1  0.50195620  0.35403696  0.17058550  1
  In  In14  1  -0.02373624  0.50827496  0.49650427  1
  In  In15  1  0.17447445  0.33888042  0.83313136  1
  In  In16  1  0.15986481  0.16663456  0.31639458  1
  In  In17  1  0.81897732  0.16529904  -0.02934731  1
  In  In18  1  0.51865957  -0.00414584  0.84016867  1
  In  In19  1  -0.02666754  0.03366390  0.67369543  1
  In  In20  1  0.80916672  0.81448174  -0.01053261  1
  In  In21  1  0.67554800  -0.02768106  0.32935174  1
  In  In22  1  0.51175965  0.00886999  0.48304558  1
  In  In23  1  0.49371266  0.17973166  0.31565462  1
  In  In24  1  0.83689707  0.65201655  0.83984629  1
  In  In25  1  0.16097585  0.80904635  0.63858002  1
  In  In26  1  0.49139955  0.53881199  0.65263925  1
  In  In27  1  -0.00652092  0.35837744  0.01422215  1
  In  In28  1  0.34138259  0.80422711  0.81432393  1
  In  In29  1  0.17902932  0.66099517  0.18199410  1
  In  In30  1  0.64891552  0.66768400  0.02021770  1
  In  In31  1  0.67917876  0.15318499  0.48679400  1
  In  In32  1  0.03541261  -0.02298461  0.00950731  1
  In  In33  1  0.19614160  -0.00720237  0.85459934  1
  In  In34  1  0.63857586  0.52426607  0.19033293  1
  In  In35  1  0.35557608  0.50495692  0.84554443  1
  In  In36  1  0.67535899  0.68581608  0.63841443  1
  In  In37  1  0.66387569  0.18005220  0.18405209  1
  In  In38  1  0.32528269  0.21052344  0.48564063  1
  In  In39  1  0.82734031  0.51048254  0.34114536  1
  In  In40  1  0.81737787  -0.01951284  0.17757465  1
  In  In41  1  0.33702630  0.83209429  0.16001547  1
  In  In42  1  0.17829404  0.64902292  0.83336238  1
  In  In43  1  0.67976384  0.17685028  0.84857932  1
  In  In44  1  0.66400564  0.80723394  0.83387186  1
  In  In45  1  0.65679316  0.68579275  0.34608720  1
  In  In46  1  0.14467425  0.82600585  0.32151992  1
  In  In47  1  -0.02585159  0.83265491  0.49158609  1
  In  In48  1  0.30880842  -0.00899767  0.33102609  1
  In  In49  1  0.18634000  0.51257518  0.00639377  1
  In  In50  1  0.01887574  0.32511490  0.68745577  1
  In  In51  1  0.47923930  0.48861862  0.33834414  1
  In  In52  1  0.32785482  0.35378463  0.66554872  1
  In  In53  1  0.00258397  0.66348772  0.64898557  1
  In  In54  1  0.47402658  0.80276634  0.32179311  1
  In  In55  1  -0.00617408  0.14802714  0.16343167  1
  In  In56  1  0.52644420  0.13868436  0.65726912  1
  In  In57  1  0.49734267  0.35249599  0.50513151  1
  In  In58  1  0.35371035  0.78941532  0.50155465  1
  In  In59  1  0.82718149  0.49294669  -0.00140114  1
  In  In60  1  0.37318728  0.67063734  -0.01960562  1
  In  In61  1  0.15005838  -0.00428804  0.48464598  1
  In  In62  1  -0.01527748  0.32048116  0.32991213  1
  In  In63  1  0.00088333  0.53901318  0.16177050  1
  In  In64  1  0.80467387  0.33233512  0.82248357  1
  In  In65  1  0.36951488  0.00492631  0.01295717  1
  In  In66  1  0.32872012  0.01048690  0.64980854  1
  In  In67  1  0.30932237  0.35646332  0.15723390  1
  In  In68  1  0.83206154  -0.01291139  0.83276128  1
  In  In69  1  0.50173629  0.81507559  0.67386089  1
  In  In70  1  0.37642959  0.20882831  0.98380689  1
  In  In71  1  0.14256802  0.34637753  0.51128448  1
  Te  Te72  1  0.10297718  0.09856664  0.06911236  1
  Te  Te73  1  0.06434139  0.09022104  0.40574595  1
  Te  Te74  1  0.11064367  0.08196075  0.74583245  1
  Te  Te75  1  0.09379852  0.43499662  0.09950887  1
  Te  Te76  1  0.06595928  0.42497495  0.40511620  1
  Te  Te77  1  0.10814106  0.42882046  0.73866192  1
  Te  Te78  1  0.09498779  0.75944444  0.09583756  1
  Te  Te79  1  0.09775756  0.75209084  0.44283108  1
  Te  Te80  1  0.08634635  0.74142421  0.75029227  1
  Te  Te81  1  0.42821280  0.11759988  0.08719299  1
  Te  Te82  1  0.40148109  0.09131884  0.41741700  1
  Te  Te83  1  0.42137973  0.07581127  0.74897452  1
  Te  Te84  1  0.41374852  0.42154992  0.07048909  1
  Te  Te85  1  0.38800616  0.42968660  0.44370709  1
  Te  Te86  1  0.43657963  0.42469511  0.74159008  1
  Te  Te87  1  0.44398650  0.76470976  0.07782171  1
  Te  Te88  1  0.42827865  0.68690723  0.41849742  1
  Te  Te89  1  0.44323087  0.70951321  0.76110811  1
  Te  Te90  1  0.75170048  0.08790500  0.08608088  1
  Te  Te91  1  0.76111377  0.04678122  0.42507670  1
  Te  Te92  1  0.74952952  0.08351807  0.75046105  1
  Te  Te93  1  0.73224513  0.43441911  0.10144739  1
  Te  Te94  1  0.73636795  0.43225391  0.42573830  1
  Te  Te95  1  0.73136406  0.44740852  0.75587122  1
  Te  Te96  1  0.73589341  0.75786797  0.10289163  1
  Te  Te97  1  0.74863285  0.77703943  0.42312110  1
  Te  Te98  1  0.77405328  0.75426955  0.74927884  1
  Te  Te99  1  0.07865300  0.25819156  0.22651342  1
  Te  Te100  1  0.05477746  0.23501230  0.57062415  1
  Te  Te101  1  0.08765639  0.26450602  0.93332097  1
  Te  Te102  1  0.07000822  0.61120847  0.27308744  1
  Te  Te103  1  0.09428450  0.57409047  0.56760866  1
  Te  Te104  1  0.07696788  0.57015957  0.91844750  1
  Te  Te105  1  0.08215991  0.93551103  0.23976195  1
  Te  Te106  1  0.06962769  0.92108909  0.58879356  1
  Te  Te107  1  0.09008076  0.90263777  0.89715013  1
  Te  Te108  1  0.40241094  0.28625947  0.26556520  1
  Te  Te109  1  0.42770358  0.24102564  0.59468798  1
  Te  Te110  1  0.48095420  0.32245965  0.95538028  1
  Te  Te111  1  0.37859790  0.55537266  0.25052475  1
  Te  Te112  1  0.40897728  0.61410107  0.55534962  1
  Te  Te113  1  0.46442311  0.56629319  0.92661469  1
  Te  Te114  1  0.41695134  0.92822517  0.24830457  1
  Te  Te115  1  0.42180804  0.91509786  0.57601685  1
  Te  Te116  1  0.41216418  0.90697903  0.90034078  1
  Te  Te117  1  0.75290594  0.24540493  0.28083906  1
  Te  Te118  1  0.72823701  0.25678841  0.59708154  1
  Te  Te119  1  0.72620870  0.29093418  0.95131317  1
  Te  Te120  1  0.75198807  0.60434758  0.24970039  1
  Te  Te121  1  0.75799202  0.59849822  0.55005074  1
  Te  Te122  1  0.73107092  0.58126206  0.92045678  1
  Te  Te123  1  0.72040961  0.87825554  0.22229949  1
  Te  Te124  1  0.69878046  0.81840768  0.56065829  1
  Te  Te125  1  0.72989139  0.93071362  0.93170733  1
  Te  Te126  1  0.26541183  0.24211104  0.07562978  1
  Te  Te127  1  0.22496242  0.27782035  0.39765156  1
  Te  Te128  1  0.27581831  0.24786364  0.76231509  1
  Te  Te129  1  0.27988920  0.60273865  0.08263227  1
  Te  Te130  1  0.26316070  0.56392674  0.36771291  1
  Te  Te131  1  0.25777879  0.55986092  0.74957942  1
  Te  Te132  1  0.25390632  0.91547025  0.06587902  1
  Te  Te133  1  0.25653092  0.89677053  0.43918027  1
  Te  Te134  1  0.25297947  0.90301107  0.72801323  1
  Te  Te135  1  0.57260469  0.24866808  0.09088516  1
  Te  Te136  1  0.57503394  0.24559630  0.42589382  1
  Te  Te137  1  0.56678722  0.23995281  0.76543957  1
  Te  Te138  1  0.55517760  0.56361287  0.07375740  1
  Te  Te139  1  0.56555930  0.58683498  0.41270316  1
  Te  Te140  1  0.58488596  0.61809174  0.73813728  1
  Te  Te141  1  0.52748839  0.89816796  0.07955671  1
  Te  Te142  1  0.56757539  0.89441610  0.40380076  1
  Te  Te143  1  0.59849452  0.91038641  0.74345988  1
  Te  Te144  1  0.90746123  0.24927359  0.07916149  1
  Te  Te145  1  0.89582984  0.23985912  0.41364993  1
  Te  Te146  1  0.91178331  0.23358236  0.76138043  1
  Te  Te147  1  0.89764085  0.60613115  0.07448482  1
  Te  Te148  1  0.91192447  0.61242982  0.41218113  1
  Te  Te149  1  0.93097363  0.57307449  0.75127256  1
  Te  Te150  1  0.91298316  0.91257409  0.07747003  1
  Te  Te151  1  0.88265740  0.86543741  0.37675308  1
  Te  Te152  1  0.91746801  0.91494875  0.73904885  1
  Te  Te153  1  0.27667799  0.10841732  0.23935885  1
  Te  Te154  1  0.23964916  0.10140096  0.56332513  1
  Te  Te155  1  0.27882323  0.09425856  0.92363202  1
  Te  Te156  1  0.25299549  0.46426996  0.24563582  1
  Te  Te157  1  0.25842518  0.42802116  0.55932049  1
  Te  Te158  1  0.26738853  0.41149219  0.92823567  1
  Te  Te159  1  0.26642151  0.75314186  0.26925092  1
  Te  Te160  1  0.27209445  0.71184211  0.60348151  1
  Te  Te161  1  0.25255470  0.74601486  0.92303164  1
  Te  Te162  1  0.58309166  0.07328038  0.25564562  1
  Te  Te163  1  0.61967485  0.04583148  0.58277320  1
  Te  Te164  1  0.58152611  0.09479737  0.93571460  1
  Te  Te165  1  0.59550472  0.40829602  0.27726241  1
  Te  Te166  1  0.59069888  0.44453371  0.58016505  1
  Te  Te167  1  0.60616581  0.37281460  0.89489532  1
  Te  Te168  1  0.55905359  0.71789100  0.23891829  1
  Te  Te169  1  0.56204114  0.74935606  0.55312166  1
  Te  Te170  1  0.57083221  0.76275535  0.93621660  1
  Te  Te171  1  0.89772429  0.08036826  0.25898040  1
  Te  Te172  1  0.88951899  0.05203675  0.55362459  1
  Te  Te173  1  0.93500215  0.07174522  0.92049363  1
  Te  Te174  1  0.91574842  0.42918734  0.23577223  1
  Te  Te175  1  0.91485824  0.40720319  0.60244500  1
  Te  Te176  1  0.91266853  0.41396726  0.89921656  1
  Te  Te177  1  0.94686555  0.71339676  0.28345539  1
  Te  Te178  1  0.89977231  0.74020744  0.57798982  1
  Te  Te179  1  0.92305724  0.76081171  0.90667277  1
