# generated using pymatgen
data_In2Te3
_symmetry_space_group_name_H-M   'P 1'
_cell_length_a   18.98486718
_cell_length_b   18.97222910
_cell_length_c   19.00699163
_cell_angle_alpha   89.88653877
_cell_angle_beta   90.11657347
_cell_angle_gamma   90.11797359
_symmetry_Int_Tables_number   1
_chemical_formula_structural   In2Te3
_chemical_formula_sum   'In72 Te108'
_cell_volume   6845.99597476
_cell_formula_units_Z   36
loop_
 _symmetry_equiv_pos_site_id
 _symmetry_equiv_pos_as_xyz
  1  'x, y, z'
loop_
 _atom_site_type_symbol
 _atom_site_label
 _atom_site_symmetry_multiplicity
 _atom_site_fract_x
 _atom_site_fract_y
 _atom_site_fract_z
 _atom_site_occupancy
  In  In0  1  0.83295693  0.50391552  0.66906140  1
  In  In1  1  0.15551448  0.84736278  -0.00642167  1
  In  In2  1  0.18027646  0.64781944  0.17926505  1
  In  In3  1  0.86781540  -0.00516514  0.81491861  1
  In  In4  1  0.49782639  0.84910316  0.67964464  1
  In  In5  1  0.50372697  0.67471866  0.48047243  1
  In  In6  1  0.17733706  0.30710546  0.82773297  1
  In  In7  1  0.32266740  0.29018844  0.34917482  1
  In  In8  1  0.18590136  0.68880743  0.50842254  1
  In  In9  1  0.33600515  0.33107140  0.00457439  1
  In  In10  1  0.05924601  0.25785833  0.66800559  1
  In  In11  1  0.66718679  0.17247212  0.80926864  1
  In  In12  1  0.66367506  0.33412492  0.66073575  1
  In  In13  1  0.81933278  0.84111676  0.35081774  1
  In  In14  1  0.84391110  0.15519810  0.64700705  1
  In  In15  1  0.33438602  0.14114946  0.54162425  1
  In  In16  1  0.32326079  0.49631845  0.51065024  1
  In  In17  1  0.26083869  0.93307037  0.55358623  1
  In  In18  1  0.33973222  0.66721995  0.66242733  1
  In  In19  1  0.85501241  0.68323739  0.81656596  1
  In  In20  1  0.85265750  0.84543194  0.66898675  1
  In  In21  1  0.64280785  0.63170886  -0.01072842  1
  In  In22  1  0.83755137  0.50496266  0.32061190  1
  In  In23  1  0.35373248  0.69106229  0.32121984  1
  In  In24  1  0.17454907  0.17609740  0.00645614  1
  In  In25  1  0.83469628  0.15859620  0.34114485  1
  In  In26  1  0.15774272  0.69595696  0.81759392  1
  In  In27  1  0.01514556  0.30185043  0.36555423  1
  In  In28  1  -0.00495750  0.51016922  0.47465812  1
  In  In29  1  0.67928700  0.68034179  0.31284252  1
  In  In30  1  0.33208228  0.14319166  0.80551927  1
  In  In31  1  0.82975444  0.31221658  0.86129988  1
  In  In32  1  0.51152438  0.19007480  -0.02546512  1
  In  In33  1  0.82752884  0.65823371  0.14891928  1
  In  In34  1  0.67637920  0.16347912  0.15697197  1
  In  In35  1  -0.00511626  0.01293622  0.00072860  1
  In  In36  1  0.16573457  0.49481588  0.67875240  1
  In  In37  1  0.14536650  0.48891696  -0.00306022  1
  In  In38  1  0.66641126  0.00965531  -0.01329438  1
  In  In39  1  -0.00680434  0.35086527  0.02259103  1
  In  In40  1  0.80602630  0.33515029  0.51973156  1
  In  In41  1  0.49308220  0.01139147  0.14552121  1
  In  In42  1  0.47614886  0.27057891  0.49595705  1
  In  In43  1  0.67818940  0.83637742  0.83481102  1
  In  In44  1  0.00307601  0.67417788  0.34494067  1
  In  In45  1  0.51069040  0.83694252  0.32493559  1
  In  In46  1  0.48423122  0.49351539  0.32236330  1
  In  In47  1  0.31705789  0.48422114  0.14829887  1
  In  In48  1  0.31205311  0.14330003  0.19366567  1
  In  In49  1  0.56273703  0.40995367  0.81534494  1
  In  In50  1  0.66297607  -0.01503924  0.32502197  1
  In  In51  1  0.47909483  0.83255486  -0.00917607  1
  In  In52  1  0.16519440  0.48909743  0.34194763  1
  In  In53  1  0.33152154  -0.00764757  -0.00998550  1
  In  In54  1  0.86543105  -0.00258491  0.49800879  1
  In  In55  1  0.15177543  0.90536908  0.39110313  1
  In  In56  1  0.46615684  0.35124720  0.15486919  1
  In  In57  1  0.63838065  0.86504853  0.52354112  1
  In  In58  1  0.84908816  -0.01178983  0.19018086  1
  In  In59  1  0.01817964  0.20325616  0.17247003  1
  In  In60  1  0.62948664  0.30948352  0.35517476  1
  In  In61  1  -0.00425510  0.68809291  0.65491468  1
  In  In62  1  -0.01026555  0.66578660  -0.00692764  1
  In  In63  1  0.31958857  0.84049142  0.16463973  1
  In  In64  1  0.82558550  0.50222883  -0.00067022  1
  In  In65  1  0.31918015  0.86104953  0.79516891  1
  In  In66  1  0.66020115  0.49046829  0.51717938  1
  In  In67  1  0.01263501  0.15283692  0.81200255  1
  In  In68  1  0.02717247  0.83729248  0.20115503  1
  In  In69  1  0.84578170  0.79998179  0.00143986  1
  In  In70  1  0.83460313  0.35598324  0.16822323  1
  In  In71  1  0.46866834  0.56523727  0.82890564  1
  Te  Te72  1  0.08596633  0.09031913  0.09375513  1
  Te  Te73  1  0.04145235  0.07902805  0.46562392  1
  Te  Te74  1  0.12040971  0.08281063  0.73861383  1
  Te  Te75  1  0.09554545  0.40849032  0.10842599  1
  Te  Te76  1  0.10001059  0.40352976  0.44619104  1
  Te  Te77  1  0.07954613  0.39121130  0.74733566  1
  Te  Te78  1  0.08639388  0.74147453  0.09136167  1
  Te  Te79  1  0.08425185  0.76731711  0.42917170  1
  Te  Te80  1  0.10087215  0.77466807  0.70856224  1
  Te  Te81  1  0.40639412  0.10426734  0.06275488  1
  Te  Te82  1  0.43206415  0.13927335  0.42883880  1
  Te  Te83  1  0.41996336  0.05401525  0.71621090  1
  Te  Te84  1  0.46749651  0.41590578  0.01310813  1
  Te  Te85  1  0.40827168  0.40347658  0.41716663  1
  Te  Te86  1  0.42344608  0.43769127  0.77045086  1
  Te  Te87  1  0.39734954  0.75024593  0.08037481  1
  Te  Te88  1  0.40841946  0.77929621  0.42874095  1
  Te  Te89  1  0.42008439  0.74710615  0.76259463  1
  Te  Te90  1  0.76743531  0.06639996  0.08693061  1
  Te  Te91  1  0.74872648  0.06423713  0.42073435  1
  Te  Te92  1  0.75973576  0.07263054  0.74194126  1
  Te  Te93  1  0.73498041  0.41053220  0.07221587  1
  Te  Te94  1  0.74469704  0.41367588  0.40422591  1
  Te  Te95  1  0.76223542  0.40080810  0.75465475  1
  Te  Te96  1  0.72744891  0.73821174  0.07004573  1
  Te  Te97  1  0.71720025  0.76721304  0.43072306  1
  Te  Te98  1  0.74869153  0.75003832  0.73366574  1
  Te  Te99  1  0.11050749  0.22906262  0.28287622  1
  Te  Te100  1  0.10141430  0.20225919  0.53858361  1
  Te  Te101  1  0.06855949  0.25057477  0.92558249  1
  Te  Te102  1  0.07235867  0.57336848  0.25638794  1
  Te  Te103  1  0.09460375  0.58337497  0.56873482  1
  Te  Te104  1  0.08180912  0.58901813  0.90223983  1
  Te  Te105  1  0.10087813  0.95036718  0.25844849  1
  Te  Te106  1  0.10654923  0.95078065  0.52679345  1
  Te  Te107  1  0.07527033  0.93424953  0.90799618  1
  Te  Te108  1  0.42003188  0.23666876  0.24676696  1
  Te  Te109  1  0.40237529  0.24652209  0.62267679  1
  Te  Te110  1  0.40029596  0.24953410  0.89297910  1
  Te  Te111  1  0.40326424  0.58112094  0.22918812  1
  Te  Te112  1  0.42965789  0.58112748  0.57658790  1
  Te  Te113  1  0.44938097  0.59399478  0.97257568  1
  Te  Te114  1  0.41560452  0.92675317  0.24376007  1
  Te  Te115  1  0.41859076  0.94468359  0.59293718  1
  Te  Te116  1  0.42170545  0.92918433  0.88885860  1
  Te  Te117  1  0.74921427  0.25360751  0.25773619  1
  Te  Te118  1  0.72459813  0.22129319  0.57938809  1
  Te  Te119  1  0.72851752  0.23235542  0.92848732  1
  Te  Te120  1  0.73550773  0.56721533  0.22761777  1
  Te  Te121  1  0.74545384  0.58560992  0.58554557  1
  Te  Te122  1  0.76217233  0.59562354  0.89887149  1
  Te  Te123  1  0.73875349  0.89280902  0.23261643  1
  Te  Te124  1  0.75736213  0.93291494  0.58650946  1
  Te  Te125  1  0.77662814  0.91673031  0.92192765  1
  Te  Te126  1  0.25161853  0.25679494  0.10645427  1
  Te  Te127  1  0.24111061  0.22310853  0.45319124  1
  Te  Te128  1  0.26481731  0.24968850  0.72291617  1
  Te  Te129  1  0.24708739  0.58640550  0.05961834  1
  Te  Te130  1  0.26004608  0.59353750  0.40657430  1
  Te  Te131  1  0.25135645  0.59072238  0.75869701  1
  Te  Te132  1  0.23153666  0.93770439  0.08922161  1
  Te  Te133  1  0.28800759  0.96849340  0.40789360  1
  Te  Te134  1  0.21369290  0.95384758  0.74668317  1
  Te  Te135  1  0.57341462  0.25419645  0.09495163  1
  Te  Te136  1  0.58665627  0.19111238  0.43235633  1
  Te  Te137  1  0.56506304  0.26485262  0.75170489  1
  Te  Te138  1  0.55026743  0.56138483  0.08002522  1
  Te  Te139  1  0.58757379  0.57550350  0.40066239  1
  Te  Te140  1  0.58634601  0.54001817  0.74701356  1
  Te  Te141  1  0.58234710  0.91611574  0.07101931  1
  Te  Te142  1  0.55626388  0.94425936  0.42451594  1
  Te  Te143  1  0.60327929  0.93095952  0.74741696  1
  Te  Te144  1  0.90123326  0.24881651  0.08526643  1
  Te  Te145  1  0.90300669  0.24082141  0.44752770  1
  Te  Te146  1  0.91480603  0.25336007  0.73811449  1
  Te  Te147  1  0.93059497  0.56535014  0.09051614  1
  Te  Te148  1  0.88962921  0.60610850  0.42029849  1
  Te  Te149  1  0.93981269  0.58084169  0.74554307  1
  Te  Te150  1  0.93055933  0.89787259  0.09146776  1
  Te  Te151  1  0.92965261  0.92923389  0.38522446  1
  Te  Te152  1  0.96036571  0.93356069  0.72050577  1
  Te  Te153  1  0.24082652  0.06155733  0.29167184  1
  Te  Te154  1  0.22784358  0.06368919  0.62754098  1
  Te  Te155  1  0.23876988  0.08132368  0.90952182  1
  Te  Te156  1  0.25873814  0.40292476  0.26184340  1
  Te  Te157  1  0.25515646  0.40703358  0.60273847  1
  Te  Te158  1  0.24636688  0.41266818  0.91247954  1
  Te  Te159  1  0.23296613  0.76203175  0.26377535  1
  Te  Te160  1  0.26894093  0.78093098  0.59146860  1
  Te  Te161  1  0.25340872  0.77324205  0.90662315  1
  Te  Te162  1  0.58153246  0.08508278  0.24451642  1
  Te  Te163  1  0.54116741  0.03882543  0.63319575  1
  Te  Te164  1  0.57156372  0.07917133  0.89316412  1
  Te  Te165  1  0.57945590  0.40382311  0.24714874  1
  Te  Te166  1  0.56296874  0.38823853  0.56199485  1
  Te  Te167  1  0.60842558  0.42452139  0.95634713  1
  Te  Te168  1  0.56794662  0.73590316  0.23754845  1
  Te  Te169  1  0.57417606  0.74645945  0.59344487  1
  Te  Te170  1  0.58242955  0.75002548  0.91285087  1
  Te  Te171  1  0.93544287  0.09564227  0.25009539  1
  Te  Te172  1  0.95529524  0.06622844  0.59898100  1
  Te  Te173  1  0.90980325  0.10256134  0.91289870  1
  Te  Te174  1  0.93402098  0.39961121  0.27405795  1
  Te  Te175  1  0.91842356  0.42255174  0.57349238  1
  Te  Te176  1  0.92118239  0.42327325  0.91172048  1
  Te  Te177  1  0.90675118  0.74517861  0.24537071  1
  Te  Te178  1  0.91192857  0.76330468  0.56308559  1
  Te  Te179  1  0.94868030  0.77353831  0.89302395  1
