# generated using pymatgen
data_In2Te3
_symmetry_space_group_name_H-M   'P 1'
_cell_length_a   18.77367940
_cell_length_b   18.78405890
_cell_length_c   18.77210273
_cell_angle_alpha   89.89610770
_cell_angle_beta   89.99023666
_cell_angle_gamma   89.94099395
_symmetry_Int_Tables_number   1
_chemical_formula_structural   In2Te3
_chemical_formula_sum   'In72 Te108'
_cell_volume   6619.89056841
_cell_formula_units_Z   36
loop_
 _symmetry_equiv_pos_site_id
 _symmetry_equiv_pos_as_xyz
  1  'x, y, z'
loop_
 _atom_site_type_symbol
 _atom_site_label
 _atom_site_symmetry_multiplicity
 _atom_site_fract_x
 _atom_site_fract_y
 _atom_site_fract_z
 _atom_site_occupancy
  In  In0  1  0.68460293  0.49430408  0.16744403  1
  In  In1  1  0.66619316  -0.01233258  0.34692604  1
  In  In2  1  0.17728500  0.69205815  0.17282855  1
  In  In3  1  0.36984064  0.52913150  0.16954077  1
  In  In4  1  0.18405216  0.56448342  0.67573664  1
  In  In5  1  0.65648888  0.82904710  0.48375358  1
  In  In6  1  0.02453219  0.00568056  0.66092445  1
  In  In7  1  -0.01070053  0.48277436  0.16493942  1
  In  In8  1  0.51343029  0.69308679  0.20376537  1
  In  In9  1  0.84007614  0.00705133  0.84230676  1
  In  In10  1  -0.02201150  0.15462104  0.83178323  1
  In  In11  1  -0.03332763  0.33137137  0.01203751  1
  In  In12  1  0.15675107  0.15840504  0.33946953  1
  In  In13  1  0.64817655  0.50030024  0.83326689  1
  In  In14  1  0.49189206  0.84019633  0.00364448  1
  In  In15  1  0.68410731  0.35372096  0.34961297  1
  In  In16  1  0.16333668  0.35428761  0.83951701  1
  In  In17  1  0.35140393  0.35395991  0.66668207  1
  In  In18  1  -0.00427658  0.50310216  0.51455508  1
  In  In19  1  0.67673493  -0.01179665  0.64833040  1
  In  In20  1  0.49900959  0.52382230  0.66791493  1
  In  In21  1  0.47631100  0.80526450  0.67106530  1
  In  In22  1  0.16579494  0.82954674  0.33538293  1
  In  In23  1  0.34829169  0.33281693  0.31449185  1
  In  In24  1  0.49076724  0.15863764  0.01477047  1
  In  In25  1  0.32495658  0.13288161  0.49685791  1
  In  In26  1  0.19158147  0.53109164  0.35806093  1
  In  In27  1  0.83283080  0.50311747  0.01566480  1
  In  In28  1  0.18533821  0.18285505  0.63020296  1
  In  In29  1  0.67805762  0.33814724  0.65118039  1
  In  In30  1  0.82576110  0.31783876  0.17464264  1
  In  In31  1  0.33113796  0.53550089  0.48696590  1
  In  In32  1  0.82765054  0.51401684  0.65077473  1
  In  In33  1  0.51328584  -0.00787323  0.19102501  1
  In  In34  1  0.50870232  -0.01701956  0.51037437  1
  In  In35  1  0.48406542  -0.01197174  0.84901280  1
  In  In36  1  0.49068354  0.50547962  -0.01065247  1
  In  In37  1  0.66187230  0.65929511  -0.00026120  1
  In  In38  1  0.19949701  0.84133466  0.02079638  1
  In  In39  1  0.14743712  0.14770029  0.00584662  1
  In  In40  1  0.16609093  0.32085321  0.19433500  1
  In  In41  1  0.00959604  0.81345111  0.81925562  1
  In  In42  1  0.68374265  0.20674487  0.84828507  1
  In  In43  1  0.00473139  0.67256847  0.33591056  1
  In  In44  1  0.53895583  0.52712296  0.36924350  1
  In  In45  1  0.51041012  0.32121351  0.49789515  1
  In  In46  1  0.33894096  0.66886879  -0.01659573  1
  In  In47  1  0.82418466  0.67718098  0.49248468  1
  In  In48  1  -0.00539415  0.52551055  0.82174577  1
  In  In49  1  0.33697795  0.15454359  0.84341541  1
  In  In50  1  0.81525085  -0.00365226  0.19383855  1
  In  In51  1  0.34430490  -0.00972041  0.33107191  1
  In  In52  1  -0.00797624  0.02684171  -0.01124849  1
  In  In53  1  0.17992363  -0.03061786  0.82294754  1
  In  In54  1  -0.03581132  0.36587279  0.66806650  1
  In  In55  1  0.65541036  0.01113691  0.02041114  1
  In  In56  1  0.51661940  0.32359201  0.14957575  1
  In  In57  1  0.35125313  0.14145700  0.17075327  1
  In  In58  1  0.00168983  0.83074817  0.16381957  1
  In  In59  1  -0.00971992  0.15933265  0.47952609  1
  In  In60  1  0.82368956  0.81163891  0.66475015  1
  In  In61  1  0.83764372  0.65596256  0.18649857  1
  In  In62  1  0.83427071  0.17751417  0.65425219  1
  In  In63  1  -0.03469772  0.33050328  0.34225606  1
  In  In64  1  0.15324714  0.33680324  0.50906454  1
  In  In65  1  0.67682421  0.82135883  0.81705210  1
  In  In66  1  0.19794019  0.80811109  0.65674179  1
  In  In67  1  0.15955331  0.50598419  -0.02363671  1
  In  In68  1  0.30963650  0.32766704  -0.02392075  1
  In  In69  1  0.84335290  0.81049417  -0.00166808  1
  In  In70  1  0.16762534  -0.00490038  0.50264498  1
  In  In71  1  0.52163908  0.14946989  0.66888014  1
  Te  Te72  1  0.07387437  0.06738555  0.10556701  1
  Te  Te73  1  0.06713158  0.05080298  0.40273464  1
  Te  Te74  1  0.10016153  0.09154286  0.76201142  1
  Te  Te75  1  0.09674732  0.40598243  0.07736929  1
  Te  Te76  1  0.08291287  0.42101934  0.39987607  1
  Te  Te77  1  0.08988027  0.43223028  0.72945144  1
  Te  Te78  1  0.08227400  0.74676858  0.06615496  1
  Te  Te79  1  0.05921917  0.77607881  0.42620961  1
  Te  Te80  1  0.09199340  0.72898173  0.72843532  1
  Te  Te81  1  0.41141313  0.04022541  0.07070618  1
  Te  Te82  1  0.43650050  0.08315219  0.41003538  1
  Te  Te83  1  0.41226601  0.06936120  0.74025434  1
  Te  Te84  1  0.39911458  0.40263523  0.08344393  1
  Te  Te85  1  0.41671257  0.42046906  0.41999375  1
  Te  Te86  1  0.43632299  0.42569722  0.76142261  1
  Te  Te87  1  0.41429622  0.74361234  0.09296543  1
  Te  Te88  1  0.37799772  0.70702401  0.40752402  1
  Te  Te89  1  0.40536403  0.71952246  0.77066693  1
  Te  Te90  1  0.74366912  0.09360264  0.10396970  1
  Te  Te91  1  0.78656455  0.06232780  0.40573888  1
  Te  Te92  1  0.74280914  0.08504990  0.74922678  1
  Te  Te93  1  0.74031146  0.39391110  0.06888598  1
  Te  Te94  1  0.75583286  0.43359679  0.45006436  1
  Te  Te95  1  0.75492258  0.42381102  0.75063324  1
  Te  Te96  1  0.74680040  0.74267840  0.09531231  1
  Te  Te97  1  0.74503407  0.75281506  0.38547869  1
  Te  Te98  1  0.73285755  0.71345428  0.73028496  1
  Te  Te99  1  0.05560971  0.23729029  0.25507683  1
  Te  Te100  1  0.05138339  0.25158490  0.59890799  1
  Te  Te101  1  0.07536434  0.25430173  0.91633216  1
  Te  Te102  1  0.08755579  0.58081490  0.24144427  1
  Te  Te103  1  0.09549470  0.60052616  0.56332922  1
  Te  Te104  1  0.08789101  0.60955007  0.90048199  1
  Te  Te105  1  0.09730224  0.91686957  0.23484782  1
  Te  Te106  1  0.08623870  0.89347949  0.58193328  1
  Te  Te107  1  0.07155498  0.91537486  0.91861001  1
  Te  Te108  1  0.44299652  0.23172248  0.25200462  1
  Te  Te109  1  0.40963528  0.23441974  0.58709028  1
  Te  Te110  1  0.42879388  0.25511304  0.91159852  1
  Te  Te111  1  0.41314284  0.60701930  0.29876561  1
  Te  Te112  1  0.39682516  0.61418970  0.59891706  1
  Te  Te113  1  0.43767324  0.60422231  0.88886298  1
  Te  Te114  1  0.41478816  0.89319881  0.24275642  1
  Te  Te115  1  0.40819488  0.89600959  0.57462578  1
  Te  Te116  1  0.39057297  0.88875939  0.90453463  1
  Te  Te117  1  0.73349407  0.24199192  0.26320007  1
  Te  Te118  1  0.73756600  0.23780855  0.55980754  1
  Te  Te119  1  0.78808843  0.25675561  0.93652829  1
  Te  Te120  1  0.73622572  0.58609140  0.26973745  1
  Te  Te121  1  0.72860710  0.57421041  0.55209402  1
  Te  Te122  1  0.75771881  0.58389785  0.91018475  1
  Te  Te123  1  0.72965209  0.88822579  0.25166277  1
  Te  Te124  1  0.76603426  0.90654563  0.55783439  1
  Te  Te125  1  0.74280297  0.91585041  0.92070679  1
  Te  Te126  1  0.25427371  0.23833281  0.09045989  1
  Te  Te127  1  0.25472644  0.25027701  0.41263527  1
  Te  Te128  1  0.25065469  0.25321589  0.75512791  1
  Te  Te129  1  0.25001931  0.58019200  0.08424160  1
  Te  Te130  1  0.23216831  0.65545311  0.43988534  1
  Te  Te131  1  0.27724455  0.62865970  0.76845401  1
  Te  Te132  1  0.27384038  0.95375449  0.07532259  1
  Te  Te133  1  0.26452800  0.90527382  0.42941472  1
  Te  Te134  1  0.28095947  0.88537121  0.75504444  1
  Te  Te135  1  0.60418713  0.22776023  0.07861304  1
  Te  Te136  1  0.59559830  0.24535192  0.40571582  1
  Te  Te137  1  0.58236517  0.26389388  0.74853889  1
  Te  Te138  1  0.56975628  0.58358234  0.09803277  1
  Te  Te139  1  0.58907915  0.62336195  0.46990920  1
  Te  Te140  1  0.60189123  0.60716042  0.73902812  1
  Te  Te141  1  0.59570099  0.89638222  0.10078045  1
  Te  Te142  1  0.54735163  0.88942333  0.39495119  1
  Te  Te143  1  0.57916842  0.91453298  0.74005803  1
  Te  Te144  1  0.93097711  0.23117942  0.11293853  1
  Te  Te145  1  0.87857842  0.23075620  0.41131631  1
  Te  Te146  1  0.89611418  0.26650034  0.76264277  1
  Te  Te147  1  0.93339038  0.59793703  0.07966665  1
  Te  Te148  1  0.91220851  0.57766523  0.41073323  1
  Te  Te149  1  0.92288950  0.60378109  0.71857376  1
  Te  Te150  1  0.90496835  0.92635206  0.07604558  1
  Te  Te151  1  0.87787087  0.95112367  0.36383765  1
  Te  Te152  1  0.91816307  0.92314709  0.74107842  1
  Te  Te153  1  0.24104698  0.06975587  0.24878543  1
  Te  Te154  1  0.26132786  0.05219662  0.60982795  1
  Te  Te155  1  0.25114529  0.06317312  0.92980044  1
  Te  Te156  1  0.25564492  0.43603364  0.24824929  1
  Te  Te157  1  0.25007732  0.43221014  0.58289940  1
  Te  Te158  1  0.27286558  0.44898031  0.88924154  1
  Te  Te159  1  0.27632534  0.76492695  0.25461962  1
  Te  Te160  1  0.29423768  0.73045458  0.56800191  1
  Te  Te161  1  0.23067325  0.74368066  0.91336073  1
  Te  Te162  1  0.60509942  0.08823970  0.25401562  1
  Te  Te163  1  0.60832883  0.09119985  0.55783181  1
  Te  Te164  1  0.58853010  0.08751206  0.90117521  1
  Te  Te165  1  0.56843903  0.42763848  0.25023785  1
  Te  Te166  1  0.58108105  0.42950133  0.57594434  1
  Te  Te167  1  0.58601723  0.40907955  0.93188911  1
  Te  Te168  1  0.61122219  0.75028440  0.29873238  1
  Te  Te169  1  0.57664511  0.74030257  0.57651682  1
  Te  Te170  1  0.57864758  0.75147571  0.91144752  1
  Te  Te171  1  0.90572119  0.07619564  0.28288869  1
  Te  Te172  1  0.91209341  0.06793647  0.58031651  1
  Te  Te173  1  0.87005030  0.12293087  0.94149005  1
  Te  Te174  1  0.88414837  0.43228079  0.26077383  1
  Te  Te175  1  0.87944918  0.39908673  0.54253093  1
  Te  Te176  1  0.91375581  0.42776865  0.90748398  1
  Te  Te177  1  0.90682435  0.76882685  0.26457735  1
  Te  Te178  1  0.92328926  0.75406615  0.57180198  1
  Te  Te179  1  0.90292267  0.73468708  0.88738689  1
