# generated using pymatgen
data_In2Te3
_symmetry_space_group_name_H-M   'P 1'
_cell_length_a   18.94192264
_cell_length_b   18.94108025
_cell_length_c   18.96648867
_cell_angle_alpha   90.00228319
_cell_angle_beta   90.09966565
_cell_angle_gamma   90.03446158
_symmetry_Int_Tables_number   1
_chemical_formula_structural   In2Te3
_chemical_formula_sum   'In72 Te108'
_cell_volume   6804.79431753
_cell_formula_units_Z   36
loop_
 _symmetry_equiv_pos_site_id
 _symmetry_equiv_pos_as_xyz
  1  'x, y, z'
loop_
 _atom_site_type_symbol
 _atom_site_label
 _atom_site_symmetry_multiplicity
 _atom_site_fract_x
 _atom_site_fract_y
 _atom_site_fract_z
 _atom_site_occupancy
  In  In0  1  0.31452010  0.63350557  -0.00775837  1
  In  In1  1  0.65761864  0.16863263  0.83727451  1
  In  In2  1  0.83490931  0.00873987  0.17826836  1
  In  In3  1  0.16946667  0.68044959  0.13898053  1
  In  In4  1  0.16442105  0.48744298  0.30601149  1
  In  In5  1  0.65507433  0.50030090  0.18110523  1
  In  In6  1  -0.02222839  0.66310577  0.34094601  1
  In  In7  1  0.84441457  0.02632072  0.83766807  1
  In  In8  1  0.48664709  0.03365239  0.48891074  1
  In  In9  1  0.48424955  0.47217642  0.35018083  1
  In  In10  1  0.17406801  0.48028203  0.00718338  1
  In  In11  1  0.65123288  0.66962981  0.67830374  1
  In  In12  1  -0.00435778  0.48461742  0.80878735  1
  In  In13  1  0.31646542  0.48889075  0.82055844  1
  In  In14  1  0.45017709  0.28465143  0.14067066  1
  In  In15  1  0.84025535  0.85102087  0.02341283  1
  In  In16  1  0.32093896  0.29995023  0.63500815  1
  In  In17  1  0.34297387  0.87778888  0.19069407  1
  In  In18  1  0.63938968  0.00947317  -0.02212134  1
  In  In19  1  0.81106275  0.70315344  0.84474978  1
  In  In20  1  0.18265980  0.85040086  0.00270003  1
  In  In21  1  0.50232110  0.47828775  0.66001924  1
  In  In22  1  0.04920446  0.27876738  -0.01011364  1
  In  In23  1  0.00922585  0.83214187  0.83156266  1
  In  In24  1  0.22391176  0.30630603  0.17488614  1
  In  In25  1  0.64454247  0.47472408  0.86126027  1
  In  In26  1  0.84172698  0.68507524  0.17270183  1
  In  In27  1  0.83356238  0.84611446  0.35417717  1
  In  In28  1  0.04665176  0.68454843  0.02742016  1
  In  In29  1  0.15744135  0.66774524  0.50901596  1
  In  In30  1  0.19034907  0.01151134  0.81273675  1
  In  In31  1  0.19387635  0.31002457  0.46360108  1
  In  In32  1  0.14854387  0.65105657  0.81349541  1
  In  In33  1  0.31915300  0.84096909  0.81043682  1
  In  In34  1  0.64161920  0.31491511  0.67472084  1
  In  In35  1  0.19286958  0.02072702  0.18868198  1
  In  In36  1  0.61996510  0.33423994  0.01268840  1
  In  In37  1  0.65851134  0.30167377  0.33275682  1
  In  In38  1  0.68096386  0.84859888  0.50126508  1
  In  In39  1  0.68935726  0.64858377  0.04082238  1
  In  In40  1  0.48024684  0.68986375  0.85025815  1
  In  In41  1  0.49887144  0.83876274  0.01845564  1
  In  In42  1  0.64664380  0.03616141  0.32183526  1
  In  In43  1  0.83500272  0.33726754  0.82867841  1
  In  In44  1  0.31505554  0.84850933  0.46272212  1
  In  In45  1  0.33589738  0.67187433  0.32027672  1
  In  In46  1  0.64341328  0.18118869  0.50056535  1
  In  In47  1  0.83869551  0.47485492  -0.00039658  1
  In  In48  1  0.02710292  0.16138896  0.16714936  1
  In  In49  1  0.83352628  -0.00324853  0.51828212  1
  In  In50  1  0.63607354  0.84439359  0.83661773  1
  In  In51  1  0.50202818  0.85710621  0.66532929  1
  In  In52  1  0.01547098  0.32913463  0.30928066  1
  In  In53  1  0.33915805  0.48427696  0.49273797  1
  In  In54  1  0.00786669  -0.01214954  0.65543446  1
  In  In55  1  0.64529937  0.66841159  0.31500734  1
  In  In56  1  0.83093936  0.18024749  0.32568877  1
  In  In57  1  0.00505040  0.69602396  0.65668851  1
  In  In58  1  0.50277619  0.67039837  0.15498549  1
  In  In59  1  0.88255318  0.67592114  0.49169215  1
  In  In60  1  0.67086136  0.48620778  0.52879337  1
  In  In61  1  0.03707669  0.85666208  0.48695907  1
  In  In62  1  -0.00695319  0.48386191  0.16132777  1
  In  In63  1  0.82923933  0.33320026  0.50880238  1
  In  In64  1  0.47691846  0.66860479  0.47733593  1
  In  In65  1  0.84812817  0.50831165  0.67534307  1
  In  In66  1  0.02570934  0.13692527  0.47899663  1
  In  In67  1  0.34629342  0.09338794  0.03979244  1
  In  In68  1  0.01599661  0.31502089  0.69162443  1
  In  In69  1  0.83415578  0.16630183  0.00925688  1
  In  In70  1  0.44990994  0.03091605  0.82471213  1
  In  In71  1  0.16884496  0.15784491  0.65925021  1
  Te  Te72  1  0.10283721  0.06853349  0.08187083  1
  Te  Te73  1  0.13250907  0.05995146  0.40821472  1
  Te  Te74  1  0.07182114  0.08576394  0.75176076  1
  Te  Te75  1  0.09552333  0.38939037  0.09982848  1
  Te  Te76  1  0.08762503  0.41480583  0.41210001  1
  Te  Te77  1  0.10847890  0.40502674  0.76370099  1
  Te  Te78  1  0.08429234  0.80736817  0.10922948  1
  Te  Te79  1  0.09230214  0.74672802  0.39794455  1
  Te  Te80  1  0.10883946  0.77435229  0.73325928  1
  Te  Te81  1  0.47469472  0.06680225  0.11851524  1
  Te  Te82  1  0.37580708  0.05613970  0.38666498  1
  Te  Te83  1  0.38076510  0.09021934  0.70501732  1
  Te  Te84  1  0.37790130  0.38942598  0.06498523  1
  Te  Te85  1  0.41357771  0.37303390  0.43223718  1
  Te  Te86  1  0.39839650  0.39656449  0.73014213  1
  Te  Te87  1  0.39553968  0.74126355  0.07254005  1
  Te  Te88  1  0.42836720  0.77481467  0.38352123  1
  Te  Te89  1  0.41343918  0.74962398  0.73071155  1
  Te  Te90  1  0.73809940  0.07260512  0.07865402  1
  Te  Te91  1  0.75198096  0.09367015  0.42575862  1
  Te  Te92  1  0.74753328  0.09223373  0.75128792  1
  Te  Te93  1  0.73587664  0.40987514  0.08632301  1
  Te  Te94  1  0.73627640  0.40839194  0.41617769  1
  Te  Te95  1  0.73706078  0.42621926  0.74166564  1
  Te  Te96  1  0.73824103  0.77613649  0.10794147  1
  Te  Te97  1  0.74909819  0.73569818  0.41614914  1
  Te  Te98  1  0.73716002  0.77948567  0.73731365  1
  Te  Te99  1  0.12001780  0.23172304  0.26446803  1
  Te  Te100  1  0.08532720  0.25055823  0.56279819  1
  Te  Te101  1  0.14757721  0.21790961  0.89923166  1
  Te  Te102  1  0.07503448  0.59551966  0.23456039  1
  Te  Te103  1  0.07169816  0.58335853  0.59299679  1
  Te  Te104  1  0.08070639  0.57066668  0.92495946  1
  Te  Te105  1  0.09952123  0.95716978  0.28459412  1
  Te  Te106  1  0.12206757  0.92992811  0.58261858  1
  Te  Te107  1  0.09625904  0.92916989  0.90747444  1
  Te  Te108  1  0.35116765  0.24721985  0.24802602  1
  Te  Te109  1  0.42416396  0.19526302  0.59952634  1
  Te  Te110  1  0.38076733  0.24331378  1.00590503  1
  Te  Te111  1  0.42976054  0.57595258  0.25053637  1
  Te  Te112  1  0.41652808  0.57872732  0.58345375  1
  Te  Te113  1  0.42107480  0.56612825  0.91059464  1
  Te  Te114  1  0.42853901  0.96473840  0.27356663  1
  Te  Te115  1  0.41406579  0.91841948  0.56191197  1
  Te  Te116  1  0.41778220  0.90528575  0.90545637  1
  Te  Te117  1  0.74117942  0.24064678  0.22850540  1
  Te  Te118  1  0.74985675  0.24142744  0.59816868  1
  Te  Te119  1  0.74346251  0.26565394  0.92649594  1
  Te  Te120  1  0.75792399  0.58640138  0.25393349  1
  Te  Te121  1  0.75783430  0.59956253  0.59136581  1
  Te  Te122  1  0.75676277  0.57476090  0.91030140  1
  Te  Te123  1  0.74117040  0.92769504  0.26644786  1
  Te  Te124  1  0.72736519  0.94247653  0.60268314  1
  Te  Te125  1  0.74771792  0.91359837  0.91732227  1
  Te  Te126  1  0.23858695  0.20134602  0.06572512  1
  Te  Te127  1  0.25668314  0.17601648  0.44892594  1
  Te  Te128  1  0.23282437  0.25907680  0.74976921  1
  Te  Te129  1  0.25652518  0.55872886  0.10975359  1
  Te  Te130  1  0.25058931  0.57726571  0.40249811  1
  Te  Te131  1  0.25194936  0.58752926  0.73384847  1
  Te  Te132  1  0.28258863  0.94429736  0.06764902  1
  Te  Te133  1  0.21734274  0.92948431  0.38295099  1
  Te  Te134  1  0.25365332  0.92573102  0.71035830  1
  Te  Te135  1  0.58081335  0.22290621  0.10050480  1
  Te  Te136  1  0.55095303  0.21256992  0.38680775  1
  Te  Te137  1  0.55169276  0.24678299  0.76751267  1
  Te  Te138  1  0.56978127  0.56013932  0.07016007  1
  Te  Te139  1  0.58503694  0.57072247  0.42590392  1
  Te  Te140  1  0.57061549  0.57519280  0.76304854  1
  Te  Te141  1  0.57659202  0.93857452  0.09504823  1
  Te  Te142  1  0.58762243  0.93584421  0.42095495  1
  Te  Te143  1  0.56914152  0.95425980  0.75916011  1
  Te  Te144  1  0.93292004  0.25216429  0.08735515  1
  Te  Te145  1  0.92639955  0.25351441  0.42067654  1
  Te  Te146  1  0.92184424  0.23584307  0.77051027  1
  Te  Te147  1  0.91188866  0.58740141  0.07631316  1
  Te  Te148  1  0.91883436  0.55490509  0.42032972  1
  Te  Te149  1  0.91452598  0.61367032  0.76538698  1
  Te  Te150  1  0.93173618  0.94317861  0.08879878  1
  Te  Te151  1  0.93214899  0.94198303  0.41649346  1
  Te  Te152  1  0.91326929  0.91660907  0.75232352  1
  Te  Te153  1  0.30927311  0.09504784  0.24733880  1
  Te  Te154  1  0.28176494  0.09722227  0.57933138  1
  Te  Te155  1  0.26096586  0.10395541  0.90695863  1
  Te  Te156  1  0.28126298  0.40221533  0.27521883  1
  Te  Te157  1  0.23371211  0.41020221  0.57191999  1
  Te  Te158  1  0.27552281  0.39989299  0.93489031  1
  Te  Te159  1  0.25039065  0.76690705  0.23858680  1
  Te  Te160  1  0.27066403  0.74542249  0.55852520  1
  Te  Te161  1  0.24143069  0.74029726  0.91123936  1
  Te  Te162  1  0.54015912  0.11353545  0.25152802  1
  Te  Te163  1  0.56749907  0.09839184  0.59676399  1
  Te  Te164  1  0.54126250  0.10834995  0.91898315  1
  Te  Te165  1  0.56653012  0.39731077  0.24754291  1
  Te  Te166  1  0.56498073  0.38213133  0.56073750  1
  Te  Te167  1  0.54102122  0.37783800  0.89629983  1
  Te  Te168  1  0.57251634  0.76871821  0.23896546  1
  Te  Te169  1  0.57533982  0.74799387  0.57171799  1
  Te  Te170  1  0.59666835  0.73586697  0.93686531  1
  Te  Te171  1  0.93316932  0.08819944  0.26354629  1
  Te  Te172  1  0.92505857  0.09670290  0.58633968  1
  Te  Te173  1  0.93413436  0.09529392  0.92934425  1
  Te  Te174  1  0.90682373  0.40871753  0.25129615  1
  Te  Te175  1  0.92692591  0.40738610  0.59848935  1
  Te  Te176  1  0.94574171  0.39597031  0.92574624  1
  Te  Te177  1  0.92605253  0.78029491  0.25371245  1
  Te  Te178  1  0.92186213  0.79216282  0.57556373  1
  Te  Te179  1  0.92772448  0.75300758  0.93521005  1
