# generated using pymatgen
data_In2Te3
_symmetry_space_group_name_H-M   'P 1'
_cell_length_a   18.76783456
_cell_length_b   18.76533765
_cell_length_c   18.76428284
_cell_angle_alpha   90.06498755
_cell_angle_beta   89.93884283
_cell_angle_gamma   89.97871928
_symmetry_Int_Tables_number   1
_chemical_formula_structural   In2Te3
_chemical_formula_sum   'In72 Te108'
_cell_volume   6608.48583364
_cell_formula_units_Z   36
loop_
 _symmetry_equiv_pos_site_id
 _symmetry_equiv_pos_as_xyz
  1  'x, y, z'
loop_
 _atom_site_type_symbol
 _atom_site_label
 _atom_site_symmetry_multiplicity
 _atom_site_fract_x
 _atom_site_fract_y
 _atom_site_fract_z
 _atom_site_occupancy
  In  In0  1  0.49769768  0.50422862  0.02015576  1
  In  In1  1  0.48990360  0.33453681  0.83250366  1
  In  In2  1  -0.01078675  0.34160744  0.34116392  1
  In  In3  1  0.49091420  0.01657188  0.18976489  1
  In  In4  1  0.16329908  0.16915536  0.00020690  1
  In  In5  1  0.15303462  0.66430817  0.49786319  1
  In  In6  1  0.48777561  0.67418431  0.81214611  1
  In  In7  1  0.49773449  0.00800613  0.85696628  1
  In  In8  1  0.18506200  0.00435600  0.48796980  1
  In  In9  1  0.52028462  0.49663454  0.33776751  1
  In  In10  1  -0.00481179  0.83915052  0.48941329  1
  In  In11  1  0.68865426  0.83467777  0.83982959  1
  In  In12  1  0.68325881  0.49320700  0.48127942  1
  In  In13  1  0.82404537  0.65301417  0.47417863  1
  In  In14  1  0.85615488  0.00314184  0.49097480  1
  In  In15  1  0.14896422  0.50629777  0.32502338  1
  In  In16  1  0.29831872  0.81835951  0.15174305  1
  In  In17  1  0.31446013  0.33737417  0.67061420  1
  In  In18  1  0.33357537  0.18974603  0.81959153  1
  In  In19  1  0.84277177  0.82302969  0.01169688  1
  In  In20  1  0.02539946  0.50973756  0.83803394  1
  In  In21  1  0.84888181  0.53242104  0.29806860  1
  In  In22  1  0.85561720  0.33121288  0.84562880  1
  In  In23  1  0.50526286  0.49632999  0.65413223  1
  In  In24  1  -0.00964555  0.17561409  0.17665890  1
  In  In25  1  0.33007388  0.16729000  0.17913506  1
  In  In26  1  0.64933816  0.30926687  0.35939301  1
  In  In27  1  0.83578891  0.83555840  0.68446213  1
  In  In28  1  0.33591197  0.69244206  0.32644235  1
  In  In29  1  0.66455679  0.81788249  0.48926079  1
  In  In30  1  0.17761001  0.16563161  0.33321415  1
  In  In31  1  0.30027049  0.67166437  -0.03736788  1
  In  In32  1  0.49150676  0.85717900  0.01185761  1
  In  In33  1  0.32831454  0.32011339  0.33152253  1
  In  In34  1  0.32703394  -0.02282986  0.00047360  1
  In  In35  1  0.13316284  0.49053417  0.02588275  1
  In  In36  1  0.28519004  0.53767270  0.81933582  1
  In  In37  1  0.17427782  0.33974038  0.82751279  1
  In  In38  1  0.68804679  0.34856999  0.64672868  1
  In  In39  1  0.65419417  -0.00290845  0.32100683  1
  In  In40  1  0.01593056  0.67420935  0.67163344  1
  In  In41  1  0.01956485  0.16178649  0.83385321  1
  In  In42  1  0.16356344  0.82908481  0.66590549  1
  In  In43  1  0.64702170  0.00917491  0.65275135  1
  In  In44  1  0.81338124  0.15605509  0.03879448  1
  In  In45  1  0.49414233  0.16675422  0.66264105  1
  In  In46  1  -0.01269992  0.66861090  0.32097901  1
  In  In47  1  0.66445343  0.66795410  0.01116850  1
  In  In48  1  0.85811644  0.49783167  0.65458686  1
  In  In49  1  0.83448793  0.17029351  0.33437432  1
  In  In50  1  0.48566451  0.82961987  0.64894645  1
  In  In51  1  0.84501440  -0.02711388  0.83944196  1
  In  In52  1  0.01622467  -0.01966468  0.31015754  1
  In  In53  1  0.65468216  0.29873373  0.04810147  1
  In  In54  1  0.34307771  0.16734576  0.49392335  1
  In  In55  1  0.33550643  0.84868659  0.49720358  1
  In  In56  1  -0.00893230  -0.00765115  -0.00024086  1
  In  In57  1  0.86218133  0.52404299  0.04371481  1
  In  In58  1  0.50332732  0.83550988  0.33656076  1
  In  In59  1  0.33516447  0.49340410  0.51937240  1
  In  In60  1  0.51070465  0.67160348  0.16356833  1
  In  In61  1  0.85647065  0.18119161  0.66432392  1
  In  In62  1  0.33550731  0.01140610  0.35110354  1
  In  In63  1  0.15369148  -0.01871624  0.82510020  1
  In  In64  1  -0.00629377  0.81992975  0.82433915  1
  In  In65  1  0.83491738  0.33276947  0.17683438  1
  In  In66  1  0.66506410  0.15067624  0.83753738  1
  In  In67  1  0.84524580  0.33126988  0.50346824  1
  In  In68  1  0.66310447  0.82419407  0.17517991  1
  In  In69  1  0.66323401  0.51327576  0.85963005  1
  In  In70  1  0.34589910  0.32458630  0.00054269  1
  In  In71  1  0.32656087  0.49516368  0.14331160  1
  Te  Te72  1  0.07828890  0.08208413  0.09062470  1
  Te  Te73  1  0.07702390  0.08080011  0.41065713  1
  Te  Te74  1  0.09195958  0.08157161  0.73397736  1
  Te  Te75  1  0.05575397  0.40277337  0.11175077  1
  Te  Te76  1  0.09401870  0.40796768  0.42184098  1
  Te  Te77  1  0.10706837  0.43629906  0.73647758  1
  Te  Te78  1  0.05128831  0.76131765  0.12430096  1
  Te  Te79  1  0.08643858  0.75832977  0.39780304  1
  Te  Te80  1  0.12608563  0.72177493  0.78226282  1
  Te  Te81  1  0.40795925  0.08094872  0.07770716  1
  Te  Te82  1  0.43986213  0.11050594  0.39213347  1
  Te  Te83  1  0.40996553  0.07523030  0.75028732  1
  Te  Te84  1  0.43552464  0.39404775  0.10434288  1
  Te  Te85  1  0.41645493  0.41332049  0.41476038  1
  Te  Te86  1  0.40288539  0.43342876  0.75623143  1
  Te  Te87  1  0.41052059  0.73806932  0.06823595  1
  Te  Te88  1  0.42915227  0.74250075  0.43360267  1
  Te  Te89  1  0.39196211  0.76027339  0.74259922  1
  Te  Te90  1  0.71846673  0.05432516  0.07834012  1
  Te  Te91  1  0.74635014  0.07917939  0.41786593  1
  Te  Te92  1  0.75979704  0.07146672  0.74599596  1
  Te  Te93  1  0.75567072  0.41282887  0.07348194  1
  Te  Te94  1  0.77571518  0.41132326  0.39096176  1
  Te  Te95  1  0.75790408  0.42409899  0.76024454  1
  Te  Te96  1  0.76168067  0.71686691  0.12064721  1
  Te  Te97  1  0.76239262  0.75897399  0.39352925  1
  Te  Te98  1  0.75997000  0.73447525  0.75956509  1
  Te  Te99  1  0.09000783  0.26101946  0.25260451  1
  Te  Te100  1  0.01194319  0.26706288  0.59401706  1
  Te  Te101  1  0.07790382  0.27067977  0.92467107  1
  Te  Te102  1  0.07377342  0.58829900  0.22337139  1
  Te  Te103  1  0.07768209  0.57141506  0.58470075  1
  Te  Te104  1  0.08897589  0.59989761  0.93876076  1
  Te  Te105  1  0.07566360  0.88912269  0.20710214  1
  Te  Te106  1  0.08594355  0.92399876  0.57572913  1
  Te  Te107  1  0.08271956  0.89138656  0.92925875  1
  Te  Te108  1  0.43366724  0.25189958  0.24779809  1
  Te  Te109  1  0.41772115  0.27097127  0.58161365  1
  Te  Te110  1  0.43812084  0.22679773  0.92722951  1
  Te  Te111  1  0.41287370  0.58036597  0.24140659  1
  Te  Te112  1  0.41543809  0.59425673  0.59140275  1
  Te  Te113  1  0.41878621  0.57581493  0.91316481  1
  Te  Te114  1  0.40317108  0.89919263  0.24091160  1
  Te  Te115  1  0.42380235  0.94020305  0.57183750  1
  Te  Te116  1  0.40073044  0.89413703  0.89543692  1
  Te  Te117  1  0.73562187  0.23943065  0.24313669  1
  Te  Te118  1  0.74778142  0.23241879  0.56840376  1
  Te  Te119  1  0.74597424  0.25399997  0.91993299  1
  Te  Te120  1  0.74245552  0.59664359  0.22180423  1
  Te  Te121  1  0.74999492  0.58217111  0.58803099  1
  Te  Te122  1  0.77094282  0.59082555  0.93287521  1
  Te  Te123  1  0.75411052  0.91562452  0.24777521  1
  Te  Te124  1  0.75481818  0.91924187  0.58371595  1
  Te  Te125  1  0.74428136  0.92910496  0.94616046  1
  Te  Te126  1  0.24204753  0.26112897  0.09360308  1
  Te  Te127  1  0.23415188  0.26135608  0.43764835  1
  Te  Te128  1  0.21841579  0.23174693  0.72691789  1
  Te  Te129  1  0.23579105  0.59881800  0.08087494  1
  Te  Te130  1  0.25832727  0.58392001  0.41050306  1
  Te  Te131  1  0.21649052  0.61183138  0.71388953  1
  Te  Te132  1  0.21694332  0.92154349  0.08307127  1
  Te  Te133  1  0.23850869  0.89940947  0.39066979  1
  Te  Te134  1  0.25657164  0.91483342  0.74205681  1
  Te  Te135  1  0.55536667  0.23130355  0.13413317  1
  Te  Te136  1  0.56141836  0.21561289  0.43122249  1
  Te  Te137  1  0.59252818  0.26089242  0.74354996  1
  Te  Te138  1  0.60639611  0.56209833  0.10881243  1
  Te  Te139  1  0.58852387  0.59270077  0.42648872  1
  Te  Te140  1  0.59386055  0.58630518  0.74543740  1
  Te  Te141  1  0.58972309  0.93521406  0.09655512  1
  Te  Te142  1  0.57266375  0.92902784  0.43307435  1
  Te  Te143  1  0.58554891  0.91850839  0.76091904  1
  Te  Te144  1  0.92013218  0.25898580  0.06998000  1
  Te  Te145  1  0.93694061  0.22797612  0.43073445  1
  Te  Te146  1  0.95475519  0.28099906  0.73722413  1
  Te  Te147  1  0.95841043  0.62668254  0.10403445  1
  Te  Te148  1  0.93524442  0.56436831  0.42177304  1
  Te  Te149  1  0.91970157  0.59177735  0.75762773  1
  Te  Te150  1  0.91229315  0.91884587  0.10235039  1
  Te  Te151  1  0.90502799  0.90243782  0.38467043  1
  Te  Te152  1  0.94583628  0.93062652  0.73200885  1
  Te  Te153  1  0.23973056  0.06084881  0.24150682  1
  Te  Te154  1  0.26251773  0.08334669  0.58515512  1
  Te  Te155  1  0.25232176  0.08651135  0.90804997  1
  Te  Te156  1  0.24450252  0.41446131  0.24367430  1
  Te  Te157  1  0.22428082  0.42525471  0.59241117  1
  Te  Te158  1  0.25642486  0.42546657  0.92784000  1
  Te  Te159  1  0.22131140  0.72856827  0.24200752  1
  Te  Te160  1  0.25573475  0.74418804  0.57776210  1
  Te  Te161  1  0.21327450  0.77393651  0.90500998  1
  Te  Te162  1  0.59766340  0.11200921  0.23775343  1
  Te  Te163  1  0.58147815  0.10427227  0.55747831  1
  Te  Te164  1  0.58874494  0.08556210  0.94652695  1
  Te  Te165  1  0.60499593  0.40679589  0.25725306  1
  Te  Te166  1  0.58027942  0.40494586  0.55628215  1
  Te  Te167  1  0.58487870  0.40344241  0.93320897  1
  Te  Te168  1  0.59459445  0.72938077  0.27707615  1
  Te  Te169  1  0.59326541  0.74414623  0.59468916  1
  Te  Te170  1  0.57584239  0.75470752  0.92224083  1
  Te  Te171  1  0.90518258  0.06989012  0.24399575  1
  Te  Te172  1  0.93751362  0.08560451  0.58423357  1
  Te  Te173  1  0.90502950  0.09727080  0.91333582  1
  Te  Te174  1  0.94581005  0.43372774  0.21869928  1
  Te  Te175  1  0.95319082  0.41250065  0.57357846  1
  Te  Te176  1  0.92627283  0.43478915  0.93098715  1
  Te  Te177  1  0.92191390  0.74484824  0.20697636  1
  Te  Te178  1  0.91337398  0.74406303  0.57734579  1
  Te  Te179  1  0.92477130  0.73635114  0.92430014  1
