# generated using pymatgen
data_In2Te3
_symmetry_space_group_name_H-M   'P 1'
_cell_length_a   18.79518443
_cell_length_b   18.80492723
_cell_length_c   18.79326948
_cell_angle_alpha   90.04497137
_cell_angle_beta   89.99010216
_cell_angle_gamma   90.08941062
_symmetry_Int_Tables_number   1
_chemical_formula_structural   In2Te3
_chemical_formula_sum   'In72 Te108'
_cell_volume   6642.32193784
_cell_formula_units_Z   36
loop_
 _symmetry_equiv_pos_site_id
 _symmetry_equiv_pos_as_xyz
  1  'x, y, z'
loop_
 _atom_site_type_symbol
 _atom_site_label
 _atom_site_symmetry_multiplicity
 _atom_site_fract_x
 _atom_site_fract_y
 _atom_site_fract_z
 _atom_site_occupancy
  In  In0  1  0.65635837  0.82545368  0.51979164  1
  In  In1  1  0.86004514  0.02147157  0.50238093  1
  In  In2  1  0.02603708  0.87745613  0.21618471  1
  In  In3  1  0.66852508  0.15120044  0.84274929  1
  In  In4  1  0.13092607  0.28640465  0.18700686  1
  In  In5  1  0.86827500  0.86470884  0.34048291  1
  In  In6  1  0.01176247  0.63391321  -0.00378579  1
  In  In7  1  0.67779870  0.84589889  0.16385146  1
  In  In8  1  0.82662471  0.84424493  -0.00599913  1
  In  In9  1  0.84935737  0.16084724  0.67327345  1
  In  In10  1  0.15030298  0.48507059  0.35195372  1
  In  In11  1  0.01298366  0.49005071  0.82563544  1
  In  In12  1  0.85362804  0.03447155  0.17154723  1
  In  In13  1  0.84876238  0.51133631  0.32145103  1
  In  In14  1  0.48513443  0.50807550  0.35839891  1
  In  In15  1  0.48443447  0.33813948  0.84473180  1
  In  In16  1  0.49098231  -0.00579847  0.82009273  1
  In  In17  1  0.15301591  0.31689371  0.84116946  1
  In  In18  1  0.34973399  0.00061665  0.00837633  1
  In  In19  1  0.48168448  0.14847967  0.67322359  1
  In  In20  1  0.64817210  0.84006788  0.83088808  1
  In  In21  1  0.87664153  0.28224208  0.15163157  1
  In  In22  1  0.83210722  0.67114862  0.50317949  1
  In  In23  1  0.00749025  0.67029548  0.65029980  1
  In  In24  1  0.00497766  0.48072954  0.16681108  1
  In  In25  1  0.49655268  0.53778697  0.66225022  1
  In  In26  1  0.18115113  0.67324604  0.16426659  1
  In  In27  1  0.49943583  0.30852362  0.17602429  1
  In  In28  1  0.16094687  -0.00150753  0.82807231  1
  In  In29  1  0.67300857  0.16601573  0.15545060  1
  In  In30  1  0.64402316  0.67465676  0.34581095  1
  In  In31  1  0.81637548  0.47767802  -0.00287548  1
  In  In32  1  0.01848945  0.67674479  0.37122159  1
  In  In33  1  0.83320912  0.49397024  0.63103228  1
  In  In34  1  0.67394775  0.14643936  0.48874147  1
  In  In35  1  0.14122335  0.49610181  -0.00731360  1
  In  In36  1  0.65731781  0.49430291  0.13815505  1
  In  In37  1  0.18028030  0.85278583  0.64408796  1
  In  In38  1  0.50611336  0.83469060  -0.00130403  1
  In  In39  1  0.49050159  0.15788329  0.33043365  1
  In  In40  1  0.68365147  0.32911218  0.31207631  1
  In  In41  1  0.83676110  0.30468611  0.83830163  1
  In  In42  1  0.17744968  0.81554956  -0.01141830  1
  In  In43  1  0.32501651  0.85795716  0.16539865  1
  In  In44  1  0.17106265  0.67453433  0.51352719  1
  In  In45  1  0.30767408  0.32035145  0.65509494  1
  In  In46  1  0.15710017  0.31530827  0.48302342  1
  In  In47  1  0.34265067  0.67389838  -0.02354832  1
  In  In48  1  0.68438905  0.33699304  0.67750477  1
  In  In49  1  0.49743400  0.35901210  0.49547755  1
  In  In50  1  0.82120854  0.69250601  0.16472998  1
  In  In51  1  0.17137754  0.15120360  0.67412277  1
  In  In52  1  0.63544699  0.49810102  0.82325975  1
  In  In53  1  0.49579026  0.50396449  -0.01449932  1
  In  In54  1  0.67348362  0.52497630  0.47689535  1
  In  In55  1  0.49625830  0.00592740  0.17034467  1
  In  In56  1  0.87588226  0.31550836  0.48302006  1
  In  In57  1  0.49387592  -0.03029279  0.51599850  1
  In  In58  1  0.33213580  0.49530934  0.18633052  1
  In  In59  1  0.31480174  0.51250771  0.79440959  1
  In  In60  1  0.85315556  0.85053209  0.66675266  1
  In  In61  1  0.33399116  0.31236432  -0.01409192  1
  In  In62  1  0.00027766  0.83822842  0.81459597  1
  In  In63  1  0.50139179  0.83919670  0.34837031  1
  In  In64  1  0.85015350  -0.00477088  0.82837357  1
  In  In65  1  0.34084372  0.50041892  0.51180727  1
  In  In66  1  0.29577221  0.15760012  0.49522055  1
  In  In67  1  0.81615530  0.65783437  0.83790731  1
  In  In68  1  0.27038015  0.00910982  0.35526704  1
  In  In69  1  0.16082669  0.15968867  0.01164298  1
  In  In70  1  0.34676030  0.69313221  0.33799103  1
  In  In71  1  -0.00868188  0.02622859  0.01966028  1
  Te  Te72  1  0.09307019  0.07745163  0.11925190  1
  Te  Te73  1  0.08487812  0.09212223  0.36882384  1
  Te  Te74  1  0.06673652  0.09098111  0.76188134  1
  Te  Te75  1  0.07928413  0.38478880  0.07600511  1
  Te  Te76  1  0.05142905  0.40016214  0.41968596  1
  Te  Te77  1  0.09756504  0.40733156  0.73853330  1
  Te  Te78  1  0.07452303  0.74612241  0.08222803  1
  Te  Te79  1  0.11737538  0.77494975  0.41693559  1
  Te  Te80  1  0.09939643  0.75432293  0.73879075  1
  Te  Te81  1  0.41071844  0.10080849  0.09806891  1
  Te  Te82  1  0.41443802  0.07283600  0.43326738  1
  Te  Te83  1  0.38303686  0.06693844  0.74456114  1
  Te  Te84  1  0.41279126  0.41372206  0.08428119  1
  Te  Te85  1  0.38434210  0.40170847  0.40163389  1
  Te  Te86  1  0.42003231  0.41103999  0.72612811  1
  Te  Te87  1  0.40854768  0.75596525  0.08950656  1
  Te  Te88  1  0.40671067  0.77702651  0.44275761  1
  Te  Te89  1  0.42937975  0.76196078  0.70857525  1
  Te  Te90  1  0.76227166  0.08561177  0.06755251  1
  Te  Te91  1  0.77060161  0.08183388  0.39987062  1
  Te  Te92  1  0.74719516  0.06941369  0.74012004  1
  Te  Te93  1  0.76654723  0.39144890  0.11163578  1
  Te  Te94  1  0.76083704  0.41186295  0.42097038  1
  Te  Te95  1  0.76617089  0.43316920  0.76338932  1
  Te  Te96  1  0.72706374  0.74539174  0.05785577  1
  Te  Te97  1  0.75926470  0.75957902  0.40167444  1
  Te  Te98  1  0.75652117  0.76438540  0.74652711  1
  Te  Te99  1  0.03780372  0.22105701  0.28972373  1
  Te  Te100  1  0.08354444  0.21839129  0.57166792  1
  Te  Te101  1  0.06251197  0.23704182  0.92850958  1
  Te  Te102  1  0.07944997  0.58934994  0.24788379  1
  Te  Te103  1  0.08193251  0.57125413  0.57040839  1
  Te  Te104  1  0.11587684  0.60492306  0.88255516  1
  Te  Te105  1  0.13733180  0.95799471  0.28693835  1
  Te  Te106  1  0.09387609  0.92721584  0.54657408  1
  Te  Te107  1  0.06446706  0.91665319  0.92968175  1
  Te  Te108  1  0.39675023  0.24833945  0.26214296  1
  Te  Te109  1  0.41371561  0.24916099  0.56833939  1
  Te  Te110  1  0.42753954  0.22170847  0.91592232  1
  Te  Te111  1  0.42650157  0.59800512  0.24772715  1
  Te  Te112  1  0.37816653  0.61102302  0.60697903  1
  Te  Te113  1  0.42037989  0.58519714  0.87887680  1
  Te  Te114  1  0.40345608  0.93417421  0.27226631  1
  Te  Te115  1  0.42782748  0.89166979  0.63262894  1
  Te  Te116  1  0.40426556  0.90072269  0.90699063  1
  Te  Te117  1  0.77678926  0.22552083  0.25623716  1
  Te  Te118  1  0.75492370  0.24919593  0.57498874  1
  Te  Te119  1  0.74232043  0.24437595  0.93239629  1
  Te  Te120  1  0.73552611  0.58597176  0.25167616  1
  Te  Te121  1  0.73183496  0.60419914  0.59588357  1
  Te  Te122  1  0.72550547  0.57726787  0.92867635  1
  Te  Te123  1  0.76416051  0.93311604  0.25275581  1
  Te  Te124  1  0.75919110  0.92481819  0.57362767  1
  Te  Te125  1  0.73694655  0.93557310  0.91420049  1
  Te  Te126  1  0.25324824  0.24814559  0.09674431  1
  Te  Te127  1  0.23846322  0.23740777  0.38572363  1
  Te  Te128  1  0.26033147  0.23353289  0.76921401  1
  Te  Te129  1  0.25471162  0.57700185  0.07065408  1
  Te  Te130  1  0.25721917  0.58232278  0.40274554  1
  Te  Te131  1  0.20398521  0.60015353  0.75662516  1
  Te  Te132  1  0.22798573  0.93003427  0.07485957  1
  Te  Te133  1  0.23214386  0.92594161  0.48127549  1
  Te  Te134  1  0.25933254  0.92025961  0.75133626  1
  Te  Te135  1  0.57950371  0.24506434  0.07207084  1
  Te  Te136  1  0.58540676  0.25950487  0.41590937  1
  Te  Te137  1  0.57941148  0.25054028  0.74487732  1
  Te  Te138  1  0.56521104  0.59246066  0.08149413  1
  Te  Te139  1  0.55059937  0.61189746  0.44990303  1
  Te  Te140  1  0.58756061  0.61569258  0.74874482  1
  Te  Te141  1  0.59228314  0.93566814  0.07440092  1
  Te  Te142  1  0.60492678  0.92709193  0.41725310  1
  Te  Te143  1  0.57445705  0.91331892  0.72202332  1
  Te  Te144  1  0.95120173  0.19704065  0.05361925  1
  Te  Te145  1  0.93364922  0.20224089  0.40817118  1
  Te  Te146  1  0.93597494  0.26206582  0.73883247  1
  Te  Te147  1  0.90229635  0.57546696  0.09147679  1
  Te  Te148  1  0.92762897  0.57166444  0.43679333  1
  Te  Te149  1  0.91649216  0.58646631  0.74432580  1
  Te  Te150  1  0.91792317  0.90383492  0.10054137  1
  Te  Te151  1  0.96029772  0.92689716  0.43922180  1
  Te  Te152  1  0.95491973  0.95072844  0.72127095  1
  Te  Te153  1  0.22336931  0.07686419  0.23035716  1
  Te  Te154  1  0.24246697  0.05032904  0.58559116  1
  Te  Te155  1  0.25243590  0.08147365  0.91986441  1
  Te  Te156  1  0.21591806  0.41098993  0.23522286  1
  Te  Te157  1  0.22860980  0.42311036  0.57891261  1
  Te  Te158  1  0.25704135  0.42124306  0.91067841  1
  Te  Te159  1  0.24018809  0.77372613  0.26206078  1
  Te  Te160  1  0.27552618  0.74437639  0.59641967  1
  Te  Te161  1  0.26417791  0.75847370  0.88431206  1
  Te  Te162  1  0.59807881  0.07873054  0.25893642  1
  Te  Te163  1  0.58502381  0.07341818  0.58861690  1
  Te  Te164  1  0.55942448  0.08438165  0.91734387  1
  Te  Te165  1  0.57624235  0.42835751  0.26227308  1
  Te  Te166  1  0.59710439  0.43048927  0.58819165  1
  Te  Te167  1  0.59445681  0.39862990  0.93189098  1
  Te  Te168  1  0.57498212  0.76006821  0.23966706  1
  Te  Te169  1  0.55092654  0.77109909  0.61083169  1
  Te  Te170  1  0.56863573  0.73960535  0.90424399  1
  Te  Te171  1  0.95914751  0.07964736  0.27126107  1
  Te  Te172  1  0.95432400  0.11645228  0.57265262  1
  Te  Te173  1  0.90202694  0.09971862  0.92373988  1
  Te  Te174  1  0.91893057  0.39396170  0.25667659  1
  Te  Te175  1  0.93153113  0.38961189  0.59899295  1
  Te  Te176  1  0.92659197  0.40762400  0.92192301  1
  Te  Te177  1  0.93003278  0.74296749  0.26157236  1
  Te  Te178  1  0.93158537  0.76981837  0.56322264  1
  Te  Te179  1  0.91791861  0.74611702  0.91473872  1
