# generated using pymatgen
data_In2Te3
_symmetry_space_group_name_H-M   'P 1'
_cell_length_a   18.96879903
_cell_length_b   18.94212307
_cell_length_c   18.95355354
_cell_angle_alpha   89.97756910
_cell_angle_beta   90.29912975
_cell_angle_gamma   89.97480260
_symmetry_Int_Tables_number   1
_chemical_formula_structural   In2Te3
_chemical_formula_sum   'In72 Te108'
_cell_volume   6810.09454327
_cell_formula_units_Z   36
loop_
 _symmetry_equiv_pos_site_id
 _symmetry_equiv_pos_as_xyz
  1  'x, y, z'
loop_
 _atom_site_type_symbol
 _atom_site_label
 _atom_site_symmetry_multiplicity
 _atom_site_fract_x
 _atom_site_fract_y
 _atom_site_fract_z
 _atom_site_occupancy
  In  In0  1  0.48014394  0.68106831  0.83783751  1
  In  In1  1  0.69281892  0.64179956  0.61873823  1
  In  In2  1  0.83496905  0.66586763  0.82575697  1
  In  In3  1  0.81056009  0.32447967  0.83805987  1
  In  In4  1  -0.02134675  0.05207297  0.31505630  1
  In  In5  1  0.31917027  -0.03713345  0.00325932  1
  In  In6  1  0.83149258  0.84582899  0.01645471  1
  In  In7  1  0.17562279  0.00747528  0.17670823  1
  In  In8  1  0.35127236  0.68126837  0.31165256  1
  In  In9  1  0.00054266  0.83376962  0.50814035  1
  In  In10  1  0.31833483  0.45849311  0.15173170  1
  In  In11  1  0.02764057  0.50994975  0.17150167  1
  In  In12  1  -0.01510239  0.31329029  -0.00008290  1
  In  In13  1  0.68571546  0.17697766  0.17298160  1
  In  In14  1  0.28416814  0.13445609  0.52126918  1
  In  In15  1  0.85725172  0.34181652  0.18597381  1
  In  In16  1  0.01124211  0.65289273  0.63424783  1
  In  In17  1  0.84148293  0.68122417  0.18468355  1
  In  In18  1  0.15839513  0.53491914  0.35304121  1
  In  In19  1  0.68311953  0.84459414  0.17318691  1
  In  In20  1  0.46811697  -0.03268651  0.19788256  1
  In  In21  1  0.50615370  0.14572310  0.34773717  1
  In  In22  1  0.16884979  0.17701751  0.31579127  1
  In  In23  1  0.31497994  0.48867637  0.49531622  1
  In  In24  1  0.66477838  0.51656335  0.81548505  1
  In  In25  1  0.84196777  0.00055578  0.50312817  1
  In  In26  1  0.69592354  0.18390846  0.49357980  1
  In  In27  1  0.31224584  0.67579949  0.00678791  1
  In  In28  1  0.16005758  0.33680103  0.82656706  1
  In  In29  1  0.66586823  0.02902694  0.01820090  1
  In  In30  1  0.51446856  0.65304625  0.17563970  1
  In  In31  1  0.14870047  0.83985146  0.66884976  1
  In  In32  1  -0.00483242  0.16081311  0.85427820  1
  In  In33  1  0.00498710  0.81915603  0.18637694  1
  In  In34  1  0.50314586  0.35637274  0.48088086  1
  In  In35  1  0.66163857  0.82591537  0.84454679  1
  In  In36  1  0.00765400  0.32088478  0.30680054  1
  In  In37  1  0.48518647  0.14387415  0.00464733  1
  In  In38  1  0.82836316  0.85715870  0.67579434  1
  In  In39  1  0.00486098  -0.01909884  0.67066240  1
  In  In40  1  0.48817274  0.80584450  0.64851396  1
  In  In41  1  0.00689830  0.69066622  0.01058133  1
  In  In42  1  0.49597207  0.82413346  -0.00105436  1
  In  In43  1  0.48119865  0.15323953  0.68440347  1
  In  In44  1  0.46871244  0.31022227  0.85098670  1
  In  In45  1  0.67810427  0.68781008  0.33562875  1
  In  In46  1  0.83964650  0.47909310  0.00436453  1
  In  In47  1  0.16621261  0.82508949  0.34157662  1
  In  In48  1  0.32830579  0.32191984  0.29181416  1
  In  In49  1  0.64916592  -0.00627725  0.67351648  1
  In  In50  1  0.51689290  -0.00560359  0.49033598  1
  In  In51  1  0.82377730  0.15084197  0.66321188  1
  In  In52  1  0.50239589  0.47236837  0.66582948  1
  In  In53  1  0.83485765  0.51337324  0.62895843  1
  In  In54  1  0.31846436  0.85298370  0.50157336  1
  In  In55  1  0.16069926  0.49411490  -0.01805834  1
  In  In56  1  0.01775793  0.00374345  0.01780468  1
  In  In57  1  0.70022107  0.48422364  0.36971780  1
  In  In58  1  0.67529223  0.17701603  0.84344383  1
  In  In59  1  0.30472104  0.15064131  0.83364314  1
  In  In60  1  0.49918086  0.53434048  0.00302295  1
  In  In61  1  0.14802659  -0.01684269  0.83884526  1
  In  In62  1  0.68762799  -0.00846390  0.32661025  1
  In  In63  1  0.66776775  0.34455462  -0.01097979  1
  In  In64  1  0.15918537  0.68327755  0.83346417  1
  In  In65  1  0.30576270  0.66033958  0.66699447  1
  In  In66  1  0.52126772  0.35248138  0.17648282  1
  In  In67  1  0.32661318  0.32526451  0.65099299  1
  In  In68  1  0.16875462  0.32861755  0.49712249  1
  In  In69  1  0.66290489  0.32244979  0.63756998  1
  In  In70  1  0.49213074  0.66520461  0.48604690  1
  In  In71  1  0.00138892  0.35322024  0.64607258  1
  Te  Te72  1  0.08593111  0.10444674  0.10531873  1
  Te  Te73  1  0.06927192  0.12155458  0.40759373  1
  Te  Te74  1  0.07932428  0.08729072  0.75252739  1
  Te  Te75  1  0.07927427  0.40563072  0.07672104  1
  Te  Te76  1  0.08317584  0.41273468  0.40702278  1
  Te  Te77  1  0.05840782  0.42190017  0.76192347  1
  Te  Te78  1  0.09960989  0.78483753  0.07633072  1
  Te  Te79  1  0.07962308  0.73695323  0.42645333  1
  Te  Te80  1  0.05576603  0.75338884  0.74593956  1
  Te  Te81  1  0.40113628  0.05976905  0.09713534  1
  Te  Te82  1  0.40496845  0.08200019  0.43774282  1
  Te  Te83  1  0.40375400  0.06414646  0.76752768  1
  Te  Te84  1  0.43783916  0.41133508  0.06417568  1
  Te  Te85  1  0.40302771  0.42416970  0.39258019  1
  Te  Te86  1  0.39912369  0.40841371  0.75691702  1
  Te  Te87  1  0.41668985  0.74225450  0.09600102  1
  Te  Te88  1  0.42190346  0.77956822  0.41191179  1
  Te  Te89  1  0.38530812  0.76064271  0.75001698  1
  Te  Te90  1  0.76782975  0.06307994  0.12281317  1
  Te  Te91  1  0.77361693  0.09336120  0.40253242  1
  Te  Te92  1  0.74689158  0.06836110  0.76321758  1
  Te  Te93  1  0.74589578  0.41126348  0.09973174  1
  Te  Te94  1  0.79096042  0.36328662  0.39506900  1
  Te  Te95  1  0.74942396  0.42235885  0.73210068  1
  Te  Te96  1  0.74535476  0.74045217  0.08228080  1
  Te  Te97  1  0.76838131  0.72115733  0.44712684  1
  Te  Te98  1  0.73187270  0.73979391  0.73895992  1
  Te  Te99  1  0.07996453  0.23367834  0.20919850  1
  Te  Te100  1  0.07745824  0.24794134  0.57791762  1
  Te  Te101  1  0.09827129  0.24143548  0.93064770  1
  Te  Te102  1  0.09800779  0.61576019  0.24456236  1
  Te  Te103  1  0.11126567  0.55657570  0.57658809  1
  Te  Te104  1  0.06545025  0.59139040  0.91335932  1
  Te  Te105  1  0.07489731  0.93400893  0.27032503  1
  Te  Te106  1  0.10243785  0.93995836  0.55474831  1
  Te  Te107  1  0.08511748  0.89529152  0.94049471  1
  Te  Te108  1  0.44657143  0.23745268  0.24099546  1
  Te  Te109  1  0.44053617  0.25690395  0.58049574  1
  Te  Te110  1  0.37816972  0.23317795  0.94253194  1
  Te  Te111  1  0.40391470  0.56541657  0.23030524  1
  Te  Te112  1  0.41627814  0.57394406  0.58668971  1
  Te  Te113  1  0.39193692  0.58222594  0.90997289  1
  Te  Te114  1  0.38564637  0.90793525  0.30202139  1
  Te  Te115  1  0.42114387  0.92735075  0.58724895  1
  Te  Te116  1  0.42372717  0.91591436  0.91163612  1
  Te  Te117  1  0.75307899  0.26826205  0.26984983  1
  Te  Te118  1  0.79036850  0.27204569  0.57524785  1
  Te  Te119  1  0.76653845  0.23281177  0.95049082  1
  Te  Te120  1  0.75832330  0.58102296  0.26073028  1
  Te  Te121  1  0.77180881  0.57984930  0.50344098  1
  Te  Te122  1  0.75451372  0.57740486  0.92034993  1
  Te  Te123  1  0.77993226  0.89087171  0.27244273  1
  Te  Te124  1  0.73493209  0.91909168  0.57292295  1
  Te  Te125  1  0.73721620  0.92665231  0.92807384  1
  Te  Te126  1  0.27331349  0.31489351  0.15110599  1
  Te  Te127  1  0.27960821  0.25464870  0.42566402  1
  Te  Te128  1  0.23452363  0.23799464  0.73033391  1
  Te  Te129  1  0.23645185  0.57367602  0.08704481  1
  Te  Te130  1  0.26909986  0.61267003  0.42221066  1
  Te  Te131  1  0.23688749  0.57856960  0.76463162  1
  Te  Te132  1  0.25135238  0.89502961  0.11532161  1
  Te  Te133  1  0.25928677  0.93531838  0.39021749  1
  Te  Te134  1  0.24496052  0.93336483  0.73475518  1
  Te  Te135  1  0.58611710  0.24057798  0.06832912  1
  Te  Te136  1  0.59161151  0.25524265  0.40901647  1
  Te  Te137  1  0.58261338  0.26164174  0.75270490  1
  Te  Te138  1  0.60458694  0.56931100  0.09608323  1
  Te  Te139  1  0.57759523  0.58761726  0.39205401  1
  Te  Te140  1  0.56344968  0.59716592  0.73646882  1
  Te  Te141  1  0.57721047  0.92500922  0.08715851  1
  Te  Te142  1  0.60402247  0.90768224  0.41345095  1
  Te  Te143  1  0.56525596  0.89554927  0.75042665  1
  Te  Te144  1  0.90655746  0.22981091  0.09725347  1
  Te  Te145  1  0.90410204  0.26259464  0.39277290  1
  Te  Te146  1  0.90665184  0.24338097  0.75357140  1
  Te  Te147  1  0.91771716  0.58490428  0.08159483  1
  Te  Te148  1  1.00075145  0.60031716  0.48791272  1
  Te  Te149  1  0.91796885  0.57806375  0.73787939  1
  Te  Te150  1  0.92143789  0.91999472  0.10947233  1
  Te  Te151  1  0.93310560  0.92891092  0.41015760  1
  Te  Te152  1  0.91147108  0.92946461  0.77078081  1
  Te  Te153  1  0.26996268  0.09554624  0.24918104  1
  Te  Te154  1  0.22989014  0.03064820  0.60724953  1
  Te  Te155  1  0.23002863  0.06744795  0.93625314  1
  Te  Te156  1  0.21428196  0.42253618  0.26460618  1
  Te  Te157  1  0.22643984  0.43141110  0.60380058  1
  Te  Te158  1  0.25413292  0.39938278  0.92114110  1
  Te  Te159  1  0.24576662  0.75504682  0.23870162  1
  Te  Te160  1  0.22954016  0.75337918  0.57446893  1
  Te  Te161  1  0.24690201  0.76916925  0.91492460  1
  Te  Te162  1  0.58483640  0.07117971  0.24079310  1
  Te  Te163  1  0.59538275  0.10395394  0.58321018  1
  Te  Te164  1  0.57532227  0.07941390  0.90221977  1
  Te  Te165  1  0.59972401  0.42540102  0.27604642  1
  Te  Te166  1  0.60579595  0.43897366  0.55881510  1
  Te  Te167  1  0.57626234  0.41998369  0.89331928  1
  Te  Te168  1  0.57849065  0.76824035  0.25195118  1
  Te  Te169  1  0.59625586  0.74650015  0.56119535  1
  Te  Te170  1  0.59088046  0.72521439  0.93253540  1
  Te  Te171  1  0.89947255  0.11807261  0.20834205  1
  Te  Te172  1  0.93444108  0.08832452  0.58341093  1
  Te  Te173  1  0.91488817  0.07080137  0.93500491  1
  Te  Te174  1  0.92737015  0.45137504  0.26545577  1
  Te  Te175  1  0.93722515  0.44437537  0.54687926  1
  Te  Te176  1  0.92146166  0.41030985  0.89907534  1
  Te  Te177  1  0.93710182  0.73127270  0.28336894  1
  Te  Te178  1  0.90042244  0.75676623  0.59103407  1
  Te  Te179  1  0.90945306  0.76231928  0.91616119  1
