# generated using pymatgen
data_In2Te3
_symmetry_space_group_name_H-M   'P 1'
_cell_length_a   18.75080229
_cell_length_b   18.76457281
_cell_length_c   18.76759102
_cell_angle_alpha   89.98198684
_cell_angle_beta   90.00209396
_cell_angle_gamma   89.91397583
_symmetry_Int_Tables_number   1
_chemical_formula_structural   In2Te3
_chemical_formula_sum   'In72 Te108'
_cell_volume   6603.38404425
_cell_formula_units_Z   36
loop_
 _symmetry_equiv_pos_site_id
 _symmetry_equiv_pos_as_xyz
  1  'x, y, z'
loop_
 _atom_site_type_symbol
 _atom_site_label
 _atom_site_symmetry_multiplicity
 _atom_site_fract_x
 _atom_site_fract_y
 _atom_site_fract_z
 _atom_site_occupancy
  In  In0  1  0.85097829  0.00089863  0.14795597  1
  In  In1  1  0.01434919  0.32640565  0.33487688  1
  In  In2  1  -0.01331519  0.64730363  0.69128804  1
  In  In3  1  0.68062624  0.32523655  0.01763082  1
  In  In4  1  0.02912044  0.65966502  0.31328603  1
  In  In5  1  0.16253396  0.16871433  0.68733396  1
  In  In6  1  0.47178681  0.14814930  0.02692231  1
  In  In7  1  0.83160358  0.49965570  0.00736185  1
  In  In8  1  -0.00371977  -0.00488452  0.29929142  1
  In  In9  1  0.66201207  0.83650865  0.15278397  1
  In  In10  1  0.84175449  0.65936810  0.18890287  1
  In  In11  1  0.16993237  0.32594276  0.83005691  1
  In  In12  1  0.45881246  0.82337243  0.33031693  1
  In  In13  1  0.17990107  0.51306969  0.67282181  1
  In  In14  1  0.81902299  -0.00334133  0.83961519  1
  In  In15  1  0.66825203  0.66511475  -0.00411000  1
  In  In16  1  0.82417389  0.16788923  0.68159746  1
  In  In17  1  0.63992079  0.35729435  0.29892547  1
  In  In18  1  0.32381279  0.84405318  0.15066007  1
  In  In19  1  0.33635515  0.52060035  0.83609001  1
  In  In20  1  0.66679314  0.65578124  0.35006942  1
  In  In21  1  0.86348362  0.19244499  0.03839285  1
  In  In22  1  0.48717984  0.18565129  0.32133159  1
  In  In23  1  0.31348739  0.00042282  0.32150092  1
  In  In24  1  0.64996679  0.34547082  0.68398882  1
  In  In25  1  0.49897753  0.51609665  0.67132405  1
  In  In26  1  0.83118815  0.80342243  0.33403974  1
  In  In27  1  0.81774236  0.84035176  0.66224353  1
  In  In28  1  0.34473970  0.33648470  0.01102671  1
  In  In29  1  0.16386088  -0.00588388  0.16505439  1
  In  In30  1  0.17355464  0.82095743  0.66685542  1
  In  In31  1  0.32016169  -0.01146510  0.68504436  1
  In  In32  1  0.82646063  0.65029553  0.51605208  1
  In  In33  1  0.83098463  0.50629969  0.33258921  1
  In  In34  1  0.32526788  0.35497289  0.32288991  1
  In  In35  1  0.01017802  0.82130802  0.47074465  1
  In  In36  1  0.47397796  -0.01217304  0.83964798  1
  In  In37  1  0.66490534  0.17094373  0.15908358  1
  In  In38  1  0.48509269  0.82794802  0.00006580  1
  In  In39  1  0.00791468  -0.01438978  -0.00616756  1
  In  In40  1  0.85533584  0.34301189  0.50473277  1
  In  In41  1  0.65763532  0.52185377  0.82586738  1
  In  In42  1  0.65280902  0.15811387  0.49311564  1
  In  In43  1  -0.00177608  0.16804523  0.48637941  1
  In  In44  1  0.65427044  0.00514057  0.33465545  1
  In  In45  1  0.02075922  0.16562726  0.82984589  1
  In  In46  1  0.01676195  0.48774900  0.16922873  1
  In  In47  1  0.50481953  -0.00439304  0.50274779  1
  In  In48  1  0.47514629  0.50184727  0.00125519  1
  In  In49  1  0.36186183  0.20041363  0.51642206  1
  In  In50  1  0.00738295  0.37326404  0.66183805  1
  In  In51  1  0.18547761  -0.02032490  0.50373830  1
  In  In52  1  0.83851415  0.35219074  0.85169534  1
  In  In53  1  0.00669406  0.83285422  0.84838596  1
  In  In54  1  0.34001059  0.50176961  0.49985267  1
  In  In55  1  0.67910222  0.83153245  0.81866862  1
  In  In56  1  0.16773626  0.69152302  0.11791079  1
  In  In57  1  0.49191491  0.32485923  0.85362663  1
  In  In58  1  0.79552337  -0.01441123  0.50716405  1
  In  In59  1  0.32687775  0.81323255  0.49341665  1
  In  In60  1  0.14648953  0.53324125  -0.00689179  1
  In  In61  1  0.66065398  0.17023174  0.81340463  1
  In  In62  1  0.49265753  0.65018080  0.16922795  1
  In  In63  1  0.33291716  0.65406613  0.33087264  1
  In  In64  1  0.66893013  -0.02483118  -0.03110003  1
  In  In65  1  0.02046298  0.03866779  0.68505988  1
  In  In66  1  0.01985206  0.47659577  0.50518140  1
  In  In67  1  0.18842908  0.16142634  0.00563051  1
  In  In68  1  0.18146302  0.34775037  0.48920701  1
  In  In69  1  0.49736087  0.79091513  0.67089530  1
  In  In70  1  0.15777406  0.16467331  0.30254793  1
  In  In71  1  0.66364344  0.51900274  0.51457173  1
  Te  Te72  1  0.07505011  0.08794144  0.08423795  1
  Te  Te73  1  0.09079351  0.06993794  0.41335944  1
  Te  Te74  1  0.12916084  0.05350987  0.79912530  1
  Te  Te75  1  0.09852830  0.41403945  0.06870314  1
  Te  Te76  1  0.11232194  0.43811465  0.38141388  1
  Te  Te77  1  0.08573762  0.44272295  0.77438849  1
  Te  Te78  1  0.06074106  0.76365536  0.04159830  1
  Te  Te79  1  0.10958561  0.72369849  0.42191203  1
  Te  Te80  1  0.09222507  0.73332763  0.76482887  1
  Te  Te81  1  0.37438436  0.06316013  0.09641233  1
  Te  Te82  1  0.40892279  0.07953975  0.41410443  1
  Te  Te83  1  0.40260323  0.08839216  0.75617725  1
  Te  Te84  1  0.41669869  0.42236504  0.11497251  1
  Te  Te85  1  0.42112665  0.40399908  0.42364663  1
  Te  Te86  1  0.41733265  0.41628150  0.75737611  1
  Te  Te87  1  0.39877812  0.72851286  0.07837415  1
  Te  Te88  1  0.43403208  0.71948300  0.43614530  1
  Te  Te89  1  0.39266901  0.74037349  0.77494623  1
  Te  Te90  1  0.74597177  0.07655886  0.06479582  1
  Te  Te91  1  0.75864335  0.09299398  0.40268670  1
  Te  Te92  1  0.72897484  0.05914297  0.73275131  1
  Te  Te93  1  0.75666258  0.41470174  0.10522041  1
  Te  Te94  1  0.74636251  0.41807344  0.42432347  1
  Te  Te95  1  0.75810126  0.43065128  0.74873431  1
  Te  Te96  1  0.76323384  0.74507182  0.08607361  1
  Te  Te97  1  0.73751511  0.75470923  0.44465066  1
  Te  Te98  1  0.77365029  0.73456408  0.75567078  1
  Te  Te99  1  0.07317675  0.25319994  0.21510840  1
  Te  Te100  1  0.07908942  0.25668249  0.58199565  1
  Te  Te101  1  0.08104383  0.25794477  0.93232970  1
  Te  Te102  1  0.12574832  0.58066943  0.22519353  1
  Te  Te103  1  0.08277277  0.59138020  0.58351431  1
  Te  Te104  1  0.06060784  0.61194784  0.89609994  1
  Te  Te105  1  0.09125011  0.89529427  0.24872462  1
  Te  Te106  1  0.07627745  0.91751646  0.59110134  1
  Te  Te107  1  0.11463077  0.89187994  0.93765327  1
  Te  Te108  1  0.39520378  0.25852334  0.23226218  1
  Te  Te109  1  0.45720885  0.26892763  0.60032108  1
  Te  Te110  1  0.39575493  0.22545864  0.91712061  1
  Te  Te111  1  0.42388016  0.55450459  0.26265237  1
  Te  Te112  1  0.40726909  0.60103114  0.59013246  1
  Te  Te113  1  0.43682214  0.60735815  0.90460332  1
  Te  Te114  1  0.41992261  0.93193828  0.23154836  1
  Te  Te115  1  0.40930255  0.90629934  0.58599544  1
  Te  Te116  1  0.38311079  0.92219862  0.93895721  1
  Te  Te117  1  0.74050787  0.26331918  0.24540480  1
  Te  Te118  1  0.74658595  0.25972989  0.58587382  1
  Te  Te119  1  0.75873039  0.23547384  0.91182024  1
  Te  Te120  1  0.72765918  0.56941352  0.23950164  1
  Te  Te121  1  0.73107185  0.60153344  0.61911190  1
  Te  Te122  1  0.76783636  0.59494331  0.90374583  1
  Te  Te123  1  0.75255347  0.91639817  0.25053042  1
  Te  Te124  1  0.69961681  0.90054237  0.58789737  1
  Te  Te125  1  0.78120128  0.87913658  0.92806502  1
  Te  Te126  1  0.24564612  0.26545228  0.09535279  1
  Te  Te127  1  0.24398897  0.23095928  0.41194000  1
  Te  Te128  1  0.26767020  0.25267541  0.74696397  1
  Te  Te129  1  0.26371964  0.59045553  0.06498850  1
  Te  Te130  1  0.24089971  0.58445910  0.42423018  1
  Te  Te131  1  0.25904354  0.61509657  0.74882969  1
  Te  Te132  1  0.22938462  0.91270358  0.05624243  1
  Te  Te133  1  0.23746651  0.88871667  0.39338423  1
  Te  Te134  1  0.26046654  0.88273679  0.77581881  1
  Te  Te135  1  0.56151253  0.25879465  0.08636354  1
  Te  Te136  1  0.58028017  0.26434094  0.41205880  1
  Te  Te137  1  0.55006971  0.23668048  0.73091654  1
  Te  Te138  1  0.58948032  0.56878658  0.08240127  1
  Te  Te139  1  0.56586159  0.57223282  0.41667939  1
  Te  Te140  1  0.58040457  0.61795136  0.74418031  1
  Te  Te141  1  0.56974510  0.93117917  0.07804674  1
  Te  Te142  1  0.57235855  0.89926144  0.40594561  1
  Te  Te143  1  0.56606440  0.90810887  0.74869122  1
  Te  Te144  1  0.95312369  0.27752583  0.11365155  1
  Te  Te145  1  0.90032589  0.24369819  0.39731831  1
  Te  Te146  1  0.92789602  0.26253832  0.74465437  1
  Te  Te147  1  0.93084407  0.58773856  0.08903791  1
  Te  Te148  1  0.92916933  0.58906744  0.41449945  1
  Te  Te149  1  0.95227593  0.54882259  0.79758458  1
  Te  Te150  1  0.92640550  0.89434859  0.07929619  1
  Te  Te151  1  0.90661316  0.92247239  0.41594539  1
  Te  Te152  1  0.92468819  0.92579221  0.74926745  1
  Te  Te153  1  0.27415846  0.10293179  0.21222531  1
  Te  Te154  1  0.25151582  0.09177361  0.58271861  1
  Te  Te155  1  0.24649029  0.08984310  0.89101788  1
  Te  Te156  1  0.21432613  0.42926663  0.26080114  1
  Te  Te157  1  0.26099537  0.40395858  0.60308587  1
  Te  Te158  1  0.25196843  0.42314888  0.92089007  1
  Te  Te159  1  0.24978077  0.74670253  0.24103744  1
  Te  Te160  1  0.26190979  0.72554342  0.59381745  1
  Te  Te161  1  0.30558556  0.77909177  0.88846460  1
  Te  Te162  1  0.56667882  0.08331228  0.23783499  1
  Te  Te163  1  0.57789468  0.08386426  0.59562949  1
  Te  Te164  1  0.57859600  0.09130783  0.91632407  1
  Te  Te165  1  0.53428251  0.42983859  0.22692289  1
  Te  Te166  1  0.56739790  0.41387223  0.57626054  1
  Te  Te167  1  0.59561954  0.41615777  0.92079626  1
  Te  Te168  1  0.58065725  0.75140910  0.25073370  1
  Te  Te169  1  0.61193790  0.77037773  0.58077047  1
  Te  Te170  1  0.57995059  0.75267212  0.90791734  1
  Te  Te171  1  0.91512685  0.10016463  0.23685942  1
  Te  Te172  1  0.90742008  0.08166054  0.57765661  1
  Te  Te173  1  0.91531261  0.08946670  0.91483152  1
  Te  Te174  1  0.91177269  0.40882138  0.24943854  1
  Te  Te175  1  0.89702853  0.45770477  0.59613282  1
  Te  Te176  1  0.93735960  0.42029097  0.93595435  1
  Te  Te177  1  0.94410851  0.76423146  0.23941229  1
  Te  Te178  1  0.92701288  0.75413436  0.58290227  1
  Te  Te179  1  0.95307641  0.72198036  0.93617400  1
