# generated using pymatgen
data_In2Te3
_symmetry_space_group_name_H-M   'P 1'
_cell_length_a   19.02332812
_cell_length_b   18.99190564
_cell_length_c   18.99947062
_cell_angle_alpha   90.05505068
_cell_angle_beta   90.31661863
_cell_angle_gamma   89.92392595
_symmetry_Int_Tables_number   1
_chemical_formula_structural   In2Te3
_chemical_formula_sum   'In72 Te108'
_cell_volume   6864.19056336
_cell_formula_units_Z   36
loop_
 _symmetry_equiv_pos_site_id
 _symmetry_equiv_pos_as_xyz
  1  'x, y, z'
loop_
 _atom_site_type_symbol
 _atom_site_label
 _atom_site_symmetry_multiplicity
 _atom_site_fract_x
 _atom_site_fract_y
 _atom_site_fract_z
 _atom_site_occupancy
  In  In0  1  0.85641008  -0.00675133  0.20243730  1
  In  In1  1  0.87270737  0.68918516  0.81977099  1
  In  In2  1  0.81363694  0.49094198  0.67639095  1
  In  In3  1  0.17177897  0.33246934  0.18914962  1
  In  In4  1  0.15797623  0.16109116  0.63504452  1
  In  In5  1  0.47095468  0.32604282  0.85645012  1
  In  In6  1  0.16677952  0.65529716  0.81248444  1
  In  In7  1  0.49746946  0.31976707  0.16970041  1
  In  In8  1  0.33863537  0.68565347  0.33921683  1
  In  In9  1  0.65434978  0.17570003  0.16203942  1
  In  In10  1  0.88061638  0.16494029  0.32969312  1
  In  In11  1  0.48604114  0.68426768  0.48432565  1
  In  In12  1  0.17159239  0.51797109  -0.00892999  1
  In  In13  1  0.82955844  0.15915278  -0.00616596  1
  In  In14  1  0.17866365  0.15452497  0.03388820  1
  In  In15  1  0.48746986  0.47118930  0.65283332  1
  In  In16  1  0.83626839  0.31223049  0.80197053  1
  In  In17  1  0.31177562  0.49872490  0.49147119  1
  In  In18  1  0.02276345  0.69783581  0.33972134  1
  In  In19  1  0.65298635  0.01078876  0.32610825  1
  In  In20  1  0.46154301  0.68697357  0.83003233  1
  In  In21  1  0.66061176  -0.00302755  -0.00238178  1
  In  In22  1  0.81394332  0.31849657  0.14232384  1
  In  In23  1  0.00471580  0.35161675  0.34332843  1
  In  In24  1  0.66486974  0.66921642  0.66551927  1
  In  In25  1  0.66175122  0.53220106  0.18876099  1
  In  In26  1  0.46897432  0.00538638  0.49345963  1
  In  In27  1  0.64839415  0.82216581  0.17890272  1
  In  In28  1  0.85162457  0.82028884  0.65288495  1
  In  In29  1  0.05433609  -0.06276973  0.06884222  1
  In  In30  1  0.61674404  -0.05707260  0.64372752  1
  In  In31  1  0.86850554  -0.01779771  0.48379409  1
  In  In32  1  0.67857122  0.36108100  0.33651331  1
  In  In33  1  0.83106291  0.48882464  0.00547423  1
  In  In34  1  0.84802892  0.67390749  0.18256604  1
  In  In35  1  0.31809734  0.67949108  0.66829223  1
  In  In36  1  0.84562724  0.15492584  0.65034158  1
  In  In37  1  0.48464364  0.35816886  0.47367449  1
  In  In38  1  0.51839557  0.82656319  0.00495891  1
  In  In39  1  0.64058471  0.30346584  0.66152138  1
  In  In40  1  0.00774998  0.48718833  0.17330458  1
  In  In41  1  0.01584585  0.33653283  0.62660797  1
  In  In42  1  0.67760975  0.16988371  0.49580916  1
  In  In43  1  0.65883260  0.16333977  0.86674705  1
  In  In44  1  0.69183778  0.65564529  0.00144245  1
  In  In45  1  0.16061683  0.84989017  0.66993147  1
  In  In46  1  0.05992424  0.67966027  0.60562694  1
  In  In47  1  0.64074242  0.51731891  0.84062942  1
  In  In48  1  -0.01156772  -0.00029367  0.66390755  1
  In  In49  1  0.17062517  0.52020354  0.32938237  1
  In  In50  1  0.32355384  0.32967284  0.66367958  1
  In  In51  1  0.19635459  -0.01044885  0.20678083  1
  In  In52  1  0.33091946  0.00757698  -0.00065044  1
  In  In53  1  0.15805103  -0.01818867  0.45439979  1
  In  In54  1  0.15848713  0.30902278  0.82743033  1
  In  In55  1  0.48619657  0.52071082  0.01470843  1
  In  In56  1  0.47715947  0.15174595  0.01169203  1
  In  In57  1  0.32063888  0.67583380  0.01651736  1
  In  In58  1  0.31685670  0.32869678  0.01367318  1
  In  In59  1  0.04698262  0.77185292  -0.00350648  1
  In  In60  1  0.85560691  0.54156855  0.32328708  1
  In  In61  1  0.33907679  0.83887768  0.19657630  1
  In  In62  1  0.00916286  0.13534594  0.84545706  1
  In  In63  1  0.34029520  0.16444392  0.50564749  1
  In  In64  1  0.80643526  -0.01827380  0.81948358  1
  In  In65  1  0.00664822  0.49697016  0.80308451  1
  In  In66  1  0.46729034  0.13017715  0.67053377  1
  In  In67  1  0.70089128  0.83933067  0.48981613  1
  In  In68  1  0.33922255  0.82692934  0.82038871  1
  In  In69  1  0.66652115  0.54703104  0.48579546  1
  In  In70  1  0.46968855  0.14971071  0.36111992  1
  In  In71  1  -0.03470411  0.32451441  0.01794086  1
  Te  Te72  1  0.09477393  0.07337888  0.12549412  1
  Te  Te73  1  0.11513670  0.09843223  0.37394904  1
  Te  Te74  1  0.09664925  0.06880847  0.74395765  1
  Te  Te75  1  0.08348472  0.40720548  0.07017589  1
  Te  Te76  1  0.06781733  0.46167634  0.42296166  1
  Te  Te77  1  0.10358909  0.41041506  0.72812535  1
  Te  Te78  1  0.10917949  0.78324104  0.13371844  1
  Te  Te79  1  0.11898035  0.80996043  0.38363540  1
  Te  Te80  1  0.07184618  0.74803472  0.74018981  1
  Te  Te81  1  0.40448581  0.07311028  0.10928247  1
  Te  Te82  1  0.39578168  0.01641335  0.36026105  1
  Te  Te83  1  0.39406626  0.02478191  0.73605457  1
  Te  Te84  1  0.40767882  0.41973402  0.09528596  1
  Te  Te85  1  0.40454874  0.44644712  0.39019437  1
  Te  Te86  1  0.39778174  0.42005556  0.76213491  1
  Te  Te87  1  0.42271464  0.75335570  0.09472974  1
  Te  Te88  1  0.38680496  0.78680561  0.44076353  1
  Te  Te89  1  0.44632784  0.78399890  0.71145627  1
  Te  Te90  1  0.75004951  0.07858218  0.09666916  1
  Te  Te91  1  0.76592672  0.07743491  0.41517100  1
  Te  Te92  1  0.74753773  0.10685754  0.75700127  1
  Te  Te93  1  0.72335972  0.42972926  0.09139770  1
  Te  Te94  1  0.76490437  0.45468894  0.41436546  1
  Te  Te95  1  0.71092718  0.40426860  0.75789161  1
  Te  Te96  1  0.75524322  0.75795899  0.09051402  1
  Te  Te97  1  0.75851163  0.73359294  0.40691679  1
  Te  Te98  1  0.75397744  0.75687364  0.75201072  1
  Te  Te99  1  0.08376987  0.25037069  0.27251884  1
  Te  Te100  1  0.11347142  0.26609739  0.54104595  1
  Te  Te101  1  0.07073320  0.24203303  0.93518087  1
  Te  Te102  1  0.08255969  0.59977810  0.23477069  1
  Te  Te103  1  0.12028395  0.56295485  0.54387521  1
  Te  Te104  1  0.06669857  0.58884887  0.90840675  1
  Te  Te105  1  0.09135107  0.88673159  0.24548757  1
  Te  Te106  1  0.07267441  0.92142189  0.56860097  1
  Te  Te107  1  0.07839762  0.89877899  0.93013550  1
  Te  Te108  1  0.41028188  0.25285231  0.27016347  1
  Te  Te109  1  0.43909311  0.25746105  0.58029375  1
  Te  Te110  1  0.37920055  0.22583461  0.91961871  1
  Te  Te111  1  0.46316551  0.64287160  0.26946661  1
  Te  Te112  1  0.41428921  0.58238827  0.58030033  1
  Te  Te113  1  0.39166998  0.58385662  0.91429010  1
  Te  Te114  1  0.45405903  0.88583239  0.27879958  1
  Te  Te115  1  0.43507913  0.93076669  0.61740452  1
  Te  Te116  1  0.41736894  0.90559379  0.92425725  1
  Te  Te117  1  0.74822748  0.24199111  0.26256413  1
  Te  Te118  1  0.76241005  0.26356309  0.58021996  1
  Te  Te119  1  0.75317474  0.26894376  0.92345861  1
  Te  Te120  1  0.73414067  0.63022152  0.27747505  1
  Te  Te121  1  0.77015276  0.60446606  0.57914819  1
  Te  Te122  1  0.77170223  0.57613569  0.89141315  1
  Te  Te123  1  0.74334469  0.90959844  0.26092286  1
  Te  Te124  1  0.76786308  0.93959877  0.59582829  1
  Te  Te125  1  0.73024796  0.90135448  0.91334975  1
  Te  Te126  1  0.26842761  0.23569155  0.12266193  1
  Te  Te127  1  0.29706785  0.23249598  0.38393806  1
  Te  Te128  1  0.25065873  0.22410000  0.74147828  1
  Te  Te129  1  0.25475326  0.57254536  0.09700628  1
  Te  Te130  1  0.23258392  0.61655333  0.43609344  1
  Te  Te131  1  0.24227125  0.56849068  0.72283490  1
  Te  Te132  1  0.25694371  0.91148398  0.08907659  1
  Te  Te133  1  0.25311228  0.87905143  0.40508064  1
  Te  Te134  1  0.25468497  0.92949517  0.75277804  1
  Te  Te135  1  0.57850485  0.25543701  0.05915922  1
  Te  Te136  1  0.58700461  0.25568598  0.40971841  1
  Te  Te137  1  0.55711590  0.23493623  0.76930812  1
  Te  Te138  1  0.57806557  0.61317112  0.09240301  1
  Te  Te139  1  0.55604971  0.58648624  0.39462652  1
  Te  Te140  1  0.55649605  0.58734746  0.73581933  1
  Te  Te141  1  0.57336779  0.92959751  0.10154023  1
  Te  Te142  1  0.58938050  0.93047073  0.43512000  1
  Te  Te143  1  0.55888077  0.87983823  0.75815690  1
  Te  Te144  1  0.91858306  0.21338517  0.10799480  1
  Te  Te145  1  0.91895372  0.26609852  0.42578429  1
  Te  Te146  1  0.95026441  0.23358439  0.73875474  1
  Te  Te147  1  0.92062975  0.57945185  0.08414397  1
  Te  Te148  1  0.95238886  0.59404165  0.42032583  1
  Te  Te149  1  0.92663707  0.59139245  0.71669175  1
  Te  Te150  1  0.91019964  0.92221060  0.08858559  1
  Te  Te151  1  0.86527436  0.84374460  0.42049353  1
  Te  Te152  1  0.92238957  0.90420116  0.75975180  1
  Te  Te153  1  0.25022266  0.09074095  0.30930234  1
  Te  Te154  1  0.24612793  0.06343744  0.55788913  1
  Te  Te155  1  0.22394259  0.07388999  0.92305966  1
  Te  Te156  1  0.25849361  0.42766111  0.25792255  1
  Te  Te157  1  0.24309997  0.38230098  0.55290452  1
  Te  Te158  1  0.23960978  0.40954675  0.91019480  1
  Te  Te159  1  0.24193059  0.73429660  0.23589655  1
  Te  Te160  1  0.24545077  0.76976346  0.58003513  1
  Te  Te161  1  0.24382825  0.74639027  0.90624725  1
  Te  Te162  1  0.55904323  0.09557481  0.24456433  1
  Te  Te163  1  0.58976271  0.08701918  0.58666049  1
  Te  Te164  1  0.55578372  0.06455703  0.91125456  1
  Te  Te165  1  0.57300947  0.42679399  0.25158836  1
  Te  Te166  1  0.60226896  0.42467776  0.56500691  1
  Te  Te167  1  0.56542488  0.42302095  0.92886113  1
  Te  Te168  1  0.55309239  0.76995080  0.28160492  1
  Te  Te169  1  0.59483832  0.75611673  0.56454056  1
  Te  Te170  1  0.58208187  0.72336468  0.91408510  1
  Te  Te171  1  0.94936424  0.03620277  0.30930164  1
  Te  Te172  1  0.94452645  0.09551842  0.55254971  1
  Te  Te173  1  0.90564720  0.05549385  0.91719619  1
  Te  Te174  1  0.89153481  0.41415755  0.23564057  1
  Te  Te175  1  0.91070956  0.43001456  0.58649641  1
  Te  Te176  1  0.91937769  0.40998996  0.89359328  1
  Te  Te177  1  0.91821694  0.77412469  0.26621426  1
  Te  Te178  1  0.94760264  0.76373919  0.55511254  1
  Te  Te179  1  0.91047847  0.75221376  0.94559850  1
