# generated using pymatgen
data_In2Te3
_symmetry_space_group_name_H-M   'P 1'
_cell_length_a   18.78321806
_cell_length_b   18.77907951
_cell_length_c   18.77488913
_cell_angle_alpha   90.04997758
_cell_angle_beta   90.04003862
_cell_angle_gamma   89.92059545
_symmetry_Int_Tables_number   1
_chemical_formula_structural   In2Te3
_chemical_formula_sum   'In72 Te108'
_cell_volume   6622.48516803
_cell_formula_units_Z   36
loop_
 _symmetry_equiv_pos_site_id
 _symmetry_equiv_pos_as_xyz
  1  'x, y, z'
loop_
 _atom_site_type_symbol
 _atom_site_label
 _atom_site_symmetry_multiplicity
 _atom_site_fract_x
 _atom_site_fract_y
 _atom_site_fract_z
 _atom_site_occupancy
  In  In0  1  0.12724563  0.68518224  0.83161061  1
  In  In1  1  0.83256009  0.16908645  0.32818684  1
  In  In2  1  -0.00430284  0.50171354  0.16955971  1
  In  In3  1  0.83681204  0.01324435  0.13899184  1
  In  In4  1  0.49332012  0.67194348  0.84649179  1
  In  In5  1  0.67759142  0.15639279  0.15359558  1
  In  In6  1  -0.00941928  0.85230307  0.82895720  1
  In  In7  1  0.68650645  0.47376795  0.81901388  1
  In  In8  1  0.83971137  0.16247096  0.68079109  1
  In  In9  1  -0.01752778  0.50468196  0.84105749  1
  In  In10  1  0.34124859  0.66964714  0.02945032  1
  In  In11  1  0.83191973  0.18990509  -0.00172160  1
  In  In12  1  0.80631440  0.01299305  0.82635665  1
  In  In13  1  0.34337323  0.33093489  0.66423403  1
  In  In14  1  0.19642692  0.82590103  0.03193085  1
  In  In15  1  0.48998255  0.33361663  0.17712829  1
  In  In16  1  0.84882294  0.34581636  0.15227106  1
  In  In17  1  -0.00898500  0.33892193  -0.01161076  1
  In  In18  1  0.16259648  0.48540635  0.66621033  1
  In  In19  1  -0.00451890  0.00400258  0.68714292  1
  In  In20  1  0.03195067  0.18251575  0.50781154  1
  In  In21  1  0.33700315  0.17701711  0.48654346  1
  In  In22  1  0.34652447  0.17709995  0.84872163  1
  In  In23  1  0.69352652  0.81902978  0.50187182  1
  In  In24  1  -0.01813790  0.49116225  0.49319803  1
  In  In25  1  0.00718527  0.68289315  0.33204817  1
  In  In26  1  0.14401994  0.83057532  0.68598898  1
  In  In27  1  0.53370515  0.02260213  0.86691055  1
  In  In28  1  0.84471804  0.67697317  0.51427536  1
  In  In29  1  0.31885736  0.82981659  0.46569000  1
  In  In30  1  0.36862072  0.52025500  0.17850536  1
  In  In31  1  0.50113450  0.49338530  0.66269320  1
  In  In32  1  0.02020046  0.33518223  0.31029135  1
  In  In33  1  0.17708823  0.32006440  0.15796676  1
  In  In34  1  0.64686834  0.52107552  0.48964943  1
  In  In35  1  0.00581588  -0.01485947  0.34323071  1
  In  In36  1  0.34702669  0.01821162  0.66947397  1
  In  In37  1  0.33364975  -0.01034909  0.02425178  1
  In  In38  1  0.66636326  0.82037282  0.16113510  1
  In  In39  1  0.16477539  0.65197141  0.48862832  1
  In  In40  1  0.49492760  0.34563992  0.50905192  1
  In  In41  1  0.32936307  0.50434326  0.47460701  1
  In  In42  1  0.82492521  0.84394833  -0.00194813  1
  In  In43  1  0.17674921  0.16251805  0.01474089  1
  In  In44  1  0.16395007  -0.00158527  0.50166294  1
  In  In45  1  0.33790581  0.84147554  0.82736582  1
  In  In46  1  0.49908010  0.82075629  0.31083442  1
  In  In47  1  0.12488216  0.02734553  0.82733305  1
  In  In48  1  0.18463870  0.35143426  0.84012409  1
  In  In49  1  0.65933192  0.65128730  0.01847064  1
  In  In50  1  0.15218957  0.49717612  0.34059292  1
  In  In51  1  0.02632609  0.00634286  0.01721720  1
  In  In52  1  0.67132996  0.34122758  0.00664097  1
  In  In53  1  0.01287342  0.65417498  0.00861842  1
  In  In54  1  -0.02479918  0.17459251  0.82224464  1
  In  In55  1  0.17954225  0.81557151  0.30284265  1
  In  In56  1  0.83015573  0.80362714  0.32826257  1
  In  In57  1  0.32583460  0.64068285  0.64824335  1
  In  In58  1  0.53425375  0.30505604  0.83344974  1
  In  In59  1  0.64321978  -0.01266196  0.31918860  1
  In  In60  1  0.82110874  -0.01701730  0.50761707  1
  In  In61  1  0.82389189  0.34832009  0.49922844  1
  In  In62  1  0.67638379  0.67663919  0.65853098  1
  In  In63  1  0.82648400  0.65857222  0.81456178  1
  In  In64  1  0.33833779  0.32452691  0.33370372  1
  In  In65  1  0.64848794  0.35126586  0.34310757  1
  In  In66  1  0.64401231  0.16821735  0.50676690  1
  In  In67  1  0.49030622  0.01738874  0.49474121  1
  In  In68  1  0.32942566  0.51197042  0.87097300  1
  In  In69  1  0.49279044  0.01172377  0.15583611  1
  In  In70  1  0.52373297  0.84719036  0.66035075  1
  In  In71  1  0.50617940  0.80040582  0.02701138  1
  Te  Te72  1  0.10749643  0.07859387  0.11693073  1
  Te  Te73  1  0.09791735  0.09388056  0.40126175  1
  Te  Te74  1  0.08497094  0.12817101  0.71375853  1
  Te  Te75  1  0.08567942  0.41614405  0.07975032  1
  Te  Te76  1  0.08730277  0.39694720  0.43430193  1
  Te  Te77  1  0.07030141  0.40362972  0.75447144  1
  Te  Te78  1  0.08829459  0.74878521  0.09409385  1
  Te  Te79  1  0.09084065  0.76823266  0.42587743  1
  Te  Te80  1  0.02600812  0.73660147  0.71978328  1
  Te  Te81  1  0.40987332  0.10658291  0.07508712  1
  Te  Te82  1  0.40736187  0.08396584  0.39328532  1
  Te  Te83  1  0.44080480  0.09219523  0.76176363  1
  Te  Te84  1  0.41268967  0.41714414  0.08096995  1
  Te  Te85  1  0.43581616  0.42756027  0.39412646  1
  Te  Te86  1  0.40788857  0.42753649  0.76328187  1
  Te  Te87  1  0.39761819  0.77215170  0.12753507  1
  Te  Te88  1  0.41440820  0.73675215  0.40260851  1
  Te  Te89  1  0.41486245  0.74357599  0.73378974  1
  Te  Te90  1  0.73265077  0.06918059  0.03789319  1
  Te  Te91  1  0.73967604  0.07868123  0.40950446  1
  Te  Te92  1  0.71713874  0.11868909  0.76386656  1
  Te  Te93  1  0.75473754  0.44229749  0.08451602  1
  Te  Te94  1  0.75170569  0.44369524  0.40412223  1
  Te  Te95  1  0.78688555  0.40167445  0.73960056  1
  Te  Te96  1  0.76933076  0.73410065  0.08908527  1
  Te  Te97  1  0.73445394  0.71221424  0.40188654  1
  Te  Te98  1  0.74335130  0.76503020  0.75466030  1
  Te  Te99  1  0.09822892  0.22922520  0.24515333  1
  Te  Te100  1  0.07784562  0.25853290  0.62247081  1
  Te  Te101  1  0.08783980  0.23942958  0.91364171  1
  Te  Te102  1  0.09343321  0.59544362  0.24056356  1
  Te  Te103  1  0.07350997  0.57850583  0.58354552  1
  Te  Te104  1  0.10098631  0.56382520  0.92147947  1
  Te  Te105  1  0.06954801  0.89620963  0.24380052  1
  Te  Te106  1  0.06647332  0.91556408  0.58314869  1
  Te  Te107  1  0.10350789  0.90216223  0.92219421  1
  Te  Te108  1  0.40023683  0.22996132  0.23687718  1
  Te  Te109  1  0.43488705  0.23313593  0.59273352  1
  Te  Te110  1  0.42528295  0.27325126  0.92690551  1
  Te  Te111  1  0.43829445  0.60073814  0.28266329  1
  Te  Te112  1  0.43309571  0.58282972  0.55876806  1
  Te  Te113  1  0.43981787  0.57910682  0.95381931  1
  Te  Te114  1  0.41098529  0.93474344  0.25957057  1
  Te  Te115  1  0.40054163  0.90770617  0.57703105  1
  Te  Te116  1  0.42727003  0.90803777  0.93096205  1
  Te  Te117  1  0.74532450  0.26490233  0.24462130  1
  Te  Te118  1  0.74890671  0.24619830  0.58366719  1
  Te  Te119  1  0.74581465  0.26218678  0.90379601  1
  Te  Te120  1  0.69932689  0.54784154  0.19385734  1
  Te  Te121  1  0.75630050  0.57165523  0.58440659  1
  Te  Te122  1  0.74741678  0.57639744  0.91598591  1
  Te  Te123  1  0.76025746  0.92295742  0.24477018  1
  Te  Te124  1  0.72503841  0.92412162  0.60250082  1
  Te  Te125  1  0.73087299  0.91261047  0.90689349  1
  Te  Te126  1  0.28211022  0.23055191  0.09688427  1
  Te  Te127  1  0.23500403  0.25725304  0.41586057  1
  Te  Te128  1  0.25125541  0.24642244  0.75044373  1
  Te  Te129  1  0.25104609  0.58704018  0.11198186  1
  Te  Te130  1  0.25905503  0.60261361  0.38168306  1
  Te  Te131  1  0.23702007  0.58422158  0.75944520  1
  Te  Te132  1  0.23467431  0.94074364  0.12894291  1
  Te  Te133  1  0.24812345  0.93882646  0.38779275  1
  Te  Te134  1  0.24018452  0.93353597  0.74766413  1
  Te  Te135  1  0.57780062  0.24383148  0.07744751  1
  Te  Te136  1  0.55924692  0.24673829  0.40723850  1
  Te  Te137  1  0.61013977  0.23079167  0.73463396  1
  Te  Te138  1  0.57119072  0.59659015  0.12567793  1
  Te  Te139  1  0.55197740  0.56194667  0.38439211  1
  Te  Te140  1  0.58354552  0.58711072  0.75328090  1
  Te  Te141  1  0.58806347  0.92019066  0.07761248  1
  Te  Te142  1  0.57818234  0.90085449  0.42534357  1
  Te  Te143  1  0.58703817  0.91713502  0.77429043  1
  Te  Te144  1  0.93950655  0.23690667  0.09411058  1
  Te  Te145  1  0.92060569  0.25583845  0.41747684  1
  Te  Te146  1  0.88678543  0.28138244  0.76453764  1
  Te  Te147  1  0.90807923  0.57404389  0.07556555  1
  Te  Te148  1  0.90940616  0.59004264  0.40417615  1
  Te  Te149  1  0.90639075  0.56698370  0.72940843  1
  Te  Te150  1  0.93296719  0.90608666  0.08785734  1
  Te  Te151  1  0.91096092  0.89384427  0.42254651  1
  Te  Te152  1  0.88404431  0.91436934  0.73769580  1
  Te  Te153  1  0.28893829  0.02916294  0.24487904  1
  Te  Te154  1  0.24793767  0.09570860  0.58344293  1
  Te  Te155  1  0.25301120  0.06807715  0.90941054  1
  Te  Te156  1  0.25111621  0.42184688  0.24933937  1
  Te  Te157  1  0.25368962  0.40997402  0.56867104  1
  Te  Te158  1  0.26416153  0.40675785  0.95171279  1
  Te  Te159  1  0.27006305  0.73891789  0.21321899  1
  Te  Te160  1  0.24126261  0.75438554  0.58897423  1
  Te  Te161  1  0.25809785  0.73976923  0.91078542  1
  Te  Te162  1  0.57371149  0.10353970  0.25290042  1
  Te  Te163  1  0.58850569  0.06316998  0.59477245  1
  Te  Te164  1  0.60448752  0.11729664  0.95410519  1
  Te  Te165  1  0.59459010  0.43297955  0.22778409  1
  Te  Te166  1  0.60569248  0.40912726  0.59143907  1
  Te  Te167  1  0.57975121  0.42815896  0.91789218  1
  Te  Te168  1  0.59146104  0.72262983  0.24431215  1
  Te  Te169  1  0.57361690  0.73934937  0.56492225  1
  Te  Te170  1  0.60090469  0.75276457  0.91665811  1
  Te  Te171  1  0.92312901  0.08043658  0.24583478  1
  Te  Te172  1  0.91879025  0.08524346  0.56638915  1
  Te  Te173  1  0.92192602  0.07010588  0.92057408  1
  Te  Te174  1  0.90605611  0.42725686  0.26878573  1
  Te  Te175  1  0.90996324  0.41621602  0.60020977  1
  Te  Te176  1  0.88940314  0.42142027  0.92185851  1
  Te  Te177  1  0.90966219  0.72892938  0.22964196  1
  Te  Te178  1  0.92230921  0.76398795  0.60133293  1
  Te  Te179  1  0.92052006  0.74718161  0.91534987  1
