# generated using pymatgen
data_In72.36Te108
_symmetry_space_group_name_H-M   'P 1'
_cell_length_a   18.48900000
_cell_length_b   18.48900000
_cell_length_c   18.48900000
_cell_angle_alpha   90.00000000
_cell_angle_beta   90.00000000
_cell_angle_gamma   90.00000000
_symmetry_Int_Tables_number   1
_chemical_formula_structural   In72.36Te108
_chemical_formula_sum   'In72.36 Te108'
_cell_volume   6320.33746417
_cell_formula_units_Z   1
loop_
 _symmetry_equiv_pos_site_id
 _symmetry_equiv_pos_as_xyz
  1  'x, y, z'
loop_
 _atom_site_type_symbol
 _atom_site_label
 _atom_site_symmetry_multiplicity
 _atom_site_fract_x
 _atom_site_fract_y
 _atom_site_fract_z
 _atom_site_occupancy
  In  In1  1  0.16666667  0.66666667  0.83333333  1.0
  In  In1  1  0.33333333  0.00000000  0.66666667  1.0
  In  In1  1  0.66666667  0.16666667  0.16666667  1.0
  In  In1  1  0.66666667  0.50000000  0.50000000  1.0
  In  In1  1  0.66666667  0.66666667  0.66666667  1.0
  In  In1  1  0.00000000  0.16666667  0.16666667  1.0
  In  In1  1  0.66666667  0.33333333  0.00000000  1.0
  In  In1  1  0.83333333  0.33333333  0.50000000  1.0
  In  In1  1  0.83333333  0.16666667  0.66666667  1.0
  In  In1  1  0.50000000  0.16666667  0.00000000  1.0
  In  In1  1  0.16666667  0.50000000  0.00000000  1.0
  In  In1  1  0.16666667  0.50000000  0.66666667  1.0
  In  In1  1  0.00000000  0.33333333  0.33333333  1.0
  In  In1  1  0.83333333  0.16666667  0.33333333  1.0
  In  In1  1  0.33333333  0.83333333  0.50000000  1.0
  In  In1  1  0.33333333  0.33333333  0.33333333  1.0
  In  In1  1  0.16666667  0.33333333  0.50000000  1.0
  In  In1  1  0.83333333  0.66666667  0.16666667  1.0
  In  In1  1  0.33333333  0.00000000  0.00000000  1.0
  In  In1  1  0.83333333  0.00000000  0.50000000  1.0
  In  In1  1  0.50000000  0.33333333  0.83333333  1.0
  In  In1  1  0.50000000  0.00000000  0.83333333  1.0
  In  In1  1  0.00000000  0.50000000  0.83333333  1.0
  In  In1  1  0.83333333  0.50000000  0.66666667  1.0
  In  In1  1  0.83333333  0.33333333  0.83333333  1.0
  In  In1  1  0.83333333  0.83333333  0.00000000  1.0
  In  In1  1  0.00000000  0.83333333  0.83333333  1.0
  In  In1  1  0.66666667  0.00000000  0.33333333  1.0
  In  In1  1  0.66666667  0.50000000  0.16666667  1.0
  In  In1  1  0.16666667  0.16666667  0.33333333  1.0
  In  In1  1  0.00000000  0.83333333  0.16666667  1.0
  In  In1  1  0.00000000  0.66666667  0.33333333  1.0
  In  In1  1  0.66666667  0.66666667  0.33333333  1.0
  In  In1  1  0.83333333  0.50000000  0.33333333  1.0
  In  In1  1  0.16666667  0.33333333  0.16666667  1.0
  In  In1  1  0.00000000  0.00000000  0.66666667  1.0
  In  In1  1  0.16666667  0.00000000  0.16666667  1.0
  In  In1  1  0.66666667  0.33333333  0.33333333  1.0
  In  In1  1  0.00000000  0.16666667  0.83333333  1.0
  In  In1  1  0.16666667  0.83333333  0.00000000  1.0
  In  In1  1  0.50000000  0.33333333  0.50000000  1.0
  In  In1  1  0.83333333  0.66666667  0.83333333  1.0
  In  In1  1  0.66666667  0.83333333  0.16666667  1.0
  In  In1  1  0.33333333  0.33333333  0.66666667  1.0
  In  In1  1  0.83333333  0.66666667  0.50000000  1.0
  In  In1  1  0.16666667  0.83333333  0.33333333  1.0
  In  In1  1  0.33333333  0.83333333  0.83333333  1.0
  In  In1  1  0.16666667  0.00000000  0.50000000  1.0
  In  In1  1  0.33333333  0.66666667  0.66666667  1.0
  In  In1  1  0.33333333  0.33333333  0.00000000  1.0
  In  In1  1  0.50000000  0.83333333  0.00000000  1.0
  In  In1  1  0.50000000  0.66666667  0.83333333  1.0
  In  In1  1  0.66666667  0.16666667  0.83333333  1.0
  In  In1  1  0.33333333  0.00000000  0.33333333  1.0
  In  In1  1  0.16666667  0.66666667  0.50000000  1.0
  In  In1  1  0.83333333  0.00000000  0.83333333  1.0
  In  In1  1  0.66666667  0.16666667  0.50000000  1.0
  In  In1  1  0.33333333  0.50000000  0.50000000  1.0
  In  In1  1  0.33333333  0.66666667  0.00000000  1.0
  In  In1  1  0.50000000  0.83333333  0.66666667  1.0
  In  In1  1  0.00000000  0.00000000  0.00000000  1.0
  In  In1  1  0.33333333  0.83333333  0.16666667  1.0
  In  In1  1  0.50000000  0.66666667  0.50000000  1.0
  In  In1  1  0.50000000  0.00000000  0.16666667  1.0
  In  In1  1  0.16666667  0.16666667  0.66666667  1.0
  In  In1  1  0.50000000  0.66666667  0.16666667  1.0
  In  In1  1  0.33333333  0.66666667  0.33333333  1.0
  In  In1  1  0.00000000  0.83333333  0.50000000  1.0
  In  In1  1  0.83333333  0.33333333  0.16666667  1.0
  In  In1  1  0.00000000  0.00000000  0.33333333  1.0
  In  In1  1  0.50000000  0.83333333  0.33333333  1.0
  In  In1  1  0.16666667  0.83333333  0.66666667  1.0
  Te  Te1  1  0.08333333  0.08333333  0.08333333  1.0
  Te  Te1  1  0.08333333  0.08333333  0.41666667  1.0
  Te  Te1  1  0.08333333  0.08333333  0.75000000  1.0
  Te  Te1  1  0.08333333  0.41666667  0.08333333  1.0
  Te  Te1  1  0.08333333  0.41666667  0.41666667  1.0
  Te  Te1  1  0.08333333  0.41666667  0.75000000  1.0
  Te  Te1  1  0.08333333  0.75000000  0.08333333  1.0
  Te  Te1  1  0.08333333  0.75000000  0.41666667  1.0
  Te  Te1  1  0.08333333  0.75000000  0.75000000  1.0
  Te  Te1  1  0.41666667  0.08333333  0.08333333  1.0
  Te  Te1  1  0.41666667  0.08333333  0.41666667  1.0
  Te  Te1  1  0.41666667  0.08333333  0.75000000  1.0
  Te  Te1  1  0.41666667  0.41666667  0.08333333  1.0
  Te  Te1  1  0.41666667  0.41666667  0.41666667  1.0
  Te  Te1  1  0.41666667  0.41666667  0.75000000  1.0
  Te  Te1  1  0.41666667  0.75000000  0.08333333  1.0
  Te  Te1  1  0.41666667  0.75000000  0.41666667  1.0
  Te  Te1  1  0.41666667  0.75000000  0.75000000  1.0
  Te  Te1  1  0.75000000  0.08333333  0.08333333  1.0
  Te  Te1  1  0.75000000  0.08333333  0.41666667  1.0
  Te  Te1  1  0.75000000  0.08333333  0.75000000  1.0
  Te  Te1  1  0.75000000  0.41666667  0.08333333  1.0
  Te  Te1  1  0.75000000  0.41666667  0.41666667  1.0
  Te  Te1  1  0.75000000  0.41666667  0.75000000  1.0
  Te  Te1  1  0.75000000  0.75000000  0.08333333  1.0
  Te  Te1  1  0.75000000  0.75000000  0.41666667  1.0
  Te  Te1  1  0.75000000  0.75000000  0.75000000  1.0
  Te  Te1  1  0.08333333  0.25000000  0.25000000  1.0
  Te  Te1  1  0.08333333  0.25000000  0.58333333  1.0
  Te  Te1  1  0.08333333  0.25000000  0.91666667  1.0
  Te  Te1  1  0.08333333  0.58333333  0.25000000  1.0
  Te  Te1  1  0.08333333  0.58333333  0.58333333  1.0
  Te  Te1  1  0.08333333  0.58333333  0.91666667  1.0
  Te  Te1  1  0.08333333  0.91666667  0.25000000  1.0
  Te  Te1  1  0.08333333  0.91666667  0.58333333  1.0
  Te  Te1  1  0.08333333  0.91666667  0.91666667  1.0
  Te  Te1  1  0.41666667  0.25000000  0.25000000  1.0
  Te  Te1  1  0.41666667  0.25000000  0.58333333  1.0
  Te  Te1  1  0.41666667  0.25000000  0.91666667  1.0
  Te  Te1  1  0.41666667  0.58333333  0.25000000  1.0
  Te  Te1  1  0.41666667  0.58333333  0.58333333  1.0
  Te  Te1  1  0.41666667  0.58333333  0.91666667  1.0
  Te  Te1  1  0.41666667  0.91666667  0.25000000  1.0
  Te  Te1  1  0.41666667  0.91666667  0.58333333  1.0
  Te  Te1  1  0.41666667  0.91666667  0.91666667  1.0
  Te  Te1  1  0.75000000  0.25000000  0.25000000  1.0
  Te  Te1  1  0.75000000  0.25000000  0.58333333  1.0
  Te  Te1  1  0.75000000  0.25000000  0.91666667  1.0
  Te  Te1  1  0.75000000  0.58333333  0.25000000  1.0
  Te  Te1  1  0.75000000  0.58333333  0.58333333  1.0
  Te  Te1  1  0.75000000  0.58333333  0.91666667  1.0
  Te  Te1  1  0.75000000  0.91666667  0.25000000  1.0
  Te  Te1  1  0.75000000  0.91666667  0.58333333  1.0
  Te  Te1  1  0.75000000  0.91666667  0.91666667  1.0
  Te  Te1  1  0.25000000  0.25000000  0.08333333  1.0
  Te  Te1  1  0.25000000  0.25000000  0.41666667  1.0
  Te  Te1  1  0.25000000  0.25000000  0.75000000  1.0
  Te  Te1  1  0.25000000  0.58333333  0.08333333  1.0
  Te  Te1  1  0.25000000  0.58333333  0.41666667  1.0
  Te  Te1  1  0.25000000  0.58333333  0.75000000  1.0
  Te  Te1  1  0.25000000  0.91666667  0.08333333  1.0
  Te  Te1  1  0.25000000  0.91666667  0.41666667  1.0
  Te  Te1  1  0.25000000  0.91666667  0.75000000  1.0
  Te  Te1  1  0.58333333  0.25000000  0.08333333  1.0
  Te  Te1  1  0.58333333  0.25000000  0.41666667  1.0
  Te  Te1  1  0.58333333  0.25000000  0.75000000  1.0
  Te  Te1  1  0.58333333  0.58333333  0.08333333  1.0
  Te  Te1  1  0.58333333  0.58333333  0.41666667  1.0
  Te  Te1  1  0.58333333  0.58333333  0.75000000  1.0
  Te  Te1  1  0.58333333  0.91666667  0.08333333  1.0
  Te  Te1  1  0.58333333  0.91666667  0.41666667  1.0
  Te  Te1  1  0.58333333  0.91666667  0.75000000  1.0
  Te  Te1  1  0.91666667  0.25000000  0.08333333  1.0
  Te  Te1  1  0.91666667  0.25000000  0.41666667  1.0
  Te  Te1  1  0.91666667  0.25000000  0.75000000  1.0
  Te  Te1  1  0.91666667  0.58333333  0.08333333  1.0
  Te  Te1  1  0.91666667  0.58333333  0.41666667  1.0
  Te  Te1  1  0.91666667  0.58333333  0.75000000  1.0
  Te  Te1  1  0.91666667  0.91666667  0.08333333  1.0
  Te  Te1  1  0.91666667  0.91666667  0.41666667  1.0
  Te  Te1  1  0.91666667  0.91666667  0.75000000  1.0
  Te  Te1  1  0.25000000  0.08333333  0.25000000  1.0
  Te  Te1  1  0.25000000  0.08333333  0.58333333  1.0
  Te  Te1  1  0.25000000  0.08333333  0.91666667  1.0
  Te  Te1  1  0.25000000  0.41666667  0.25000000  1.0
  Te  Te1  1  0.25000000  0.41666667  0.58333333  1.0
  Te  Te1  1  0.25000000  0.41666667  0.91666667  1.0
  Te  Te1  1  0.25000000  0.75000000  0.25000000  1.0
  Te  Te1  1  0.25000000  0.75000000  0.58333333  1.0
  Te  Te1  1  0.25000000  0.75000000  0.91666667  1.0
  Te  Te1  1  0.58333333  0.08333333  0.25000000  1.0
  Te  Te1  1  0.58333333  0.08333333  0.58333333  1.0
  Te  Te1  1  0.58333333  0.08333333  0.91666667  1.0
  Te  Te1  1  0.58333333  0.41666667  0.25000000  1.0
  Te  Te1  1  0.58333333  0.41666667  0.58333333  1.0
  Te  Te1  1  0.58333333  0.41666667  0.91666667  1.0
  Te  Te1  1  0.58333333  0.75000000  0.25000000  1.0
  Te  Te1  1  0.58333333  0.75000000  0.58333333  1.0
  Te  Te1  1  0.58333333  0.75000000  0.91666667  1.0
  Te  Te1  1  0.91666667  0.08333333  0.25000000  1.0
  Te  Te1  1  0.91666667  0.08333333  0.58333333  1.0
  Te  Te1  1  0.91666667  0.08333333  0.91666667  1.0
  Te  Te1  1  0.91666667  0.41666667  0.25000000  1.0
  Te  Te1  1  0.91666667  0.41666667  0.58333333  1.0
  Te  Te1  1  0.91666667  0.41666667  0.91666667  1.0
  Te  Te1  1  0.91666667  0.75000000  0.25000000  1.0
  Te  Te1  1  0.91666667  0.75000000  0.58333333  1.0
  Te  Te1  1  0.91666667  0.75000000  0.91666667  1.0

















































































































































































































































































































































































































































































































