# generated using pymatgen
data_In2Te3
_symmetry_space_group_name_H-M   'P 1'
_cell_length_a   18.95638501
_cell_length_b   18.97429608
_cell_length_c   18.97813471
_cell_angle_alpha   90.02658573
_cell_angle_beta   90.04199140
_cell_angle_gamma   89.88895722
_symmetry_Int_Tables_number   1
_chemical_formula_structural   In2Te3
_chemical_formula_sum   'In72 Te108'
_cell_volume   6826.11719135
_cell_formula_units_Z   36
loop_
 _symmetry_equiv_pos_site_id
 _symmetry_equiv_pos_as_xyz
  1  'x, y, z'
loop_
 _atom_site_type_symbol
 _atom_site_label
 _atom_site_symmetry_multiplicity
 _atom_site_fract_x
 _atom_site_fract_y
 _atom_site_fract_z
 _atom_site_occupancy
  In  In0  1  0.82389016  0.13688225  0.00345525  1
  In  In1  1  0.47977401  0.84085443  0.65951474  1
  In  In2  1  0.15469961  0.81569899  0.34647499  1
  In  In3  1  0.49838260  0.13754424  0.01402590  1
  In  In4  1  0.80375190  0.33979639  0.82844928  1
  In  In5  1  -0.00667930  0.16094440  0.17900463  1
  In  In6  1  0.35885480  0.51311556  0.14347218  1
  In  In7  1  0.36630858  0.03037265  0.35662663  1
  In  In8  1  0.16557113  0.50649177  0.34618138  1
  In  In9  1  0.32148896  -0.03390232  -0.01775766  1
  In  In10  1  0.70883521  -0.02842833  0.64755131  1
  In  In11  1  0.82527624  0.51711620  0.64610191  1
  In  In12  1  0.83949135  0.33017796  0.19768361  1
  In  In13  1  0.83132756  0.35016670  0.51543583  1
  In  In14  1  0.78487115  0.81352192  0.36913032  1
  In  In15  1  0.17922288  0.17507753  0.01843335  1
  In  In16  1  0.32896351  0.34139651  0.34940941  1
  In  In17  1  0.33689472  0.17969621  0.84059552  1
  In  In18  1  0.67055030  -0.00325362  0.33183499  1
  In  In19  1  0.35621970  0.52410538  0.85476134  1
  In  In20  1  0.00406144  0.85014982  0.15078253  1
  In  In21  1  0.16861242  0.32764910  0.18018975  1
  In  In22  1  0.49024263  0.34240773  0.16028591  1
  In  In23  1  0.16332844  0.15693890  0.68215014  1
  In  In24  1  0.34007353  0.83194069  0.49355345  1
  In  In25  1  0.84284161  0.16638843  0.67176163  1
  In  In26  1  -0.02897271  0.35729245  0.68447495  1
  In  In27  1  0.33992029  0.64037043  0.33235324  1
  In  In28  1  0.17779180  0.35053878  0.49632885  1
  In  In29  1  -0.01668303  -0.03533187  0.64423802  1
  In  In30  1  0.67473835  0.54233502  0.82950493  1
  In  In31  1  0.51451104  -0.00231368  0.17917632  1
  In  In32  1  0.49905004  0.50456837  0.33077461  1
  In  In33  1  0.56036726  0.82141106  0.32043542  1
  In  In34  1  0.64324646  0.79608250  0.84102218  1
  In  In35  1  0.65576596  0.67711101  0.66324227  1
  In  In36  1  0.65313864  0.53432429  0.15457184  1
  In  In37  1  0.37254815  0.77566105  0.88640296  1
  In  In38  1  0.35568160  0.34550618  0.63459275  1
  In  In39  1  0.17065154  0.83305084  0.68171386  1
  In  In40  1  0.15714419  0.35610519  0.82550647  1
  In  In41  1  0.83842419  0.15251618  0.33422453  1
  In  In42  1  0.34562481  0.65205415  0.68237706  1
  In  In43  1  0.81306031  0.51699590  -0.00049947  1
  In  In44  1  0.38210188  0.81086579  0.15600180  1
  In  In45  1  0.17495927  -0.01025466  0.18586782  1
  In  In46  1  0.14634475  0.01185244  0.49742677  1
  In  In47  1  0.50800443  0.66750319  0.50221262  1
  In  In48  1  0.50502128  0.17823452  0.64715790  1
  In  In49  1  -0.01218948  0.51367439  0.82935662  1
  In  In50  1  0.00658602  0.18921984  0.49638176  1
  In  In51  1  0.30173907  0.00072267  0.64000500  1
  In  In52  1  0.49467602  0.00130493  0.81854651  1
  In  In53  1  0.68177004  0.32687442  0.34658395  1
  In  In54  1  0.16265881  0.66870228  0.17001504  1
  In  In55  1  0.51129649  0.34294008  0.83367071  1
  In  In56  1  -0.01310776  0.69136128  0.64000170  1
  In  In57  1  0.65399041  -0.01126321  0.00575540  1
  In  In58  1  -0.02079203  0.67990432  0.35132820  1
  In  In59  1  0.83615655  0.66360375  0.14961773  1
  In  In60  1  0.01419074  0.33092836  -0.00014804  1
  In  In61  1  0.16716851  -0.04116627  0.81578540  1
  In  In62  1  0.32796593  0.17391252  0.18057337  1
  In  In63  1  0.83363013  0.83469316  0.02254033  1
  In  In64  1  0.16587266  0.81526250  -0.01562718  1
  In  In65  1  0.83522173  0.49332646  0.34681361  1
  In  In66  1  0.16128950  0.49416152  -0.01436860  1
  In  In67  1  0.61270991  0.35614910  0.63804751  1
  In  In68  1  0.66202721  0.32739747  0.01126290  1
  In  In69  1  0.66171251  0.16373044  0.49747104  1
  In  In70  1  -0.01334095  0.82722017  0.85779423  1
  In  In71  1  0.84433722  -0.00322928  0.84821019  1
  Te  Te72  1  0.09395292  0.07776154  0.09184410  1
  Te  Te73  1  0.05007904  0.07830490  0.41019913  1
  Te  Te74  1  0.07363621  0.05067728  0.73890636  1
  Te  Te75  1  0.08333977  0.42210036  0.09752614  1
  Te  Te76  1  0.07382635  0.41860674  0.41868768  1
  Te  Te77  1  0.08514742  0.44890192  0.73149428  1
  Te  Te78  1  0.06974971  0.73804171  0.07251455  1
  Te  Te79  1  0.09993168  0.71180162  0.44013893  1
  Te  Te80  1  0.07083100  0.74943021  0.75742555  1
  Te  Te81  1  0.38402193  0.06684224  0.08481497  1
  Te  Te82  1  0.43552781  0.12299890  0.44285685  1
  Te  Te83  1  0.40369111  0.09146361  0.73364681  1
  Te  Te84  1  0.44099748  0.43008053  0.05490244  1
  Te  Te85  1  0.42539891  0.42341117  0.43185945  1
  Te  Te86  1  0.41405652  0.42358848  0.75243657  1
  Te  Te87  1  0.38843312  0.72927058  0.03228722  1
  Te  Te88  1  0.42815507  0.75397921  0.39815449  1
  Te  Te89  1  0.44826923  0.73249919  0.75945119  1
  Te  Te90  1  0.73307360  0.07165162  0.09560594  1
  Te  Te91  1  0.76235999  0.07096772  0.43521904  1
  Te  Te92  1  0.75399671  0.07373565  0.75110286  1
  Te  Te93  1  0.75020575  0.41417516  0.10055852  1
  Te  Te94  1  0.72737547  0.43262574  0.44358295  1
  Te  Te95  1  0.73280883  0.42613357  0.72547542  1
  Te  Te96  1  0.73009236  0.74857305  0.08691591  1
  Te  Te97  1  0.71784661  0.69995322  0.43492966  1
  Te  Te98  1  0.74685145  0.75665474  0.74633706  1
  Te  Te99  1  0.08973951  0.23599347  0.26185595  1
  Te  Te100  1  0.06930841  0.25735014  0.61699723  1
  Te  Te101  1  0.09759911  0.24258170  0.90884766  1
  Te  Te102  1  0.07263656  0.59208910  0.26105939  1
  Te  Te103  1  0.09032452  0.62314018  0.56496101  1
  Te  Te104  1  0.06878640  0.58885723  0.92418068  1
  Te  Te105  1  0.07257234  0.91718915  0.27087459  1
  Te  Te106  1  0.08824700  0.88959933  0.56624962  1
  Te  Te107  1  0.07587255  0.92536244  0.93154634  1
  Te  Te108  1  0.42305116  0.25519705  0.26439985  1
  Te  Te109  1  0.41322468  0.23915950  0.54532732  1
  Te  Te110  1  0.43565442  0.25026154  0.92792800  1
  Te  Te111  1  0.44511268  0.60484970  0.22760660  1
  Te  Te112  1  0.43085838  0.57323004  0.58716217  1
  Te  Te113  1  0.44597184  0.60431173  0.94422705  1
  Te  Te114  1  0.41227130  0.92015727  0.25984749  1
  Te  Te115  1  0.41864424  0.94243570  0.56345063  1
  Te  Te116  1  0.44771238  0.90634761  0.92591226  1
  Te  Te117  1  0.73958328  0.22863493  0.24675109  1
  Te  Te118  1  0.74522008  0.25581758  0.59669078  1
  Te  Te119  1  0.73953468  0.23730539  0.91769317  1
  Te  Te120  1  0.75381384  0.58546145  0.25175004  1
  Te  Te121  1  0.74126666  0.60685964  0.55970576  1
  Te  Te122  1  0.77722079  0.62156632  0.90142347  1
  Te  Te123  1  0.74797062  0.89703718  0.25528717  1
  Te  Te124  1  0.79284036  0.88983060  0.55492882  1
  Te  Te125  1  0.73811291  0.90280078  0.91156223  1
  Te  Te126  1  0.27227756  0.27435560  0.08049658  1
  Te  Te127  1  0.22371234  0.25134525  0.39854198  1
  Te  Te128  1  0.25775493  0.26322346  0.74042088  1
  Te  Te129  1  0.24656711  0.58806723  0.07329933  1
  Te  Te130  1  0.26661377  0.56780846  0.43468150  1
  Te  Te131  1  0.24946585  0.59306093  0.77848034  1
  Te  Te132  1  0.24675679  0.89074538  0.09346757  1
  Te  Te133  1  0.24652053  0.92161961  0.41413725  1
  Te  Te134  1  0.29187011  0.90180118  0.75359261  1
  Te  Te135  1  0.57972963  0.23437713  0.09779090  1
  Te  Te136  1  0.57713032  0.25726156  0.42253695  1
  Te  Te137  1  0.59267074  0.24938611  0.74761637  1
  Te  Te138  1  0.58786872  0.58930237  0.03542744  1
  Te  Te139  1  0.59139080  0.60503773  0.39418206  1
  Te  Te140  1  0.57100143  0.57969489  0.73427222  1
  Te  Te141  1  0.57470459  0.89300860  0.09139023  1
  Te  Te142  1  0.58577932  0.91850782  0.42449365  1
  Te  Te143  1  0.59348817  0.91446477  0.74262118  1
  Te  Te144  1  0.91079825  0.25421698  0.08040330  1
  Te  Te145  1  0.90433173  0.26553136  0.41394550  1
  Te  Te146  1  0.91607564  0.24907059  0.77544109  1
  Te  Te147  1  0.91859231  0.55645590  0.09137072  1
  Te  Te148  1  0.90177019  0.58951564  0.43679472  1
  Te  Te149  1  0.90518703  0.60324279  0.73927187  1
  Te  Te150  1  0.91313375  0.94214314  0.08173909  1
  Te  Te151  1  0.90423308  0.87188950  0.43630361  1
  Te  Te152  1  0.90190728  0.89505911  0.75039608  1
  Te  Te153  1  0.24863401  0.08713189  0.27546309  1
  Te  Te154  1  0.24110148  0.11359038  0.55949151  1
  Te  Te155  1  0.24634886  0.07455044  0.90304321  1
  Te  Te156  1  0.26811826  0.43482542  0.24059378  1
  Te  Te157  1  0.25487428  0.43840590  0.58435525  1
  Te  Te158  1  0.26551542  0.41105841  0.91345139  1
  Te  Te159  1  0.25932384  0.75110293  0.25406240  1
  Te  Te160  1  0.26526067  0.74936126  0.59478585  1
  Te  Te161  1  0.23191422  0.72946528  0.88383006  1
  Te  Te162  1  0.57707981  0.09250249  0.26845321  1
  Te  Te163  1  0.59781821  0.06893770  0.59704010  1
  Te  Te164  1  0.58748206  0.08439703  0.90405477  1
  Te  Te165  1  0.59664340  0.41717050  0.24566824  1
  Te  Te166  1  0.52443360  0.43855354  0.55495997  1
  Te  Te167  1  0.60795737  0.42817585  0.91207068  1
  Te  Te168  1  0.60070240  0.77044547  0.19012046  1
  Te  Te169  1  0.58335222  0.78086587  0.56969369  1
  Te  Te170  1  0.57311017  0.71002170  0.93778467  1
  Te  Te171  1  0.91177316  0.06034444  0.24741717  1
  Te  Te172  1  0.92124673  0.08343315  0.57338760  1
  Te  Te173  1  0.93252747  0.08895597  0.91866855  1
  Te  Te174  1  0.93296687  0.41629221  0.26750755  1
  Te  Te175  1  0.93594498  0.44686211  0.56764578  1
  Te  Te176  1  0.90746483  0.41063055  0.91575272  1
  Te  Te177  1  0.91653030  0.75931321  0.23745383  1
  Te  Te178  1  0.89277475  0.76876040  0.55205976  1
  Te  Te179  1  0.90276368  0.73490251  0.93646924  1
