# generated using pymatgen
data_In2Te3
_symmetry_space_group_name_H-M   'P 1'
_cell_length_a   19.02006855
_cell_length_b   19.02144207
_cell_length_c   19.02271922
_cell_angle_alpha   89.84044162
_cell_angle_beta   90.00693007
_cell_angle_gamma   90.12482509
_symmetry_Int_Tables_number   1
_chemical_formula_structural   In2Te3
_chemical_formula_sum   'In72 Te108'
_cell_volume   6882.17001017
_cell_formula_units_Z   36
loop_
 _symmetry_equiv_pos_site_id
 _symmetry_equiv_pos_as_xyz
  1  'x, y, z'
loop_
 _atom_site_type_symbol
 _atom_site_label
 _atom_site_symmetry_multiplicity
 _atom_site_fract_x
 _atom_site_fract_y
 _atom_site_fract_z
 _atom_site_occupancy
  In  In0  1  0.50735248  0.48139142  0.34250289  1
  In  In1  1  0.53463665  0.48201628  0.02986683  1
  In  In2  1  -0.02139375  0.48805328  0.16994026  1
  In  In3  1  0.00383312  0.00201565  0.35118186  1
  In  In4  1  0.66186696  0.17335015  0.51255740  1
  In  In5  1  0.50441520  0.70479711  0.49096275  1
  In  In6  1  0.83574944  0.66279169  0.50918303  1
  In  In7  1  0.83717901  -0.04064507  0.16644996  1
  In  In8  1  0.01723593  -0.02061916  0.64168412  1
  In  In9  1  0.67145183  0.81393004  0.17931689  1
  In  In10  1  0.18312308  0.83527842  -0.01410473  1
  In  In11  1  0.16598067  0.48052129  -0.02125089  1
  In  In12  1  0.30797827  0.04323402  -0.00846595  1
  In  In13  1  0.32884097  0.68672905  0.65694329  1
  In  In14  1  0.00003551  0.68166122  0.66206669  1
  In  In15  1  0.47884410  0.33945111  0.85003041  1
  In  In16  1  0.15884868  0.64037785  0.15892967  1
  In  In17  1  0.33459403  0.17605527  0.16138568  1
  In  In18  1  0.82813172  0.31531441  0.84374379  1
  In  In19  1  0.48961716  0.83873780  0.36268570  1
  In  In20  1  0.48192057  0.66977235  0.81138285  1
  In  In21  1  0.16878643  0.67868391  0.51022062  1
  In  In22  1  0.50015755  0.31468079  0.50847376  1
  In  In23  1  0.83973979  0.01748088  0.52166613  1
  In  In24  1  0.81387568  0.50162690  0.64793570  1
  In  In25  1  0.85800723  0.04688596  0.76365229  1
  In  In26  1  0.30677161  0.50166970  0.53437038  1
  In  In27  1  0.81113974  0.35460479  0.15200115  1
  In  In28  1  0.00909988  0.15150153  0.16761734  1
  In  In29  1  0.33984270  0.14529196  0.48620426  1
  In  In30  1  0.14245895  0.49591107  0.69451996  1
  In  In31  1  0.15746005  0.32157077  0.51758935  1
  In  In32  1  0.66393838  0.84078542  0.78102572  1
  In  In33  1  0.16742865  0.88978619  0.41820852  1
  In  In34  1  0.33277735  0.49234010  0.17221699  1
  In  In35  1  -0.00159911  0.31807986  -0.01652108  1
  In  In36  1  0.31825793  0.30128884  -0.01435095  1
  In  In37  1  0.16399117  0.49318357  0.32902691  1
  In  In38  1  0.33050633  -0.00147629  0.66392489  1
  In  In39  1  0.32007437  0.84791007  0.81611577  1
  In  In40  1  0.15438571  0.15434226  0.32386847  1
  In  In41  1  0.50259465  0.83775105  -0.00696684  1
  In  In42  1  0.67146168  0.65042680  0.32789092  1
  In  In43  1  0.01248595  0.16473182  0.83058407  1
  In  In44  1  0.53130835  0.49826096  0.65980733  1
  In  In45  1  0.81365470  0.65349747  0.18062919  1
  In  In46  1  0.34893973  0.49830384  0.82505955  1
  In  In47  1  0.83791759  0.82208019  0.33277047  1
  In  In48  1  0.34963512  0.81327682  0.14662302  1
  In  In49  1  0.83121030  0.17812539  0.34523816  1
  In  In50  1  0.50409050  0.00247941  0.84042690  1
  In  In51  1  -0.02787018  0.50017131  0.48344250  1
  In  In52  1  0.66685090  0.85856196  0.52203208  1
  In  In53  1  0.00974134  0.64750875  0.00171514  1
  In  In54  1  0.35732225  0.66993782  0.32733246  1
  In  In55  1  0.82260162  0.16680743  -0.02096893  1
  In  In56  1  0.67242011  -0.01341124  -0.02291236  1
  In  In57  1  0.85160929  0.84737748  -0.01361640  1
  In  In58  1  0.34845133  0.69426988  -0.00634136  1
  In  In59  1  0.49265133  0.16675780  0.66276703  1
  In  In60  1  0.17029083  0.01025618  0.18541296  1
  In  In61  1  0.67537350  0.32000230  0.66772303  1
  In  In62  1  0.16716949  0.18043571  0.68607763  1
  In  In63  1  0.49722083  0.00221195  0.19468806  1
  In  In64  1  0.02524764  0.84870276  0.82086301  1
  In  In65  1  0.80253749  0.34122123  0.47904174  1
  In  In66  1  0.52390501  0.34145284  0.17839010  1
  In  In67  1  0.65259317  0.65219052  -0.00169605  1
  In  In68  1  -0.02737518  0.48806935  0.84025785  1
  In  In69  1  0.65526824  0.16487157  0.14833636  1
  In  In70  1  0.81049126  0.68325528  0.83673262  1
  In  In71  1  0.33858680  0.33934244  0.32141030  1
  Te  Te72  1  0.09388776  0.07376605  0.07845984  1
  Te  Te73  1  0.07768760  0.09690623  0.43494269  1
  Te  Te74  1  0.08934150  0.06339418  0.74818900  1
  Te  Te75  1  0.07535059  0.41308803  0.07596720  1
  Te  Te76  1  0.07912378  0.41018300  0.42090677  1
  Te  Te77  1  0.05772923  0.39487994  0.76230849  1
  Te  Te78  1  0.09319804  0.74864353  0.07664497  1
  Te  Te79  1  0.10718017  0.75605048  0.40328853  1
  Te  Te80  1  0.10171861  0.75351751  0.73841721  1
  Te  Te81  1  0.42287203  0.07933653  0.08561756  1
  Te  Te82  1  0.43701314  0.03758672  0.45160831  1
  Te  Te83  1  0.40699024  0.08764192  0.76097466  1
  Te  Te84  1  0.40942457  0.40124762  0.08069049  1
  Te  Te85  1  0.40027542  0.42238432  0.43614547  1
  Te  Te86  1  0.42424123  0.41451192  0.72523758  1
  Te  Te87  1  0.45945849  0.72713165  0.08985421  1
  Te  Te88  1  0.37533763  0.76601750  0.44132234  1
  Te  Te89  1  0.42414519  0.78272822  0.72869038  1
  Te  Te90  1  0.76132035  0.05942492  0.07889227  1
  Te  Te91  1  0.74560088  0.08185134  0.42236240  1
  Te  Te92  1  0.74849815  0.13793204  0.74170582  1
  Te  Te93  1  0.70601858  0.44142631  0.09977481  1
  Te  Te94  1  0.73878665  0.43068829  0.38327368  1
  Te  Te95  1  0.75129079  0.41602198  0.75494174  1
  Te  Te96  1  0.75057189  0.75788145  0.06393229  1
  Te  Te97  1  0.73160536  0.75579185  0.41921175  1
  Te  Te98  1  0.74757714  0.73893044  0.71900247  1
  Te  Te99  1  0.06945957  0.25026870  0.25546726  1
  Te  Te100  1  0.06528642  0.23615656  0.59347537  1
  Te  Te101  1  0.10415974  0.23030816  0.92775192  1
  Te  Te102  1  0.06346802  0.58058784  0.25823318  1
  Te  Te103  1  0.08324681  0.56617575  0.57338614  1
  Te  Te104  1  0.08658847  0.57609620  0.89362085  1
  Te  Te105  1  0.10237030  0.91416970  0.27750943  1
  Te  Te106  1  0.11162161  0.89953886  0.55963590  1
  Te  Te107  1  0.10349540  0.93219560  0.91201133  1
  Te  Te108  1  0.43377036  0.24512284  0.25586580  1
  Te  Te109  1  0.39017334  0.24881713  0.58624453  1
  Te  Te110  1  0.43653053  0.23067823  0.93885683  1
  Te  Te111  1  0.43740343  0.57286378  0.24283584  1
  Te  Te112  1  0.42055567  0.58891417  0.58441733  1
  Te  Te113  1  0.42806989  0.58115599  0.92568116  1
  Te  Te114  1  0.40018454  0.90493201  0.25618064  1
  Te  Te115  1  0.39129533  0.92494154  0.54829532  1
  Te  Te116  1  0.39512365  0.92119700  0.92843022  1
  Te  Te117  1  0.74652521  0.24573603  0.24054182  1
  Te  Te118  1  0.77229376  0.21721131  0.61448159  1
  Te  Te119  1  0.72345112  0.26226144  0.93267553  1
  Te  Te120  1  0.78054102  0.55389503  0.29036297  1
  Te  Te121  1  0.72698790  0.58368559  0.56594967  1
  Te  Te122  1  0.75657094  0.58192956  0.92529129  1
  Te  Te123  1  0.73451622  0.91641338  0.26870983  1
  Te  Te124  1  0.75414736  0.93744294  0.61009805  1
  Te  Te125  1  0.75908307  0.90847385  0.88359370  1
  Te  Te126  1  0.22929927  0.23976471  0.08396026  1
  Te  Te127  1  0.25285363  0.25505809  0.41377211  1
  Te  Te128  1  0.26505860  0.23411889  0.78178940  1
  Te  Te129  1  0.25987439  0.57929890  0.06326440  1
  Te  Te130  1  0.25909655  0.57923601  0.40967483  1
  Te  Te131  1  0.25506491  0.58569235  0.74508286  1
  Te  Te132  1  0.26099978  0.92147728  0.08632456  1
  Te  Te133  1  0.29221194  0.97392457  0.43560919  1
  Te  Te134  1  0.22807575  0.94491030  0.75827606  1
  Te  Te135  1  0.58531955  0.26630703  0.06846187  1
  Te  Te136  1  0.57929360  0.24193892  0.41201288  1
  Te  Te137  1  0.57140275  0.25718004  0.75511552  1
  Te  Te138  1  0.61753903  0.56747046  0.11953259  1
  Te  Te139  1  0.57582835  0.58617751  0.42698088  1
  Te  Te140  1  0.58876329  0.58177343  0.76478403  1
  Te  Te141  1  0.58746530  0.91551023  0.09124303  1
  Te  Te142  1  0.57944624  0.93451508  0.42786555  1
  Te  Te143  1  0.57686007  0.94527109  0.72659188  1
  Te  Te144  1  0.90967367  0.23900825  0.08146881  1
  Te  Te145  1  0.91404153  0.26375270  0.42797177  1
  Te  Te146  1  0.94187112  0.27385627  0.75874470  1
  Te  Te147  1  0.89983292  0.57883204  0.07817313  1
  Te  Te148  1  0.91559836  0.60531858  0.39943161  1
  Te  Te149  1  0.91149113  0.58358389  0.73749587  1
  Te  Te150  1  0.94310412  0.90647424  0.08253512  1
  Te  Te151  1  0.90890058  0.91424611  0.42869682  1
  Te  Te152  1  0.91596977  0.91116638  0.73429254  1
  Te  Te153  1  0.27479982  0.08314357  0.26620908  1
  Te  Te154  1  0.23912734  0.09082038  0.58433660  1
  Te  Te155  1  0.24025448  0.13578990  0.89016305  1
  Te  Te156  1  0.23082923  0.39807919  0.23196388  1
  Te  Te157  1  0.23672532  0.40034431  0.62035329  1
  Te  Te158  1  0.24975693  0.39988537  0.88473232  1
  Te  Te159  1  0.25508986  0.73224986  0.23419715  1
  Te  Te160  1  0.22203701  0.77853574  0.60605235  1
  Te  Te161  1  0.24803074  0.73621331  0.89144634  1
  Te  Te162  1  0.59595134  0.08749897  0.25772399  1
  Te  Te163  1  0.58546321  0.07687129  0.59470229  1
  Te  Te164  1  0.59388446  0.09072358  0.91418797  1
  Te  Te165  1  0.61452078  0.39747397  0.28423863  1
  Te  Te166  1  0.60504665  0.40787634  0.56362488  1
  Te  Te167  1  0.57390684  0.44317087  0.89595087  1
  Te  Te168  1  0.57039289  0.74711114  0.26731975  1
  Te  Te169  1  0.57901018  0.76670968  0.59861350  1
  Te  Te170  1  0.58584411  0.75903685  0.89731383  1
  Te  Te171  1  0.90572478  0.06894694  0.25459880  1
  Te  Te172  1  0.95555816  0.09553461  0.57273269  1
  Te  Te173  1  0.91294037  0.07274143  0.90241256  1
  Te  Te174  1  0.90661096  0.39451266  0.25531574  1
  Te  Te175  1  0.90379043  0.40420268  0.57765150  1
  Te  Te176  1  0.89018055  0.41562313  0.94254058  1
  Te  Te177  1  0.91107852  0.75010650  0.22907149  1
  Te  Te178  1  0.92705818  0.76154383  0.56607234  1
  Te  Te179  1  0.93922493  0.74330117  0.90451330  1
