# generated using pymatgen
data_In2Te3
_symmetry_space_group_name_H-M   'P 1'
_cell_length_a   18.76750876
_cell_length_b   18.77261700
_cell_length_c   18.76309298
_cell_angle_alpha   90.00644264
_cell_angle_beta   90.00003007
_cell_angle_gamma   90.00555155
_symmetry_Int_Tables_number   1
_chemical_formula_structural   In2Te3
_chemical_formula_sum   'In72 Te108'
_cell_volume   6610.52379695
_cell_formula_units_Z   36
loop_
 _symmetry_equiv_pos_site_id
 _symmetry_equiv_pos_as_xyz
  1  'x, y, z'
loop_
 _atom_site_type_symbol
 _atom_site_label
 _atom_site_symmetry_multiplicity
 _atom_site_fract_x
 _atom_site_fract_y
 _atom_site_fract_z
 _atom_site_occupancy
  In  In0  1  -0.00615158  0.81867830  0.50972707  1
  In  In1  1  -0.01003482  0.19923463  0.16840940  1
  In  In2  1  0.16327923  0.00394018  0.80145089  1
  In  In3  1  0.48954912  0.15601682  0.32549992  1
  In  In4  1  0.32681300  0.32783212  0.68279609  1
  In  In5  1  0.82641500  0.34075431  0.84357216  1
  In  In6  1  0.66240196  0.16601886  0.50844047  1
  In  In7  1  0.01059791  0.02199682  0.38131049  1
  In  In8  1  0.49711243  0.01473860  0.17703226  1
  In  In9  1  0.33160350  0.82727912  0.48864982  1
  In  In10  1  0.30322854  0.01502388  0.64223776  1
  In  In11  1  -0.00497788  0.15347964  0.81098381  1
  In  In12  1  0.17038920  0.66206771  0.82039064  1
  In  In13  1  0.32195243  0.00524983  0.35470632  1
  In  In14  1  0.81641630  0.47821117  0.38362074  1
  In  In15  1  0.32467607  0.51474716  0.14817542  1
  In  In16  1  0.36106430  0.51538198  0.51870231  1
  In  In17  1  0.34108937  0.83323513  0.15315660  1
  In  In18  1  0.49595056  0.81140967  -0.01062725  1
  In  In19  1  0.83669124  0.49600754  0.65904310  1
  In  In20  1  0.52028600  -0.01400589  0.49048292  1
  In  In21  1  0.35519622  0.49780768  0.80760251  1
  In  In22  1  0.64888650  0.00256253  0.35493194  1
  In  In23  1  0.84035553  0.48932875  -0.00247479  1
  In  In24  1  0.16313376  0.82745074  0.64740118  1
  In  In25  1  -0.00757010  0.32056512  0.34591419  1
  In  In26  1  0.17759959  -0.00176203  0.19770031  1
  In  In27  1  0.00239154  0.81838641  0.14801795  1
  In  In28  1  0.32590564  0.17296276  0.82540545  1
  In  In29  1  0.81618557  -0.01337150  0.81249803  1
  In  In30  1  0.50716406  0.17750752  0.66431322  1
  In  In31  1  0.50796358  0.33141637  0.81864566  1
  In  In32  1  0.49495864  0.68836810  0.17450907  1
  In  In33  1  -0.02347395  0.83371359  0.81028179  1
  In  In34  1  0.68219472  0.66807932  0.65420537  1
  In  In35  1  0.33292228  0.35100237  0.01240192  1
  In  In36  1  0.16151311  0.82280009  0.34173432  1
  In  In37  1  0.83383514  0.16194201  0.65115577  1
  In  In38  1  0.02158575  0.50699378  0.17930323  1
  In  In39  1  0.81968150  0.83472698  0.63054026  1
  In  In40  1  0.00939421  0.66665646  -0.02951946  1
  In  In41  1  -0.01214291  0.51058850  0.50769533  1
  In  In42  1  0.82193265  0.17848205  0.34776829  1
  In  In43  1  0.37421894  -0.00322614  -0.00080164  1
  In  In44  1  0.17545655  0.34848950  0.81887869  1
  In  In45  1  -0.00601152  0.00370261  -0.00780359  1
  In  In46  1  0.16624476  0.81029736  -0.00627319  1
  In  In47  1  0.34360309  0.66250314  0.33785877  1
  In  In48  1  0.00046860  0.35009988  0.01048964  1
  In  In49  1  0.51656531  -0.02168802  0.82667892  1
  In  In50  1  0.66193355  0.31993807  -0.00161597  1
  In  In51  1  0.51303341  0.15743608  0.02153710  1
  In  In52  1  0.13581544  0.33874702  0.18409124  1
  In  In53  1  0.82836696  0.01325456  0.16262843  1
  In  In54  1  0.14899657  0.50318829  0.65623562  1
  In  In55  1  0.66227409  0.52200442  0.80940673  1
  In  In56  1  0.34932145  0.33540502  0.36293473  1
  In  In57  1  0.14886132  0.31128293  0.51452834  1
  In  In58  1  0.68140408  0.01647616  -0.01425058  1
  In  In59  1  0.83623530  0.31608214  0.17009461  1
  In  In60  1  0.84253851  0.66617130  0.80313860  1
  In  In61  1  0.18185502  0.51784532  0.33536951  1
  In  In62  1  0.64976819  0.83449476  0.17796002  1
  In  In63  1  0.16803617  0.17027099  0.00204498  1
  In  In64  1  0.47926968  0.51873377  -0.00271951  1
  In  In65  1  0.81996058  0.66550665  0.18295848  1
  In  In66  1  0.64475016  0.67997799  -0.00646090  1
  In  In67  1  0.52014837  0.82843192  0.35991290  1
  In  In68  1  0.63955421  0.47430173  0.20868135  1
  In  In69  1  0.81138865  0.80730831  0.36612824  1
  In  In70  1  0.50063682  0.81331328  0.67776686  1
  In  In71  1  0.51866733  0.34418690  0.52179902  1
  Te  Te72  1  0.07639659  0.08560720  0.09440327  1
  Te  Te73  1  0.11038201  0.10676754  0.45070971  1
  Te  Te74  1  0.07188086  0.07483559  0.71065838  1
  Te  Te75  1  0.10756573  0.44019394  0.07200519  1
  Te  Te76  1  0.09243803  0.41656257  0.41391337  1
  Te  Te77  1  0.07595734  0.39197002  0.71960368  1
  Te  Te78  1  0.10199232  0.71443419  0.09371962  1
  Te  Te79  1  0.08619539  0.73085400  0.42878932  1
  Te  Te80  1  0.06919700  0.74124244  0.73476461  1
  Te  Te81  1  0.39437463  0.10371903  0.10394871  1
  Te  Te82  1  0.41742852  0.08720054  0.44108557  1
  Te  Te83  1  0.41313865  0.07736649  0.74505067  1
  Te  Te84  1  0.43737963  0.41453335  0.10207556  1
  Te  Te85  1  0.45187705  0.44689650  0.41433293  1
  Te  Te86  1  0.44726058  0.42202983  0.71125548  1
  Te  Te87  1  0.39220076  0.72031986  0.06147123  1
  Te  Te88  1  0.43814716  0.72502757  0.44044573  1
  Te  Te89  1  0.43504331  0.71824048  0.77092360  1
  Te  Te90  1  0.73905681  0.10432751  0.08937649  1
  Te  Te91  1  0.76207698  0.06876168  0.43840940  1
  Te  Te92  1  0.73813042  0.08636293  0.73588760  1
  Te  Te93  1  0.74287215  0.42327552  0.09366347  1
  Te  Te94  1  0.72725653  0.38837637  0.46416998  1
  Te  Te95  1  0.73532988  0.40973541  0.74034580  1
  Te  Te96  1  0.74328108  0.75598747  0.08551091  1
  Te  Te97  1  0.73944292  0.69985048  0.44967649  1
  Te  Te98  1  0.74585416  0.76917622  0.75056844  1
  Te  Te99  1  0.09297640  0.22660372  0.27871463  1
  Te  Te100  1  0.03568467  0.21600460  0.56371264  1
  Te  Te101  1  0.07952599  0.25425870  0.91071085  1
  Te  Te102  1  0.07737751  0.60409313  0.27515515  1
  Te  Te103  1  0.08671011  0.60450963  0.56731324  1
  Te  Te104  1  0.08725008  0.56584597  0.89849112  1
  Te  Te105  1  0.06432948  0.91404216  0.25561551  1
  Te  Te106  1  0.07279144  0.92390179  0.58160878  1
  Te  Te107  1  0.08041149  0.91272213  0.90327198  1
  Te  Te108  1  0.41555080  0.26088029  0.25247639  1
  Te  Te109  1  0.40898929  0.25244964  0.57576106  1
  Te  Te110  1  0.41402145  0.25621083  0.91858507  1
  Te  Te111  1  0.42780294  0.57312328  0.24895917  1
  Te  Te112  1  0.45383435  0.58288744  0.60995771  1
  Te  Te113  1  0.42832528  0.60674523  0.88571574  1
  Te  Te114  1  0.42155693  0.90736334  0.26539379  1
  Te  Te115  1  0.41517419  0.91881786  0.58381718  1
  Te  Te116  1  0.40551445  0.89560243  0.89323988  1
  Te  Te117  1  0.73804707  0.27171154  0.27017818  1
  Te  Te118  1  0.75453834  0.26752560  0.57054778  1
  Te  Te119  1  0.74275147  0.23754718  0.90830388  1
  Te  Te120  1  0.74845840  0.56264072  0.27043916  1
  Te  Te121  1  0.73617736  0.55967328  0.56144263  1
  Te  Te122  1  0.75411975  0.58735481  0.91641973  1
  Te  Te123  1  0.74958403  0.91504230  0.26190668  1
  Te  Te124  1  0.74824452  0.93708261  0.55177026  1
  Te  Te125  1  0.74432834  0.90544171  0.91496540  1
  Te  Te126  1  0.24172169  0.26173062  0.09673426  1
  Te  Te127  1  0.25407797  0.24037649  0.43153545  1
  Te  Te128  1  0.22068298  0.22723625  0.73082377  1
  Te  Te129  1  0.25073258  0.61895478  0.07998595  1
  Te  Te130  1  0.25439617  0.59693741  0.44357843  1
  Te  Te131  1  0.26060880  0.58313726  0.72280741  1
  Te  Te132  1  0.24226617  0.92433597  0.07767697  1
  Te  Te133  1  0.22399123  0.92363886  0.43768611  1
  Te  Te134  1  0.26130830  0.90544560  0.74195112  1
  Te  Te135  1  0.57540167  0.26235364  0.10326386  1
  Te  Te136  1  0.57602105  0.24964169  0.41414551  1
  Te  Te137  1  0.60693909  0.25552482  0.74004404  1
  Te  Te138  1  0.58889777  0.58300910  0.09788851  1
  Te  Te139  1  0.60603830  0.64260427  0.42655994  1
  Te  Te140  1  0.56301038  0.59580648  0.72286095  1
  Te  Te141  1  0.56962620  0.92037149  0.07850011  1
  Te  Te142  1  0.63479324  0.88163898  0.45873038  1
  Te  Te143  1  0.60071844  0.91371020  0.72528313  1
  Te  Te144  1  0.90031185  0.24202598  0.05280740  1
  Te  Te145  1  0.91071996  0.24839303  0.44911271  1
  Te  Te146  1  0.91203206  0.26184180  0.74347800  1
  Te  Te147  1  0.91808171  0.58770620  0.08594912  1
  Te  Te148  1  0.91008089  0.58959398  0.40767712  1
  Te  Te149  1  0.93541623  0.57341416  0.73930550  1
  Te  Te150  1  0.90431098  0.91201411  0.07546451  1
  Te  Te151  1  0.90820181  0.91444803  0.42157365  1
  Te  Te152  1  0.91795134  0.93164819  0.71282226  1
  Te  Te153  1  0.26095692  0.10113881  0.26016360  1
  Te  Te154  1  0.23598584  0.10528452  0.54569480  1
  Te  Te155  1  0.25182186  0.07276679  0.91790525  1
  Te  Te156  1  0.25758381  0.41206016  0.25454184  1
  Te  Te157  1  0.25568465  0.41100713  0.57302864  1
  Te  Te158  1  0.25792911  0.43777518  0.91194007  1
  Te  Te159  1  0.25464576  0.74656329  0.24694496  1
  Te  Te160  1  0.26879301  0.74004288  0.58958176  1
  Te  Te161  1  0.26043808  0.75049677  0.89898758  1
  Te  Te162  1  0.60715613  0.09657176  0.24196840  1
  Te  Te163  1  0.59152862  0.06675301  0.60154363  1
  Te  Te164  1  0.58153360  0.09671794  0.90016188  1
  Te  Te165  1  0.56547467  0.40265335  0.31241336  1
  Te  Te166  1  0.62086898  0.44778119  0.56050251  1
  Te  Te167  1  0.58107588  0.43351484  0.91525252  1
  Te  Te168  1  0.60650634  0.72425837  0.27735764  1
  Te  Te169  1  0.58271108  0.74480147  0.56904398  1
  Te  Te170  1  0.58178889  0.75326030  0.88206681  1
  Te  Te171  1  0.92152442  0.08945635  0.25957349  1
  Te  Te172  1  0.93570137  0.10239532  0.55697149  1
  Te  Te173  1  0.89916740  0.08388127  0.90746200  1
  Te  Te174  1  0.91820328  0.41783099  0.25262278  1
  Te  Te175  1  0.91276224  0.40113765  0.57206700  1
  Te  Te176  1  0.93896615  0.43287500  0.89697659  1
  Te  Te177  1  0.91475601  0.75717786  0.25956456  1
  Te  Te178  1  0.90603870  0.72477764  0.58448958  1
  Te  Te179  1  0.90116589  0.75770292  0.91936506  1
