# generated using pymatgen
data_In2Te3
_symmetry_space_group_name_H-M   'P 1'
_cell_length_a   18.89288626
_cell_length_b   18.88590343
_cell_length_c   18.89517426
_cell_angle_alpha   89.94266698
_cell_angle_beta   89.99178843
_cell_angle_gamma   90.08239598
_symmetry_Int_Tables_number   1
_chemical_formula_structural   In2Te3
_chemical_formula_sum   'In72 Te108'
_cell_volume   6741.96207138
_cell_formula_units_Z   36
loop_
 _symmetry_equiv_pos_site_id
 _symmetry_equiv_pos_as_xyz
  1  'x, y, z'
loop_
 _atom_site_type_symbol
 _atom_site_label
 _atom_site_symmetry_multiplicity
 _atom_site_fract_x
 _atom_site_fract_y
 _atom_site_fract_z
 _atom_site_occupancy
  In  In0  1  -0.04605911  0.19723398  0.46592450  1
  In  In1  1  -0.00966737  0.00075438  0.32695411  1
  In  In2  1  0.51190849  0.32681168  0.18745945  1
  In  In3  1  0.83009898  0.00561786  0.48898424  1
  In  In4  1  0.14654950  0.17164198  -0.00409614  1
  In  In5  1  0.33853706  0.48954714  0.83331976  1
  In  In6  1  0.68787845  0.68661141  0.02435301  1
  In  In7  1  -0.00366193  0.81736856  0.20648073  1
  In  In8  1  0.50983729  0.15285788  0.32030235  1
  In  In9  1  0.02392613  0.78153233  0.48182690  1
  In  In10  1  0.51270703  0.00393130  0.15035860  1
  In  In11  1  0.51448384  0.16143925  -0.00461167  1
  In  In12  1  0.32685841  0.64940773  -0.01826261  1
  In  In13  1  0.16051440  -0.01037134  0.15782163  1
  In  In14  1  0.82107020  0.82665415  0.33984607  1
  In  In15  1  0.15543718  0.81018504  0.02256265  1
  In  In16  1  0.52132834  0.82751877  0.34497224  1
  In  In17  1  0.82691229  0.33466017  0.83810169  1
  In  In18  1  0.00070843  0.01439121  0.67549157  1
  In  In19  1  0.33538177  -0.02815354  0.34477454  1
  In  In20  1  0.50837719  0.50923268  0.66060684  1
  In  In21  1  0.66646367  -0.00353380  -0.00662623  1
  In  In22  1  -0.00983091  0.51797076  0.47559411  1
  In  In23  1  0.83528024  0.17223547  -0.01202649  1
  In  In24  1  0.68891034  0.17732442  0.48985958  1
  In  In25  1  0.17617908  0.51004893  0.35022711  1
  In  In26  1  0.65615672  0.50991004  0.82071348  1
  In  In27  1  0.83094522  0.81822798  0.01060121  1
  In  In28  1  0.84750869  0.50099753  0.00672551  1
  In  In29  1  0.35718453  0.32242510  0.33074955  1
  In  In30  1  0.50307389  0.84788885  -0.00216495  1
  In  In31  1  -0.01530946  0.49136079  0.17653404  1
  In  In32  1  0.66379513  0.84732531  0.82636387  1
  In  In33  1  0.14983762  0.15255770  0.32149309  1
  In  In34  1  0.69948292  0.33677845  0.01589096  1
  In  In35  1  0.48080536  0.51436878  -0.00860755  1
  In  In36  1  0.51020561  -0.06104855  0.53972931  1
  In  In37  1  0.30791995  0.80721290  0.19087670  1
  In  In38  1  0.32964956  0.16900058  0.48459156  1
  In  In39  1  -0.02382035  0.67727834  0.65588325  1
  In  In40  1  0.84435844  0.32260683  0.16711075  1
  In  In41  1  0.69725964  0.02461271  0.67842016  1
  In  In42  1  0.35402627  0.82370326  0.83343140  1
  In  In43  1  0.70104712  0.63595339  0.32505366  1
  In  In44  1  0.52823576  0.33317762  0.81643305  1
  In  In45  1  0.48550208  0.50394476  0.34351441  1
  In  In46  1  0.67731766  0.32099991  0.65755011  1
  In  In47  1  -0.01771508  0.01888984  -0.02165507  1
  In  In48  1  0.12016474  0.54257441  -0.00534745  1
  In  In49  1  0.17502032  -0.02383802  0.50067293  1
  In  In50  1  0.16629472  0.50843419  0.67175645  1
  In  In51  1  0.33856951  0.68328118  0.67080248  1
  In  In52  1  0.50235628  0.66985368  0.16947020  1
  In  In53  1  0.16898682  -0.00274763  0.82348653  1
  In  In54  1  0.48773640  0.14780484  0.65363200  1
  In  In55  1  0.16337365  0.15782791  0.65998728  1
  In  In56  1  0.51524022  0.69896666  0.53427407  1
  In  In57  1  0.17234105  0.81656335  0.66383690  1
  In  In58  1  0.15640400  0.32029247  0.84786553  1
  In  In59  1  0.85168477  0.81910975  0.62861089  1
  In  In60  1  0.31859761  0.31194648  0.00971867  1
  In  In61  1  0.70272621  0.53512562  0.49157430  1
  In  In62  1  -0.01393963  0.34610610  0.67316436  1
  In  In63  1  0.34277081  0.51907713  0.17680219  1
  In  In64  1  0.84722030  0.68141113  0.82933063  1
  In  In65  1  0.84616307  -0.00606822  0.16966020  1
  In  In66  1  0.13422186  0.33142082  0.18887466  1
  In  In67  1  0.15360872  0.35701763  0.51635164  1
  In  In68  1  0.32053833  0.16397655  0.82541414  1
  In  In69  1  0.69509148  0.33614697  0.33624942  1
  In  In70  1  -0.02467251  0.82751339  0.83776803  1
  In  In71  1  0.48628750  0.35590584  0.49727977  1
  Te  Te72  1  0.06324267  0.08468189  0.08987358  1
  Te  Te73  1  0.07949945  0.07640456  0.43344245  1
  Te  Te74  1  0.07524530  0.10566549  0.77265792  1
  Te  Te75  1  0.07837042  0.42238238  0.07622072  1
  Te  Te76  1  0.07348001  0.40913943  0.40137459  1
  Te  Te77  1  0.08023213  0.42351087  0.76483983  1
  Te  Te78  1  0.07490970  0.73080644  0.11556476  1
  Te  Te79  1  0.09871753  0.70157867  0.37491318  1
  Te  Te80  1  0.07490087  0.74547463  0.75615766  1
  Te  Te81  1  0.41742934  0.08596348  0.07510409  1
  Te  Te82  1  0.42519969  0.07065264  0.41960261  1
  Te  Te83  1  0.40802477  0.07280405  0.75174237  1
  Te  Te84  1  0.41781504  0.41171343  0.08947230  1
  Te  Te85  1  0.37815958  0.43810398  0.42858703  1
  Te  Te86  1  0.42284267  0.40746103  0.73658557  1
  Te  Te87  1  0.40851339  0.74247901  0.07391270  1
  Te  Te88  1  0.42505592  0.77443508  0.44431800  1
  Te  Te89  1  0.44275189  0.78606569  0.71537232  1
  Te  Te90  1  0.75619507  0.08238435  0.08082311  1
  Te  Te91  1  0.76581228  0.09677530  0.39356204  1
  Te  Te92  1  0.79440485  0.10522237  0.75468714  1
  Te  Te93  1  0.75035750  0.44183787  0.11220989  1
  Te  Te94  1  0.77498105  0.41372612  0.43870456  1
  Te  Te95  1  0.75087375  0.42688315  0.73867302  1
  Te  Te96  1  0.77860392  0.74293106  0.12731190  1
  Te  Te97  1  0.71233711  0.75584140  0.41245760  1
  Te  Te98  1  0.75420575  0.76117842  0.73816006  1
  Te  Te99  1  0.04523529  0.23142460  0.25205519  1
  Te  Te100  1  0.06958881  0.24559761  0.57684134  1
  Te  Te101  1  0.04729118  0.25570337  0.92565330  1
  Te  Te102  1  0.08487116  0.57384358  0.25189439  1
  Te  Te103  1  0.07816717  0.58985131  0.57988546  1
  Te  Te104  1  0.04581147  0.61679075  0.89618378  1
  Te  Te105  1  0.09931366  0.90992379  0.27192714  1
  Te  Te106  1  0.06866033  0.90383401  0.59036770  1
  Te  Te107  1  0.08321828  0.91222795  0.91800313  1
  Te  Te108  1  0.40843793  0.22237090  0.22889889  1
  Te  Te109  1  0.40681204  0.25716545  0.58152051  1
  Te  Te110  1  0.41775237  0.26366013  0.90434306  1
  Te  Te111  1  0.40620178  0.61537894  0.27504906  1
  Te  Te112  1  0.41377374  0.59044444  0.57502178  1
  Te  Te113  1  0.43141054  0.60375424  0.88018942  1
  Te  Te114  1  0.42327243  0.89759958  0.23893716  1
  Te  Te115  1  0.39397716  0.88916651  0.61076196  1
  Te  Te116  1  0.41699088  0.92931912  0.91281810  1
  Te  Te117  1  0.73723076  0.24329736  0.23153030  1
  Te  Te118  1  0.77993908  0.24643860  0.58321559  1
  Te  Te119  1  0.72602325  0.24000135  0.90410846  1
  Te  Te120  1  0.78340384  0.57269758  0.21976215  1
  Te  Te121  1  0.75032314  0.61840026  0.60371656  1
  Te  Te122  1  0.74985976  0.59030132  0.91626082  1
  Te  Te123  1  0.75147886  0.93166567  0.26336021  1
  Te  Te124  1  0.74618027  0.91696845  0.57758585  1
  Te  Te125  1  0.76946599  0.91607945  0.91315650  1
  Te  Te126  1  0.22824704  0.23913913  0.10565836  1
  Te  Te127  1  0.23571244  0.25687428  0.40387532  1
  Te  Te128  1  0.24413120  0.26164348  0.73714038  1
  Te  Te129  1  0.23981423  0.58450849  0.08729940  1
  Te  Te130  1  0.23192740  0.62973752  0.41937489  1
  Te  Te131  1  0.25224813  0.59367637  0.76351559  1
  Te  Te132  1  0.26073735  0.90415261  0.08201729  1
  Te  Te133  1  0.25723907  0.87879107  0.42787486  1
  Te  Te134  1  0.26079838  0.91390778  0.73903287  1
  Te  Te135  1  0.59752324  0.24795980  0.09055761  1
  Te  Te136  1  0.57114730  0.26185511  0.41291681  1
  Te  Te137  1  0.59382884  0.22284776  0.73810918  1
  Te  Te138  1  0.58500366  0.58086053  0.07944436  1
  Te  Te139  1  0.57733095  0.59448764  0.42379907  1
  Te  Te140  1  0.57812291  0.60777599  0.74490188  1
  Te  Te141  1  0.60882776  0.89727296  0.09372957  1
  Te  Te142  1  0.59501626  0.92943286  0.42187899  1
  Te  Te143  1  0.59068706  0.95075279  0.75021406  1
  Te  Te144  1  0.92541749  0.26975550  0.05398511  1
  Te  Te145  1  0.87265992  0.29749128  0.39242981  1
  Te  Te146  1  0.89673557  0.24501502  0.73948401  1
  Te  Te147  1  0.89792479  0.59778625  0.11150111  1
  Te  Te148  1  0.89464602  0.60371629  0.39776660  1
  Te  Te149  1  0.90858297  0.57964500  0.74339231  1
  Te  Te150  1  0.93975546  0.90786673  0.08331239  1
  Te  Te151  1  0.93317814  0.90011626  0.42801647  1
  Te  Te152  1  0.90362861  0.91475808  0.73780921  1
  Te  Te153  1  0.25389464  0.06560526  0.25388979  1
  Te  Te154  1  0.26154490  0.07264399  0.58205840  1
  Te  Te155  1  0.24543474  0.07869806  0.92746989  1
  Te  Te156  1  0.25969723  0.40961987  0.24385523  1
  Te  Te157  1  0.25739659  0.42208748  0.59425978  1
  Te  Te158  1  0.24423182  0.42046948  0.93183938  1
  Te  Te159  1  0.21911521  0.72484304  0.27488697  1
  Te  Te160  1  0.23750978  0.72406993  0.56854404  1
  Te  Te161  1  0.24100993  0.75127296  0.91009406  1
  Te  Te162  1  0.60348906  0.06890331  0.24627462  1
  Te  Te163  1  0.59282305  0.08150158  0.56550334  1
  Te  Te164  1  0.58363346  0.07378086  0.89948666  1
  Te  Te165  1  0.59085040  0.43013565  0.26515654  1
  Te  Te166  1  0.60115026  0.42626611  0.56863111  1
  Te  Te167  1  0.58733874  0.41551785  0.93137761  1
  Te  Te168  1  0.60552187  0.73997619  0.25276605  1
  Te  Te169  1  0.64295661  0.72926398  0.60176400  1
  Te  Te170  1  0.59307003  0.75175708  0.92175759  1
  Te  Te171  1  0.92221416  0.10047051  0.24257685  1
  Te  Te172  1  0.91726512  0.09405403  0.57632572  1
  Te  Te173  1  0.88916060  0.08130214  0.87894877  1
  Te  Te174  1  0.91111754  0.40418335  0.27433496  1
  Te  Te175  1  0.92073772  0.44272329  0.58362957  1
  Te  Te176  1  0.92218183  0.42361184  0.90762979  1
  Te  Te177  1  0.91941665  0.71991769  0.29566115  1
  Te  Te178  1  0.87930325  0.70073673  0.53034488  1
  Te  Te179  1  0.94249402  0.72262596  0.94851081  1
