# generated using pymatgen
data_In2Te3
_symmetry_space_group_name_H-M   'P 1'
_cell_length_a   18.80779855
_cell_length_b   18.81043061
_cell_length_c   18.82321220
_cell_angle_alpha   89.99002818
_cell_angle_beta   89.87883519
_cell_angle_gamma   90.05252701
_symmetry_Int_Tables_number   1
_chemical_formula_structural   In2Te3
_chemical_formula_sum   'In72 Te108'
_cell_volume   6659.31073200
_cell_formula_units_Z   36
loop_
 _symmetry_equiv_pos_site_id
 _symmetry_equiv_pos_as_xyz
  1  'x, y, z'
loop_
 _atom_site_type_symbol
 _atom_site_label
 _atom_site_symmetry_multiplicity
 _atom_site_fract_x
 _atom_site_fract_y
 _atom_site_fract_z
 _atom_site_occupancy
  In  In0  1  0.85266366  0.46080189  0.33931372  1
  In  In1  1  0.47522411  0.31690226  0.17931046  1
  In  In2  1  0.85032644  0.66360975  0.15424137  1
  In  In3  1  0.14465835  0.14158537  0.02956278  1
  In  In4  1  0.34360027  0.50623635  0.50260832  1
  In  In5  1  0.49331942  0.00618778  0.17485383  1
  In  In6  1  0.50025337  0.15702686  0.01341137  1
  In  In7  1  0.18931354  0.51482652  0.70237322  1
  In  In8  1  -0.00497678  0.49894142  0.48486203  1
  In  In9  1  0.66829354  0.66363865  -0.00613292  1
  In  In10  1  0.16242628  0.49228278  0.31754672  1
  In  In11  1  0.66327435  0.84370461  0.19748157  1
  In  In12  1  0.53961381  0.33625892  0.49617896  1
  In  In13  1  -0.01085283  0.26659732  0.32746263  1
  In  In14  1  0.82469433  0.85065934  0.33644001  1
  In  In15  1  0.32229780  0.67156321  0.67682399  1
  In  In16  1  0.32073359  0.31667075  0.32597462  1
  In  In17  1  0.49258603  0.52340872  0.32591861  1
  In  In18  1  0.84973334  0.48960285  0.65238955  1
  In  In19  1  0.68365679  0.63779635  0.67358855  1
  In  In20  1  -0.02852639  0.02027110  0.63952744  1
  In  In21  1  0.33465753  0.67830708  0.32731517  1
  In  In22  1  0.65137547  0.82951560  0.82592725  1
  In  In23  1  0.66506132  0.47371136  0.15805713  1
  In  In24  1  0.67023775  0.50790487  0.84581673  1
  In  In25  1  0.67923187  0.16299924  0.49135794  1
  In  In26  1  0.69262372  0.31707071  0.00615290  1
  In  In27  1  0.32286139  0.84576228  0.15396666  1
  In  In28  1  0.67082408  0.01808674  0.00258057  1
  In  In29  1  0.13728498  0.67969236  0.50207720  1
  In  In30  1  -0.00346699  0.66303691  0.00264824  1
  In  In31  1  0.15156112  0.84401459  0.67142072  1
  In  In32  1  0.00977934  0.68432701  0.67774413  1
  In  In33  1  0.36944105  0.33796286  0.69199197  1
  In  In34  1  0.16181879  -0.01235487  0.83468470  1
  In  In35  1  0.16532489  0.31981370  0.51933390  1
  In  In36  1  0.47271569  0.83022604  0.00401777  1
  In  In37  1  0.83189599  0.83797480  0.65786824  1
  In  In38  1  0.00888330  0.50963520  0.84997661  1
  In  In39  1  0.64651527  0.31728729  0.64933442  1
  In  In40  1  0.83850265  0.32568150  0.83699375  1
  In  In41  1  0.84818866  0.16274807  0.01336034  1
  In  In42  1  -0.00011052  0.83981210  0.49691865  1
  In  In43  1  0.66761463  0.85656116  0.48690263  1
  In  In44  1  0.83861096  -0.00472746  0.82253348  1
  In  In45  1  0.51028292  0.67152746  0.51325064  1
  In  In46  1  0.51026297  0.35171875  0.81433861  1
  In  In47  1  0.66643037  0.01155006  0.32870753  1
  In  In48  1  0.18042404  0.17134676  0.63814028  1
  In  In49  1  0.30742593  0.01801543  0.30376883  1
  In  In50  1  0.17065735  0.86274401  0.01184464  1
  In  In51  1  0.49789671  0.16454836  0.66040715  1
  In  In52  1  0.04176775  0.34315174  0.03804988  1
  In  In53  1  -0.00026290  0.86724616  0.18077185  1
  In  In54  1  0.48393431  0.85455210  0.64710891  1
  In  In55  1  0.33518673  0.14850519  0.48476322  1
  In  In56  1  0.71046768  0.29268791  0.32226194  1
  In  In57  1  0.01203883  0.31108128  0.64295851  1
  In  In58  1  0.17680457  0.35478664  0.85254878  1
  In  In59  1  0.32069305  0.87037417  0.47900618  1
  In  In60  1  0.47230816  0.51790245  -0.01940785  1
  In  In61  1  0.47931168  0.67166905  0.17457050  1
  In  In62  1  0.31161083  0.32665645  0.01891608  1
  In  In63  1  0.33217760  0.83858956  0.84705227  1
  In  In64  1  0.82031572  0.49152721  0.01733242  1
  In  In65  1  0.34538089  0.16853846  0.83987830  1
  In  In66  1  -0.00685682  0.16593345  0.83034856  1
  In  In67  1  0.66625813  0.65785975  0.33936458  1
  In  In68  1  0.66469367  -0.00810902  0.66541609  1
  In  In69  1  0.01434891  0.03864850  0.32867899  1
  In  In70  1  0.16585156  0.64854682  0.16587093  1
  In  In71  1  0.86451034  0.82903998  0.00418911  1
  Te  Te72  1  0.04891360  0.09503340  0.13829719  1
  Te  Te73  1  0.10688387  0.11548762  0.41839462  1
  Te  Te74  1  0.08465155  0.08794729  0.73634876  1
  Te  Te75  1  0.13693118  0.43493734  0.10357810  1
  Te  Te76  1  0.08350441  0.39376624  0.41134820  1
  Te  Te77  1  0.07293337  0.40611905  0.74661071  1
  Te  Te78  1  0.07391153  0.76051101  0.09393851  1
  Te  Te79  1  0.07712049  0.76134423  0.39746756  1
  Te  Te80  1  0.10617624  0.74480934  0.77013529  1
  Te  Te81  1  0.39926627  0.06666190  0.07637525  1
  Te  Te82  1  0.41924659  0.08705599  0.37749728  1
  Te  Te83  1  0.40537289  0.08089308  0.73887327  1
  Te  Te84  1  0.41470433  0.42137032  0.08641650  1
  Te  Te85  1  0.41461229  0.41013132  0.40865993  1
  Te  Te86  1  0.40402504  0.45132165  0.78259954  1
  Te  Te87  1  0.38204848  0.72729605  0.07281865  1
  Te  Te88  1  0.41558996  0.75593413  0.42995597  1
  Te  Te89  1  0.42342884  0.75958335  0.74917904  1
  Te  Te90  1  0.73808853  0.10723692  0.10186312  1
  Te  Te91  1  0.77560438  0.08858480  0.39975636  1
  Te  Te92  1  0.75575864  0.08179387  0.73856451  1
  Te  Te93  1  0.77788498  0.38110529  0.11581836  1
  Te  Te94  1  0.74092383  0.40216566  0.41525536  1
  Te  Te95  1  0.74812336  0.41444834  0.75208055  1
  Te  Te96  1  0.74121138  0.75568070  0.09180869  1
  Te  Te97  1  0.75498832  0.74694832  0.42518871  1
  Te  Te98  1  0.75759039  0.74620012  0.75457529  1
  Te  Te99  1  0.09510089  0.21360216  0.23023365  1
  Te  Te100  1  0.05735411  0.20077623  0.54174216  1
  Te  Te101  1  0.08897759  0.24643884  0.92049512  1
  Te  Te102  1  0.06951782  0.59308755  0.26498912  1
  Te  Te103  1  0.08445562  0.56620752  0.59374058  1
  Te  Te104  1  0.10351264  0.58129315  0.93642440  1
  Te  Te105  1  0.10374178  0.93217247  0.26621048  1
  Te  Te106  1  0.08573400  0.94005634  0.57320448  1
  Te  Te107  1  0.06628664  0.92447349  0.92654728  1
  Te  Te108  1  0.41299952  0.21365443  0.26683586  1
  Te  Te109  1  0.41272974  0.26006381  0.56635948  1
  Te  Te110  1  0.42415321  0.27006050  0.92162424  1
  Te  Te111  1  0.38080924  0.56751054  0.23296450  1
  Te  Te112  1  0.42515847  0.58270894  0.60486700  1
  Te  Te113  1  0.39114274  0.59265027  0.88519409  1
  Te  Te114  1  0.41280580  0.90770058  0.25834159  1
  Te  Te115  1  0.41137265  0.95145302  0.56302118  1
  Te  Te116  1  0.41002574  0.93746515  0.92633251  1
  Te  Te117  1  0.78832253  0.19806509  0.23796356  1
  Te  Te118  1  0.75744988  0.25039131  0.58168728  1
  Te  Te119  1  0.75161493  0.22073777  0.90505048  1
  Te  Te120  1  0.74603332  0.58040726  0.23431011  1
  Te  Te121  1  0.76261894  0.57330363  0.56869827  1
  Te  Te122  1  0.77765331  0.59467605  0.91367617  1
  Te  Te123  1  0.77168468  0.94367774  0.22909778  1
  Te  Te124  1  0.76885002  0.93926015  0.56435544  1
  Te  Te125  1  0.74870853  0.90507650  0.91819711  1
  Te  Te126  1  0.25335789  0.21802577  0.10556345  1
  Te  Te127  1  0.22658627  0.22646620  0.40680609  1
  Te  Te128  1  0.24494926  0.25668338  0.74840899  1
  Te  Te129  1  0.22668815  0.55758356  0.06491836  1
  Te  Te130  1  0.24334188  0.58758900  0.42163034  1
  Te  Te131  1  0.25716466  0.60878231  0.79896724  1
  Te  Te132  1  0.25197908  0.95963236  0.09027617  1
  Te  Te133  1  0.21903901  0.93013130  0.38904347  1
  Te  Te134  1  0.26174446  0.92407604  0.73901328  1
  Te  Te135  1  0.58649387  0.25111227  0.09736089  1
  Te  Te136  1  0.58550526  0.23535149  0.39354376  1
  Te  Te137  1  0.58971514  0.23223609  0.76239872  1
  Te  Te138  1  0.57740644  0.58273477  0.09061757  1
  Te  Te139  1  0.58982023  0.56650750  0.43558027  1
  Te  Te140  1  0.57909604  0.58931410  0.76484184  1
  Te  Te141  1  0.58455884  0.90594936  0.08118446  1
  Te  Te142  1  0.57134022  0.92348801  0.40008542  1
  Te  Te143  1  0.56041370  0.93078119  0.75884447  1
  Te  Te144  1  0.93344335  0.25667699  0.09018515  1
  Te  Te145  1  0.88640431  0.20348678  0.41896963  1
  Te  Te146  1  0.90617723  0.23928464  0.73082292  1
  Te  Te147  1  0.93676027  0.55338289  0.09480567  1
  Te  Te148  1  0.91595031  0.58312388  0.39439661  1
  Te  Te149  1  0.91958375  0.58383208  0.75143838  1
  Te  Te150  1  0.90507966  0.93888494  0.09172255  1
  Te  Te151  1  0.92315225  0.93829770  0.41060711  1
  Te  Te152  1  0.93686592  0.91041105  0.74157822  1
  Te  Te153  1  0.22277376  0.12060396  0.23173987  1
  Te  Te154  1  0.25889854  0.06149338  0.57834849  1
  Te  Te155  1  0.23932107  0.09045738  0.91766110  1
  Te  Te156  1  0.23751914  0.39556611  0.22948489  1
  Te  Te157  1  0.25538392  0.41969310  0.59513110  1
  Te  Te158  1  0.26091561  0.44184198  0.93688424  1
  Te  Te159  1  0.23630716  0.75941724  0.24765602  1
  Te  Te160  1  0.24941379  0.75944234  0.57320234  1
  Te  Te161  1  0.24603645  0.75953575  0.93770190  1
  Te  Te162  1  0.59111216  0.09795405  0.23512828  1
  Te  Te163  1  0.57974166  0.07500643  0.56757917  1
  Te  Te164  1  0.57557024  0.08122867  0.91091302  1
  Te  Te165  1  0.57323512  0.40975307  0.26053861  1
  Te  Te166  1  0.56455487  0.43122962  0.60585294  1
  Te  Te167  1  0.59279935  0.41523035  0.94136230  1
  Te  Te168  1  0.56586720  0.75100867  0.27191503  1
  Te  Te169  1  0.60248887  0.76436236  0.59413999  1
  Te  Te170  1  0.56436593  0.74045683  0.91534968  1
  Te  Te171  1  0.92066748  0.11080095  0.23267238  1
  Te  Te172  1  0.90201857  0.11333975  0.54650290  1
  Te  Te173  1  0.92971765  0.06559184  0.92532249  1
  Te  Te174  1  0.94645967  0.38735088  0.25304584  1
  Te  Te175  1  0.91399254  0.38940603  0.55619363  1
  Te  Te176  1  0.92521559  0.40721488  0.93172681  1
  Te  Te177  1  0.91509825  0.75848431  0.25317447  1
  Te  Te178  1  0.91311764  0.73890392  0.57378365  1
  Te  Te179  1  0.92548101  0.74520200  0.90162036  1
