# generated using pymatgen
data_In2Te3
_symmetry_space_group_name_H-M   'P 1'
_cell_length_a   18.88815997
_cell_length_b   18.89700292
_cell_length_c   18.89317639
_cell_angle_alpha   90.16223667
_cell_angle_beta   89.98260285
_cell_angle_gamma   90.16609289
_symmetry_Int_Tables_number   1
_chemical_formula_structural   In2Te3
_chemical_formula_sum   'In72 Te108'
_cell_volume   6743.47849666
_cell_formula_units_Z   36
loop_
 _symmetry_equiv_pos_site_id
 _symmetry_equiv_pos_as_xyz
  1  'x, y, z'
loop_
 _atom_site_type_symbol
 _atom_site_label
 _atom_site_symmetry_multiplicity
 _atom_site_fract_x
 _atom_site_fract_y
 _atom_site_fract_z
 _atom_site_occupancy
  In  In0  1  0.33974774  0.16952382  0.85609157  1
  In  In1  1  0.67913644  0.80808133  0.82769487  1
  In  In2  1  0.51586307  0.67023457  0.50100459  1
  In  In3  1  0.67615222  0.00897307  0.32365352  1
  In  In4  1  0.67684383  0.02468262  0.02640755  1
  In  In5  1  -0.01493013  0.84955321  0.47818527  1
  In  In6  1  0.84636189  0.82234424  0.66603196  1
  In  In7  1  0.49440284  0.65952529  0.18168223  1
  In  In8  1  0.50474346  0.67608071  0.83302056  1
  In  In9  1  0.82654035  0.32319681  0.83810700  1
  In  In10  1  0.29478519  0.33552972  0.65123752  1
  In  In11  1  0.68888995  0.49606522  0.48054401  1
  In  In12  1  0.49163209  0.33053867  0.84884628  1
  In  In13  1  0.15749875  0.84565013  0.30485402  1
  In  In14  1  0.68074308  0.31941901  0.01472188  1
  In  In15  1  -0.01410897  0.82878778  0.83799658  1
  In  In16  1  0.48863404  0.32769464  0.16157269  1
  In  In17  1  0.84038285  -0.00290150  0.82457021  1
  In  In18  1  0.85125142  0.67819469  0.16111282  1
  In  In19  1  0.33418644  0.84594356  0.17207157  1
  In  In20  1  0.14734960  0.03257319  0.46139395  1
  In  In21  1  0.34193299  0.81624979  0.50199734  1
  In  In22  1  0.15104707  0.83215085  0.65854704  1
  In  In23  1  -0.00778530  0.17453526  0.82663893  1
  In  In24  1  0.18297975  0.66166147  0.82685713  1
  In  In25  1  0.49751711  0.52245426  0.66478096  1
  In  In26  1  0.86783330  0.15860973  0.64794956  1
  In  In27  1  0.33443001  0.31515667  0.00781076  1
  In  In28  1  0.32420037  -0.01300463  0.01655829  1
  In  In29  1  0.33637941  0.67268359  -0.01090136  1
  In  In30  1  0.48823209  0.30552957  0.49365804  1
  In  In31  1  0.49809990  0.49624054  0.34051082  1
  In  In32  1  0.31730423  0.64803076  0.36798695  1
  In  In33  1  0.15077649  0.49043790  0.00677679  1
  In  In34  1  0.13036837  0.63967524  0.51605618  1
  In  In35  1  0.85119687  0.34145058  0.48518186  1
  In  In36  1  -0.00768879  0.49123212  0.17977971  1
  In  In37  1  0.50578166  0.46987006  0.02281747  1
  In  In38  1  0.83623518  0.32430613  0.17429104  1
  In  In39  1  -0.00968083  0.67206785  0.31940949  1
  In  In40  1  0.50968404  0.14623637  0.69875642  1
  In  In41  1  0.67959548  0.85867593  0.16834625  1
  In  In42  1  0.49728261  -0.01325626  0.48511554  1
  In  In43  1  0.67710323  0.17043586  0.50235226  1
  In  In44  1  0.85440173  0.49217914  0.31110219  1
  In  In45  1  0.85944444  0.16346431  0.32561530  1
  In  In46  1  0.13460666  0.34260426  0.83121137  1
  In  In47  1  -0.00428208  0.50413890  0.80910303  1
  In  In48  1  0.70413165  -0.01222692  0.66439954  1
  In  In49  1  0.51949234  0.85340608  0.30254160  1
  In  In50  1  0.51118965  0.00089195  0.86331893  1
  In  In51  1  0.29974509  0.20472764  0.50291394  1
  In  In52  1  -0.00997260  0.85044266  0.17342461  1
  In  In53  1  0.33183656  0.82773175  0.82977929  1
  In  In54  1  0.84263193  0.83039009  -0.00088051  1
  In  In55  1  0.64335713  0.34553664  0.67259892  1
  In  In56  1  0.32706373  0.50831610  0.81640859  1
  In  In57  1  0.31668123  0.02576776  0.33383811  1
  In  In58  1  0.49870940  0.82056509  0.67687510  1
  In  In59  1  0.70463683  0.54276573  0.86868060  1
  In  In60  1  0.14737001  0.68074281  0.14492508  1
  In  In61  1  0.84370799  0.49465998  0.65192143  1
  In  In62  1  0.01664517  0.02225040  0.03537903  1
  In  In63  1  0.15404741  0.16581574  0.64651584  1
  In  In64  1  0.16079640  -0.00258346  0.84336205  1
  In  In65  1  0.83223559  0.67919372  0.48822533  1
  In  In66  1  0.31242966  0.35687006  0.31989908  1
  In  In67  1  0.14353549  0.31625751  0.46910702  1
  In  In68  1  -0.01972335  0.31269410  0.00359090  1
  In  In69  1  0.68020903  0.51373094  0.16780772  1
  In  In70  1  0.31044135  0.15429530  0.16675075  1
  In  In71  1  0.51332924  0.14428658  0.32478837  1
  Te  Te72  1  0.09155522  0.12052534  0.11945445  1
  Te  Te73  1  0.07618390  0.14591611  0.39882681  1
  Te  Te74  1  0.07699314  0.07754068  0.74428149  1
  Te  Te75  1  0.07407436  0.39350733  0.09384945  1
  Te  Te76  1  0.07568059  0.40660140  0.37313023  1
  Te  Te77  1  0.09826541  0.43635286  0.72229937  1
  Te  Te78  1  0.04375157  0.75487537  0.07417114  1
  Te  Te79  1  0.09350161  0.75188724  0.40662904  1
  Te  Te80  1  0.07470608  0.73941152  0.75110524  1
  Te  Te81  1  0.40986571  0.08762677  0.08219577  1
  Te  Te82  1  0.41051642  0.10226145  0.43747523  1
  Te  Te83  1  0.40451619  0.06244794  0.76947845  1
  Te  Te84  1  0.38642908  0.42473614  0.10361407  1
  Te  Te85  1  0.40487055  0.41404397  0.42904751  1
  Te  Te86  1  0.41806237  0.40736395  0.73967084  1
  Te  Te87  1  0.42170672  0.75388772  0.08674481  1
  Te  Te88  1  0.42829188  0.75971009  0.38981605  1
  Te  Te89  1  0.39651803  0.72454458  0.73903064  1
  Te  Te90  1  0.77286209  0.12535241  0.07543883  1
  Te  Te91  1  0.76639935  0.07653349  0.42837979  1
  Te  Te92  1  0.76350434  0.10270099  0.74436632  1
  Te  Te93  1  0.76856203  0.42561508  0.08142542  1
  Te  Te94  1  0.75403940  0.40048287  0.38422630  1
  Te  Te95  1  0.74503785  0.42471411  0.75576529  1
  Te  Te96  1  0.74353039  0.74958972  0.08076664  1
  Te  Te97  1  0.75859640  0.79435579  0.44015180  1
  Te  Te98  1  0.76984941  0.72456881  0.74771315  1
  Te  Te99  1  0.03989503  0.19290400  0.24599322  1
  Te  Te100  1  0.06282817  0.25742172  0.58045959  1
  Te  Te101  1  0.08981671  0.23679352  0.92818067  1
  Te  Te102  1  0.09339377  0.58170686  0.24965687  1
  Te  Te103  1  0.05479991  0.54367802  0.59874116  1
  Te  Te104  1  0.08167837  0.58399594  0.91247430  1
  Te  Te105  1  0.04965117  0.94283964  0.27565434  1
  Te  Te106  1  0.08948180  0.93004997  0.55986172  1
  Te  Te107  1  0.06886545  0.91578893  0.93165429  1
  Te  Te108  1  0.41442735  0.24622953  0.26716033  1
  Te  Te109  1  0.42053785  0.23794894  0.61329563  1
  Te  Te110  1  0.44517047  0.22784794  0.95051683  1
  Te  Te111  1  0.39519759  0.57225529  0.25853859  1
  Te  Te112  1  0.41316529  0.58696482  0.56556683  1
  Te  Te113  1  0.42347152  0.56342166  0.92291360  1
  Te  Te114  1  0.41826408  0.94926841  0.24597766  1
  Te  Te115  1  0.41394048  0.91644537  0.59159250  1
  Te  Te116  1  0.41880966  0.90080969  0.93057784  1
  Te  Te117  1  0.75169233  0.23847540  0.25937793  1
  Te  Te118  1  0.75011675  0.27380313  0.58900258  1
  Te  Te119  1  0.77121883  0.22693035  0.93765535  1
  Te  Te120  1  0.76220728  0.60166997  0.26081365  1
  Te  Te121  1  0.74648002  0.58975372  0.58190596  1
  Te  Te122  1  0.80283404  0.60748939  0.95515378  1
  Te  Te123  1  0.77807133  0.93778852  0.24414458  1
  Te  Te124  1  0.76020396  0.89245483  0.56230314  1
  Te  Te125  1  0.74535252  0.91895331  0.91378722  1
  Te  Te126  1  0.23807492  0.26744263  0.10748367  1
  Te  Te127  1  0.23476810  0.23231005  0.37051567  1
  Te  Te128  1  0.24158089  0.24235461  0.76209959  1
  Te  Te129  1  0.24710176  0.58561338  0.07818343  1
  Te  Te130  1  0.22953579  0.55519429  0.44288941  1
  Te  Te131  1  0.23744495  0.57290625  0.72166046  1
  Te  Te132  1  0.22417575  0.92362610  0.10917954  1
  Te  Te133  1  0.25628299  0.90936735  0.41254080  1
  Te  Te134  1  0.24534283  0.91778339  0.74408014  1
  Te  Te135  1  0.59568833  0.24283282  0.10690100  1
  Te  Te136  1  0.59508927  0.24973152  0.40201399  1
  Te  Te137  1  0.59668903  0.24452401  0.77606043  1
  Te  Te138  1  0.58337612  0.58849230  0.07765351  1
  Te  Te139  1  0.60032620  0.59165267  0.40153093  1
  Te  Te140  1  0.59763293  0.58101007  0.76004011  1
  Te  Te141  1  0.58106204  0.93051422  0.08663124  1
  Te  Te142  1  0.60395773  0.90452878  0.41841142  1
  Te  Te143  1  0.59311743  0.92247608  0.74915660  1
  Te  Te144  1  0.90005588  0.21703680  0.08695704  1
  Te  Te145  1  0.93457686  0.22496448  0.44134791  1
  Te  Te146  1  0.92525570  0.27303351  0.73192719  1
  Te  Te147  1  0.92431404  0.57821929  0.07957737  1
  Te  Te148  1  0.92407344  0.57706607  0.41686106  1
  Te  Te149  1  0.89937195  0.59584919  0.74509470  1
  Te  Te150  1  0.89763289  0.93901173  0.08838182  1
  Te  Te151  1  0.91677630  0.97300986  0.43586201  1
  Te  Te152  1  0.93670950  0.92602843  0.73149860  1
  Te  Te153  1  0.21703805  0.04953601  0.22328577  1
  Te  Te154  1  0.25105345  0.07825211  0.57214019  1
  Te  Te155  1  0.23996890  0.08787070  0.93721672  1
  Te  Te156  1  0.19296224  0.42856477  0.27451375  1
  Te  Te157  1  0.23160488  0.41427645  0.54569091  1
  Te  Te158  1  0.25374008  0.41210175  0.91151591  1
  Te  Te159  1  0.25824185  0.73653948  0.25050218  1
  Te  Te160  1  0.23775626  0.73692823  0.57777298  1
  Te  Te161  1  0.23388961  0.76663922  0.92892864  1
  Te  Te162  1  0.59341840  0.07764237  0.22200441  1
  Te  Te163  1  0.58772533  0.07477283  0.58608768  1
  Te  Te164  1  0.61007904  0.09517512  0.91403627  1
  Te  Te165  1  0.58427948  0.42041805  0.24105893  1
  Te  Te166  1  0.57693984  0.42237559  0.55908310  1
  Te  Te167  1  0.60034044  0.41771731  0.91560276  1
  Te  Te168  1  0.60405844  0.74291052  0.24616137  1
  Te  Te169  1  0.59564705  0.74654410  0.59688468  1
  Te  Te170  1  0.58784382  0.75009576  0.92719120  1
  Te  Te171  1  0.94556603  0.07747926  0.23812677  1
  Te  Te172  1  0.92075760  0.04841424  0.56976061  1
  Te  Te173  1  0.92641639  0.07633679  0.92083806  1
  Te  Te174  1  0.94769700  0.37431086  0.27479171  1
  Te  Te175  1  0.94464177  0.43824451  0.55552073  1
  Te  Te176  1  0.91951577  0.41749037  0.91297868  1
  Te  Te177  1  0.89461582  0.77745764  0.27059748  1
  Te  Te178  1  0.94180445  0.74190713  0.57619580  1
  Te  Te179  1  0.89864687  0.72587441  0.90634404  1
