# generated using pymatgen
data_In2Te3
_symmetry_space_group_name_H-M   'P 1'
_cell_length_a   18.98114163
_cell_length_b   18.99606886
_cell_length_c   18.96655426
_cell_angle_alpha   89.89030084
_cell_angle_beta   89.91051923
_cell_angle_gamma   90.03421864
_symmetry_Int_Tables_number   1
_chemical_formula_structural   In2Te3
_chemical_formula_sum   'In72 Te108'
_cell_volume   6838.69286014
_cell_formula_units_Z   36
loop_
 _symmetry_equiv_pos_site_id
 _symmetry_equiv_pos_as_xyz
  1  'x, y, z'
loop_
 _atom_site_type_symbol
 _atom_site_label
 _atom_site_symmetry_multiplicity
 _atom_site_fract_x
 _atom_site_fract_y
 _atom_site_fract_z
 _atom_site_occupancy
  In  In0  1  0.14724204  0.34110713  0.84009921  1
  In  In1  1  0.33957895  0.82271830  0.81779028  1
  In  In2  1  -0.01023706  0.65691766  0.00823455  1
  In  In3  1  -0.01592205  -0.00702579  0.33895351  1
  In  In4  1  0.50362588  0.52144899  0.64140475  1
  In  In5  1  0.67610835  0.51714028  0.50433484  1
  In  In6  1  0.02719221  0.34147283  0.31784575  1
  In  In7  1  0.84161027  0.81170316  0.34378787  1
  In  In8  1  0.15042674  0.78401551  0.65576705  1
  In  In9  1  0.32765379  0.16930529  0.49403743  1
  In  In10  1  0.15816388  0.18014768  0.31846636  1
  In  In11  1  0.70902508  0.34925191  0.68460438  1
  In  In12  1  0.68408891  0.36334803  -0.02702542  1
  In  In13  1  0.00023376  -0.00092705  0.64717812  1
  In  In14  1  0.47984916  0.65551849  0.18325616  1
  In  In15  1  -0.03369654  0.74796077  0.50849064  1
  In  In16  1  0.16024224  0.50540714  0.02373483  1
  In  In17  1  -0.00230480  0.33815525  0.65875500  1
  In  In18  1  0.00189296  0.00812805  0.00837447  1
  In  In19  1  0.34930524  0.51812150  0.50037215  1
  In  In20  1  0.82724203  0.13404133  0.35125001  1
  In  In21  1  -0.00815035  0.80474916  0.17419389  1
  In  In22  1  0.16684331  0.00908507  0.17767308  1
  In  In23  1  0.49806813  -0.01524995  0.51262632  1
  In  In24  1  0.67658981  0.66355426  0.66535643  1
  In  In25  1  0.31791624  0.32856958  0.69789709  1
  In  In26  1  0.68516162  0.00194158  0.01102957  1
  In  In27  1  0.67766902  0.51967744  0.18277757  1
  In  In28  1  0.33665837  0.83905264  0.52657043  1
  In  In29  1  0.50975476  0.67664213  0.52270637  1
  In  In30  1  0.32481541  0.65322080  0.33168573  1
  In  In31  1  0.01232793  0.17337542  0.51997142  1
  In  In32  1  0.15548860  0.66812799  0.84435497  1
  In  In33  1  0.47822531  0.04612365  0.15530350  1
  In  In34  1  0.84940247  0.01469870  0.18175858  1
  In  In35  1  0.18473095  0.17653328  0.66246623  1
  In  In36  1  0.51559289  0.80887300  0.00502077  1
  In  In37  1  0.01360689  0.51537204  0.19332128  1
  In  In38  1  0.50401684  0.35567046  0.13380241  1
  In  In39  1  0.90776466  0.35938149  0.11865005  1
  In  In40  1  0.33245061  0.84362822  0.16274063  1
  In  In41  1  0.50323770  0.17609162  0.31814344  1
  In  In42  1  0.18902754  0.00202452  0.51227007  1
  In  In43  1  0.66101911  0.67906195  0.36441277  1
  In  In44  1  0.49605020  -0.02397483  0.82839556  1
  In  In45  1  0.49800974  0.83921465  0.32495765  1
  In  In46  1  0.84001396  0.14323190  0.67008134  1
  In  In47  1  0.66058837  0.32987367  0.32396621  1
  In  In48  1  0.13962631  0.83780359  0.00060982  1
  In  In49  1  0.48445949  0.50459552  -0.03229208  1
  In  In50  1  0.68360426  0.16409649  0.16878929  1
  In  In51  1  0.15183930  0.51674166  0.61927010  1
  In  In52  1  0.33264376  0.33381364  0.00153657  1
  In  In53  1  0.65488878  0.69313368  0.02418306  1
  In  In54  1  0.83581393  0.49820885  0.00210550  1
  In  In55  1  0.33182179  0.52273270  0.81245537  1
  In  In56  1  0.66632552  0.18243602  0.84094929  1
  In  In57  1  0.32072470  0.18544681  0.15794814  1
  In  In58  1  0.66525523  -0.02267760  0.64774812  1
  In  In59  1  0.82609206  -0.03005464  0.84325589  1
  In  In60  1  0.51399516  0.14713070  0.69292384  1
  In  In61  1  -0.02655881  0.52114650  0.46218753  1
  In  In62  1  0.30823787  0.37318187  0.31469607  1
  In  In63  1  0.00597393  0.85504730  0.80569899  1
  In  In64  1  0.01031458  0.17197044  0.83202838  1
  In  In65  1  0.48055566  0.17354438  -0.01328025  1
  In  In66  1  0.83567858  0.33005673  0.49490709  1
  In  In67  1  0.81056749  0.82037550  -0.00403759  1
  In  In68  1  0.67962653  0.84872949  0.15522898  1
  In  In69  1  0.84013145  0.65962839  0.84482157  1
  In  In70  1  0.50435805  0.31491437  0.50156641  1
  In  In71  1  0.17265195  0.82785348  0.36742940  1
  Te  Te72  1  0.08294914  0.09514013  0.09276237  1
  Te  Te73  1  0.09218872  0.07795661  0.42040487  1
  Te  Te74  1  0.08803005  0.08384742  0.73543152  1
  Te  Te75  1  0.04328485  0.42540484  0.07476255  1
  Te  Te76  1  0.08453896  0.42797690  0.42262237  1
  Te  Te77  1  0.08971595  0.43085735  0.73432557  1
  Te  Te78  1  0.09435562  0.72540820  0.09527031  1
  Te  Te79  1  0.07356275  0.72831361  0.40906545  1
  Te  Te80  1  0.04774066  0.72238692  0.74896095  1
  Te  Te81  1  0.37386705  0.08907895  0.05189126  1
  Te  Te82  1  0.42822329  0.08890788  0.41727034  1
  Te  Te83  1  0.41304401  0.09051352  0.78316391  1
  Te  Te84  1  0.39703880  0.44719823  0.07932203  1
  Te  Te85  1  0.41751359  0.40703520  0.41940784  1
  Te  Te86  1  0.42291826  0.42947338  0.73673783  1
  Te  Te87  1  0.40325409  0.73680915  0.08243237  1
  Te  Te88  1  0.41868388  0.74836217  0.41665210  1
  Te  Te89  1  0.40250644  0.70349294  0.75809985  1
  Te  Te90  1  0.78199625  0.09895697  0.07369710  1
  Te  Te91  1  0.76435994  0.03189850  0.43108269  1
  Te  Te92  1  0.73762988  0.07034512  0.75737331  1
  Te  Te93  1  0.74882630  0.40583768  0.10368801  1
  Te  Te94  1  0.74719827  0.41899152  0.41075361  1
  Te  Te95  1  0.77534056  0.44598883  0.77439981  1
  Te  Te96  1  0.77317217  0.73686061  0.11558707  1
  Te  Te97  1  0.73468237  0.77935906  0.44410058  1
  Te  Te98  1  0.77581774  0.74829054  0.74413882  1
  Te  Te99  1  0.10951949  0.27369212  0.21531931  1
  Te  Te100  1  0.10987438  0.27374971  0.57498434  1
  Te  Te101  1  0.05838245  0.26747186  0.93726227  1
  Te  Te102  1  0.11833222  0.54306420  0.29714665  1
  Te  Te103  1  0.03915021  0.60128020  0.57101123  1
  Te  Te104  1  0.06805526  0.56691335  0.91646761  1
  Te  Te105  1  0.07969370  0.90556650  0.25101373  1
  Te  Te106  1  0.09292095  0.90471072  0.57597674  1
  Te  Te107  1  0.08715298  0.93987800  0.90074247  1
  Te  Te108  1  0.41543792  0.27360824  0.23972129  1
  Te  Te109  1  0.41163286  0.24550838  0.60049021  1
  Te  Te110  1  0.43373622  0.28596288  0.90746176  1
  Te  Te111  1  0.40972565  0.55511632  0.26218674  1
  Te  Te112  1  0.39380557  0.62386392  0.60778412  1
  Te  Te113  1  0.41309986  0.61510831  0.89634131  1
  Te  Te114  1  0.41518441  0.93916481  0.24527414  1
  Te  Te115  1  0.42309172  0.91262264  0.61851323  1
  Te  Te116  1  0.42036312  0.90621421  0.93969847  1
  Te  Te117  1  0.77033647  0.24441104  0.26203128  1
  Te  Te118  1  0.75601408  0.23954982  0.58683418  1
  Te  Te119  1  0.76600060  0.25711491  0.91594225  1
  Te  Te120  1  0.75597162  0.59035816  0.28832105  1
  Te  Te121  1  0.77923604  0.58580886  0.58598062  1
  Te  Te122  1  0.74045931  0.59635326  0.93879686  1
  Te  Te123  1  0.76364973  0.91795690  0.25901967  1
  Te  Te124  1  0.74758831  0.92034593  0.53936575  1
  Te  Te125  1  0.71171888  0.89308540  0.90741431  1
  Te  Te126  1  0.22779922  0.27677778  0.08849984  1
  Te  Te127  1  0.24868529  0.26476798  0.40627872  1
  Te  Te128  1  0.24258356  0.23347871  0.79081792  1
  Te  Te129  1  0.24922547  0.56887011  0.11807297  1
  Te  Te130  1  0.23659557  0.56691890  0.41618816  1
  Te  Te131  1  0.22423058  0.59173087  0.73320925  1
  Te  Te132  1  0.24011453  0.92529222  0.07462064  1
  Te  Te133  1  0.27625274  0.92684742  0.41451927  1
  Te  Te134  1  0.22874508  0.88596904  0.73228723  1
  Te  Te135  1  0.58423112  0.23837104  0.08125974  1
  Te  Te136  1  0.60175790  0.22987200  0.42113416  1
  Te  Te137  1  0.58939509  0.26751014  0.74374815  1
  Te  Te138  1  0.57515217  0.57437534  0.08218650  1
  Te  Te139  1  0.56401929  0.57723873  0.42165449  1
  Te  Te140  1  0.59427650  0.56939078  0.74366829  1
  Te  Te141  1  0.56898364  0.93361814  0.09235507  1
  Te  Te142  1  0.58369417  0.91626677  0.41380386  1
  Te  Te143  1  0.56870275  0.89526342  0.72742008  1
  Te  Te144  1  0.95149481  0.24125540  0.04830421  1
  Te  Te145  1  0.93564680  0.24931847  0.41395541  1
  Te  Te146  1  0.91170207  0.25158803  0.74872335  1
  Te  Te147  1  0.90356525  0.58497321  0.10715394  1
  Te  Te148  1  0.88036286  0.61152443  0.38908471  1
  Te  Te149  1  0.89955196  0.54208115  0.77779861  1
  Te  Te150  1  0.91318470  0.90722405  0.08718777  1
  Te  Te151  1  0.93816863  0.88643949  0.43359066  1
  Te  Te152  1  0.89642752  0.91504034  0.71954182  1
  Te  Te153  1  0.26473975  0.08927532  0.26130742  1
  Te  Te154  1  0.28160384  0.07496721  0.60594177  1
  Te  Te155  1  0.29878299  -0.03241850  0.84246252  1
  Te  Te156  1  0.22298371  0.45968261  0.22263457  1
  Te  Te157  1  0.26786164  0.42159402  0.58801158  1
  Te  Te158  1  0.24810422  0.43321743  0.90953740  1
  Te  Te159  1  0.24543290  0.75716106  0.25356875  1
  Te  Te160  1  0.24004899  0.73249037  0.55202221  1
  Te  Te161  1  0.24253650  0.75643317  0.92573272  1
  Te  Te162  1  0.59573796  0.07446507  0.25170189  1
  Te  Te163  1  0.59035722  0.09032097  0.57895409  1
  Te  Te164  1  0.58468174  0.07786170  0.92291680  1
  Te  Te165  1  0.57414870  0.42739428  0.24833044  1
  Te  Te166  1  0.60056697  0.40363975  0.58000413  1
  Te  Te167  1  0.58486899  0.43107509  0.88995394  1
  Te  Te168  1  0.59081956  0.74651749  0.23631568  1
  Te  Te169  1  0.58878812  0.76779023  0.60493547  1
  Te  Te170  1  0.58992781  0.73868393  0.90053812  1
  Te  Te171  1  0.94275719  0.11013092  0.25083044  1
  Te  Te172  1  0.90540936  0.07115470  0.55332687  1
  Te  Te173  1  0.91279599  0.07522433  0.90372412  1
  Te  Te174  1  0.91284495  0.42021564  0.25912400  1
  Te  Te175  1  0.91173117  0.42993845  0.57664438  1
  Te  Te176  1  0.88845340  0.42580958  0.88448383  1
  Te  Te177  1  0.94099177  0.71294370  0.28227732  1
  Te  Te178  1  0.86576398  0.71782092  0.61091201  1
  Te  Te179  1  0.93330896  0.77173763  0.91966192  1
