# generated using pymatgen
data_In2Te3
_symmetry_space_group_name_H-M   'P 1'
_cell_length_a   19.03892168
_cell_length_b   19.02651063
_cell_length_c   19.03315034
_cell_angle_alpha   90.13019962
_cell_angle_beta   90.03925188
_cell_angle_gamma   90.13121609
_symmetry_Int_Tables_number   1
_chemical_formula_structural   In2Te3
_chemical_formula_sum   'In72 Te108'
_cell_volume   6894.61165996
_cell_formula_units_Z   36
loop_
 _symmetry_equiv_pos_site_id
 _symmetry_equiv_pos_as_xyz
  1  'x, y, z'
loop_
 _atom_site_type_symbol
 _atom_site_label
 _atom_site_symmetry_multiplicity
 _atom_site_fract_x
 _atom_site_fract_y
 _atom_site_fract_z
 _atom_site_occupancy
  In  In0  1  0.49530665  0.64394954  0.48072509  1
  In  In1  1  -0.01002936  0.01488102  0.66825849  1
  In  In2  1  0.85233622  0.50795731  0.32488810  1
  In  In3  1  0.15560631  0.17093734  -0.01372889  1
  In  In4  1  -0.03593792  0.03881566  -0.03530098  1
  In  In5  1  0.02254487  0.30909537  0.32830327  1
  In  In6  1  0.83499556  0.67810731  0.15466326  1
  In  In7  1  0.16355242  0.47035544  0.03661147  1
  In  In8  1  0.50246994  0.82203634  0.65536268  1
  In  In9  1  0.67442028  0.50119305  0.84853336  1
  In  In10  1  0.01098144  0.17348976  0.17076097  1
  In  In11  1  0.00069881  0.66547334  0.66412470  1
  In  In12  1  0.32259432  0.83072143  0.52995514  1
  In  In13  1  0.66525376  0.17030558  0.15832156  1
  In  In14  1  0.65059623  0.52542785  0.49732745  1
  In  In15  1  0.65923696  0.33806104  0.68439785  1
  In  In16  1  0.34572583  0.16466241  0.52613331  1
  In  In17  1  0.32931930  0.86533999  0.17716284  1
  In  In18  1  0.16101643  0.00175222  0.50431818  1
  In  In19  1  0.50180305  0.18593591  0.65421771  1
  In  In20  1  0.01556230  0.47600794  0.82368779  1
  In  In21  1  0.32345065  -0.00056903  0.66406148  1
  In  In22  1  0.84819719  0.33868897  0.48080872  1
  In  In23  1  0.64188052  0.34754585  0.33093884  1
  In  In24  1  0.32270595  0.29771687  0.00051949  1
  In  In25  1  0.66037847  0.67394942  0.34094729  1
  In  In26  1  0.69107348  0.00282244  0.00133583  1
  In  In27  1  0.16721057  0.65676954  0.19013155  1
  In  In28  1  0.50059716  0.49492201  0.01385061  1
  In  In29  1  0.15822951  0.66076443  0.49318420  1
  In  In30  1  0.49668499  0.83191227  0.36595836  1
  In  In31  1  0.47323308  0.13704765  0.26262027  1
  In  In32  1  0.48104509  0.86263905  0.02932025  1
  In  In33  1  0.15912460  0.65727162  0.83083848  1
  In  In34  1  0.48546876  0.31889887  0.50947687  1
  In  In35  1  0.82327808  0.49833084  0.67670869  1
  In  In36  1  0.00401906  0.31510297  -0.03589236  1
  In  In37  1  -0.00593056  0.65986585  0.01196709  1
  In  In38  1  0.31957306  0.49855255  0.49301768  1
  In  In39  1  0.69555454  0.14248847  0.82968553  1
  In  In40  1  -0.00097566  0.85481222  0.14016836  1
  In  In41  1  0.16381047  0.85430138  -0.01413391  1
  In  In42  1  0.84286246  0.17600761  0.34894432  1
  In  In43  1  0.65877392  0.67709926  0.67453625  1
  In  In44  1  0.51203919  0.64873619  0.82689762  1
  In  In45  1  0.34776906  0.50615936  0.18871819  1
  In  In46  1  0.17877461  0.86079185  0.33358659  1
  In  In47  1  0.34243455  0.68117861  -0.00661928  1
  In  In48  1  0.66193101  0.82683706  0.85044834  1
  In  In49  1  0.65680064  0.65067255  -0.00403606  1
  In  In50  1  0.52453913  0.01340950  0.46747840  1
  In  In51  1  0.15516816  0.33450209  0.52614034  1
  In  In52  1  0.84611140  0.83513230  -0.01497438  1
  In  In53  1  0.00376323  -0.00354059  0.33159083  1
  In  In54  1  0.68152064  0.32373443  -0.01397493  1
  In  In55  1  0.64208699  0.47917394  0.17400565  1
  In  In56  1  0.16903563  -0.00677672  0.82513495  1
  In  In57  1  0.84275499  0.84103229  0.33711997  1
  In  In58  1  0.31652137  0.43638365  0.82122485  1
  In  In59  1  0.01850562  0.65543981  0.33367904  1
  In  In60  1  0.82511496  0.33693331  0.14694634  1
  In  In61  1  0.35480642  0.04094929  0.01338496  1
  In  In62  1  0.32087329  0.33131548  0.33090295  1
  In  In63  1  -0.01051652  0.84645319  0.52077440  1
  In  In64  1  0.80507926  0.86180658  0.64948100  1
  In  In65  1  0.33599163  0.64948460  0.66862746  1
  In  In66  1  0.50775293  0.01320740  0.83568501  1
  In  In67  1  0.65916194  0.84828976  0.18727619  1
  In  In68  1  0.31208937  0.21493066  0.81119178  1
  In  In69  1  0.01646021  0.49240152  0.49635946  1
  In  In70  1  0.87358660  0.15977079  0.72203884  1
  In  In71  1  0.68233427  0.16748070  0.50894209  1
  Te  Te72  1  0.06873240  0.07798627  0.06702317  1
  Te  Te73  1  0.10081386  0.08503098  0.39993108  1
  Te  Te74  1  0.07653074  0.09212512  0.76456510  1
  Te  Te75  1  0.07105494  0.36994283  0.08520384  1
  Te  Te76  1  0.10307758  0.41409601  0.40363762  1
  Te  Te77  1  0.08753112  0.37919899  0.73551305  1
  Te  Te78  1  0.10179712  0.75474102  0.08449673  1
  Te  Te79  1  0.08083567  0.77734053  0.41624091  1
  Te  Te80  1  0.07489493  0.74985816  0.75806766  1
  Te  Te81  1  0.43375672  0.11012692  0.11527834  1
  Te  Te82  1  0.41740034  0.10203705  0.41157277  1
  Te  Te83  1  0.41567747  0.09155476  0.74271030  1
  Te  Te84  1  0.39256022  0.41360696  0.07584740  1
  Te  Te85  1  0.41757234  0.41269660  0.41443686  1
  Te  Te86  1  0.42624504  0.38942800  0.74195772  1
  Te  Te87  1  0.41140107  0.75334691  0.10529455  1
  Te  Te88  1  0.39247589  0.74132758  0.42948688  1
  Te  Te89  1  0.41891645  0.74419427  0.75469804  1
  Te  Te90  1  0.76519066  0.10416694  0.07568386  1
  Te  Te91  1  0.74688802  0.08260432  0.40882764  1
  Te  Te92  1  0.75110254  0.07566502  0.71169586  1
  Te  Te93  1  0.74223823  0.43693808  0.07008494  1
  Te  Te94  1  0.74887289  0.43503489  0.41507648  1
  Te  Te95  1  0.76246681  0.40114771  0.77500874  1
  Te  Te96  1  0.73823574  0.76424060  0.07541658  1
  Te  Te97  1  0.76810178  0.74037360  0.41182665  1
  Te  Te98  1  0.75399343  0.75237737  0.75948607  1
  Te  Te99  1  0.11368344  0.20847068  0.27084693  1
  Te  Te100  1  0.06701517  0.26210996  0.62597128  1
  Te  Te101  1  0.06482141  0.21064464  0.87457706  1
  Te  Te102  1  0.07185546  0.55862134  0.23914341  1
  Te  Te103  1  0.09797850  0.56934679  0.59789662  1
  Te  Te104  1  0.09459773  0.56372805  0.93202612  1
  Te  Te105  1  0.09523080  0.93146742  0.22870675  1
  Te  Te106  1  0.09288543  0.91478009  0.60421198  1
  Te  Te107  1  0.05915152  0.93004833  0.91101568  1
  Te  Te108  1  0.36562444  0.23322377  0.22548023  1
  Te  Te109  1  0.39160832  0.29162870  0.62692380  1
  Te  Te110  1  0.42000307  0.24792132  0.90267590  1
  Te  Te111  1  0.45025158  0.57184293  0.26494407  1
  Te  Te112  1  0.42807800  0.56318248  0.58822594  1
  Te  Te113  1  0.41324674  0.57290203  0.91292955  1
  Te  Te114  1  0.43677381  0.92957170  0.26781530  1
  Te  Te115  1  0.43420844  0.93059419  0.57215868  1
  Te  Te116  1  0.40933738  0.93249415  0.91779426  1
  Te  Te117  1  0.75299209  0.26912702  0.26391191  1
  Te  Te118  1  0.75566548  0.27591906  0.58356143  1
  Te  Te119  1  0.77720837  0.23263312  0.91789632  1
  Te  Te120  1  0.74680567  0.58253529  0.24439799  1
  Te  Te121  1  0.75180652  0.59501845  0.58449339  1
  Te  Te122  1  0.76253187  0.59741661  0.91399170  1
  Te  Te123  1  0.77417126  0.92152280  0.23756640  1
  Te  Te124  1  0.69639234  0.88514893  0.55653821  1
  Te  Te125  1  0.76577502  0.92661475  0.89442420  1
  Te  Te126  1  0.23988073  0.22278343  0.09594473  1
  Te  Te127  1  0.25496749  0.25253095  0.44385023  1
  Te  Te128  1  0.20225650  0.27231330  0.73406360  1
  Te  Te129  1  0.25115839  0.59365803  0.07796953  1
  Te  Te130  1  0.24829104  0.59067478  0.40442854  1
  Te  Te131  1  0.25382651  0.56234253  0.76064225  1
  Te  Te132  1  0.24671537  0.94775897  0.07155856  1
  Te  Te133  1  0.27205591  0.93157457  0.42961839  1
  Te  Te134  1  0.25653546  0.90291293  0.74865694  1
  Te  Te135  1  0.58513190  0.26882824  0.08304028  1
  Te  Te136  1  0.58240980  0.24443808  0.42194930  1
  Te  Te137  1  0.58952224  0.23562610  0.76673573  1
  Te  Te138  1  0.56933144  0.59521743  0.10378190  1
  Te  Te139  1  0.56134487  0.55280432  0.37232095  1
  Te  Te140  1  0.58807387  0.55806359  0.73615806  1
  Te  Te141  1  0.58440995  0.94478826  0.09706454  1
  Te  Te142  1  0.61691079  0.90330794  0.42307603  1
  Te  Te143  1  0.58113577  0.90977940  0.75311513  1
  Te  Te144  1  0.91749317  0.24398890  0.07459532  1
  Te  Te145  1  0.94919400  0.23640049  0.43928792  1
  Te  Te146  1  0.95621745  0.28413688  0.73264334  1
  Te  Te147  1  0.92081385  0.57262066  0.10256915  1
  Te  Te148  1  0.92207343  0.59206480  0.43041226  1
  Te  Te149  1  0.92153528  0.57743322  0.75931118  1
  Te  Te150  1  0.90283573  0.94573977  0.07113047  1
  Te  Te151  1  0.90880782  0.93910128  0.43503370  1
  Te  Te152  1  0.90672778  0.91586888  0.73785314  1
  Te  Te153  1  0.31061230  0.00418148  0.22658007  1
  Te  Te154  1  0.23129173  0.09879395  0.59947014  1
  Te  Te155  1  0.26058211  0.09396117  0.89831178  1
  Te  Te156  1  0.24488918  0.41904610  0.24223399  1
  Te  Te157  1  0.23897067  0.43333386  0.59562281  1
  Te  Te158  1  0.22215518  0.38497475  0.92355794  1
  Te  Te159  1  0.25724704  0.75399821  0.26162374  1
  Te  Te160  1  0.23156272  0.73734196  0.60340434  1
  Te  Te161  1  0.24955470  0.75930253  0.90585698  1
  Te  Te162  1  0.61171265  0.09273497  0.26992616  1
  Te  Te163  1  0.58695440  0.07975919  0.58922775  1
  Te  Te164  1  0.59074855  0.09277895  0.93123853  1
  Te  Te165  1  0.55019474  0.37270014  0.21826277  1
  Te  Te166  1  0.58589222  0.41351619  0.57546132  1
  Te  Te167  1  0.57504349  0.40982869  0.91482656  1
  Te  Te168  1  0.56521948  0.75210835  0.25479882  1
  Te  Te169  1  0.58525923  0.74140795  0.55761137  1
  Te  Te170  1  0.55666012  0.75579613  0.93395794  1
  Te  Te171  1  0.91471400  0.08716759  0.24993172  1
  Te  Te172  1  0.89820596  0.09804343  0.58999264  1
  Te  Te173  1  0.87578266  0.11467676  0.87246022  1
  Te  Te174  1  0.91915751  0.39469405  0.25308612  1
  Te  Te175  1  0.91852227  0.42169365  0.58580343  1
  Te  Te176  1  0.91870119  0.42414595  0.91819384  1
  Te  Te177  1  0.94029513  0.75324438  0.23758546  1
  Te  Te178  1  0.90011229  0.75051399  0.59049864  1
  Te  Te179  1  0.93478199  0.74645924  0.91205529  1
