# generated using pymatgen
data_In2Te3
_symmetry_space_group_name_H-M   'P 1'
_cell_length_a   18.75860923
_cell_length_b   18.75621936
_cell_length_c   18.75245654
_cell_angle_alpha   90.07805539
_cell_angle_beta   89.94144768
_cell_angle_gamma   90.01802740
_symmetry_Int_Tables_number   1
_chemical_formula_structural   In2Te3
_chemical_formula_sum   'In72 Te108'
_cell_volume   6597.86547341
_cell_formula_units_Z   36
loop_
 _symmetry_equiv_pos_site_id
 _symmetry_equiv_pos_as_xyz
  1  'x, y, z'
loop_
 _atom_site_type_symbol
 _atom_site_label
 _atom_site_symmetry_multiplicity
 _atom_site_fract_x
 _atom_site_fract_y
 _atom_site_fract_z
 _atom_site_occupancy
  In  In0  1  0.67584647  0.00224343  0.02819774  1
  In  In1  1  0.14342086  0.80879917  0.67862998  1
  In  In2  1  0.87855941  0.35711205  0.51497923  1
  In  In3  1  0.68766500  0.81077949  0.84830679  1
  In  In4  1  0.66989258  0.34185668  0.32052341  1
  In  In5  1  -0.01061473  0.16155989  0.83046892  1
  In  In6  1  0.01741957  0.49253793  0.14796929  1
  In  In7  1  0.49029119  0.50671029  0.65362657  1
  In  In8  1  0.65180347  -0.02723861  0.66081363  1
  In  In9  1  0.00497158  0.33488774  0.33847829  1
  In  In10  1  0.66825882  0.17686708  0.48082359  1
  In  In11  1  0.49236022  0.65462083  0.50223559  1
  In  In12  1  0.44990010  0.16789794  0.65584565  1
  In  In13  1  0.86048155  0.64489638  0.82875614  1
  In  In14  1  0.52009390  0.14327749  0.29895568  1
  In  In15  1  0.83043041  0.31709089  0.16452588  1
  In  In16  1  0.83010224  0.01415439  0.16589573  1
  In  In17  1  0.15301599  0.68226827  0.17929826  1
  In  In18  1  0.50222180  0.67494742  0.84170044  1
  In  In19  1  0.68585311  0.50284266  0.84033466  1
  In  In20  1  -0.00763250  -0.01981299  0.66589612  1
  In  In21  1  0.14286850  0.36935297  0.80983217  1
  In  In22  1  0.00831679  0.81317509  0.49503672  1
  In  In23  1  0.51044617  0.85120764  0.00818773  1
  In  In24  1  0.84233877  0.66372049  0.50510675  1
  In  In25  1  0.86074708  0.00409108  0.82372566  1
  In  In26  1  0.49486592  0.52073257  0.02207175  1
  In  In27  1  0.32957686  -0.02513180  0.02230341  1
  In  In28  1  0.66343995  0.17851255  0.86330540  1
  In  In29  1  0.16165242  0.65965058  0.49308218  1
  In  In30  1  0.82638772  0.18252775  0.68870573  1
  In  In31  1  0.30953124  -0.00326698  0.33590767  1
  In  In32  1  0.50258395  0.66401467  0.18130287  1
  In  In33  1  0.00065188  -0.01606977  0.00810317  1
  In  In34  1  0.49032855  0.81043830  0.66576012  1
  In  In35  1  0.82114089  0.02436723  0.48406872  1
  In  In36  1  0.83757243  0.83296706  0.31624869  1
  In  In37  1  0.32761858  0.36096372  0.36263483  1
  In  In38  1  -0.00469037  0.18384225  0.17220797  1
  In  In39  1  0.30181593  0.33795450  -0.02765623  1
  In  In40  1  0.31696954  0.65378994  -0.00181310  1
  In  In41  1  0.49750080  -0.00448182  0.49009035  1
  In  In42  1  0.02520900  -0.02455142  0.31092474  1
  In  In43  1  0.16719328  0.17532638  0.64229889  1
  In  In44  1  0.84431789  0.52653526  0.34298787  1
  In  In45  1  0.32381460  0.16161766  0.16294840  1
  In  In46  1  0.01661094  0.17199492  0.48281239  1
  In  In47  1  0.32248408  0.80002906  0.83698020  1
  In  In48  1  0.65370319  0.82056747  0.48573007  1
  In  In49  1  0.29315141  0.37033109  0.64076423  1
  In  In50  1  0.85780007  0.82288841  0.67161635  1
  In  In51  1  0.31454505  0.84511826  0.48548243  1
  In  In52  1  0.67287380  0.33468886  0.01186388  1
  In  In53  1  0.67324681  0.53148567  0.48442242  1
  In  In54  1  0.51534715  0.16220808  0.01457029  1
  In  In55  1  0.33819892  0.14778049  0.80460764  1
  In  In56  1  0.33243614  0.51611020  0.17569450  1
  In  In57  1  0.84543606  0.81029504  0.00399387  1
  In  In58  1  0.50941746  0.83295498  0.33157789  1
  In  In59  1  0.16112698  -0.01691223  0.85161802  1
  In  In60  1  0.49689014  0.32250678  0.82010069  1
  In  In61  1  0.32389919  0.03819246  0.67612559  1
  In  In62  1  0.87205442  0.36119175  0.83327946  1
  In  In63  1  0.65134591  0.35706558  0.65828596  1
  In  In64  1  0.31943849  0.81830835  0.18644028  1
  In  In65  1  0.84027703  0.66823487  0.16774747  1
  In  In66  1  0.50371247  0.34116363  0.17674964  1
  In  In67  1  0.15186091  0.17320704  0.00236548  1
  In  In68  1  0.16341625  0.50630167  0.34260432  1
  In  In69  1  0.27558628  0.50459937  0.81408154  1
  In  In70  1  0.31349455  0.19135744  0.49437385  1
  In  In71  1  0.84661104  0.49439971  0.00848462  1
  Te  Te72  1  0.08489981  0.07579600  0.09616928  1
  Te  Te73  1  0.09062040  0.07152341  0.40442232  1
  Te  Te74  1  0.09430997  0.08070098  0.75133270  1
  Te  Te75  1  0.09920269  0.40646306  0.06061253  1
  Te  Te76  1  0.08340338  0.41890269  0.43692429  1
  Te  Te77  1  0.05833544  0.45307924  0.71958385  1
  Te  Te78  1  0.07993423  0.78466244  0.10058946  1
  Te  Te79  1  0.10278668  0.75663419  0.39386359  1
  Te  Te80  1  0.06508440  0.71510257  0.76574600  1
  Te  Te81  1  0.42557686  0.06814569  0.09629156  1
  Te  Te82  1  0.41335442  0.09619364  0.41342345  1
  Te  Te83  1  0.45381365  0.05682654  0.76071569  1
  Te  Te84  1  0.40496369  0.40798737  0.07416349  1
  Te  Te85  1  0.42203867  0.41772351  0.45952361  1
  Te  Te86  1  0.40108306  0.41728989  0.75010081  1
  Te  Te87  1  0.40999644  0.74868658  0.07432561  1
  Te  Te88  1  0.40989619  0.75088882  0.41281251  1
  Te  Te89  1  0.39702779  0.71202142  0.73570383  1
  Te  Te90  1  0.76178938  0.11197046  0.07620312  1
  Te  Te91  1  0.74546635  0.09864507  0.37992849  1
  Te  Te92  1  0.74228963  0.06864447  0.75000018  1
  Te  Te93  1  0.74440784  0.43099303  0.10463195  1
  Te  Te94  1  0.76258384  0.41242669  0.42568106  1
  Te  Te95  1  0.76383043  0.42195501  0.73707043  1
  Te  Te96  1  0.74436675  0.75980494  0.09805197  1
  Te  Te97  1  0.75196474  0.73857996  0.40508832  1
  Te  Te98  1  0.75901336  0.72937975  0.74212251  1
  Te  Te99  1  0.09761864  0.25285286  0.25627056  1
  Te  Te100  1  0.07668928  0.27052491  0.57689913  1
  Te  Te101  1  0.07603386  0.26183821  0.90542926  1
  Te  Te102  1  0.06276328  0.58593325  0.25997522  1
  Te  Te103  1  0.12069435  0.56188571  0.60364654  1
  Te  Te104  1  0.12655406  0.61503676  0.86901612  1
  Te  Te105  1  0.09692505  0.88471347  0.21449569  1
  Te  Te106  1  0.09434165  0.91382492  0.57651017  1
  Te  Te107  1  0.08136400  0.88622571  0.92820775  1
  Te  Te108  1  0.40847274  0.25067010  0.25759060  1
  Te  Te109  1  0.40958367  0.28727791  0.56938781  1
  Te  Te110  1  0.41690021  0.23997269  0.92379244  1
  Te  Te111  1  0.42874237  0.57109434  0.27298043  1
  Te  Te112  1  0.38577095  0.57422134  0.57127524  1
  Te  Te113  1  0.40380775  0.56699696  0.90585698  1
  Te  Te114  1  0.41248417  0.92116946  0.25155052  1
  Te  Te115  1  0.41122963  0.91842404  0.58966569  1
  Te  Te116  1  0.40807618  0.90773445  0.90963564  1
  Te  Te117  1  0.75009762  0.23253497  0.25738850  1
  Te  Te118  1  0.75502276  0.26183125  0.57823368  1
  Te  Te119  1  0.77256251  0.26883575  0.91542114  1
  Te  Te120  1  0.74769582  0.58401276  0.24982135  1
  Te  Te121  1  0.75337866  0.58487599  0.59505281  1
  Te  Te122  1  0.75660951  0.59605943  0.93438386  1
  Te  Te123  1  0.74198933  0.92255144  0.24590681  1
  Te  Te124  1  0.76312966  0.90587937  0.57694616  1
  Te  Te125  1  0.76250519  0.92416493  0.91852140  1
  Te  Te126  1  0.23475429  0.26588338  0.09144176  1
  Te  Te127  1  0.22453327  0.26000892  0.39915015  1
  Te  Te128  1  0.24745261  0.26147803  0.75157286  1
  Te  Te129  1  0.22237710  0.57718046  0.08950610  1
  Te  Te130  1  0.26822852  0.57132889  0.43004973  1
  Te  Te131  1  0.20232410  0.61232942  0.73774891  1
  Te  Te132  1  0.22545089  0.90065521  0.10004423  1
  Te  Te133  1  0.21199675  0.89612579  0.39057645  1
  Te  Te134  1  0.25121780  0.91258976  0.74714297  1
  Te  Te135  1  0.60152874  0.24204615  0.11082093  1
  Te  Te136  1  0.56701077  0.25246020  0.39697754  1
  Te  Te137  1  0.59164437  0.23700387  0.73473936  1
  Te  Te138  1  0.60024413  0.58592673  0.09774703  1
  Te  Te139  1  0.57452688  0.59348800  0.39368782  1
  Te  Te140  1  0.58392212  0.57885140  0.75380836  1
  Te  Te141  1  0.58214954  0.92513110  0.11910378  1
  Te  Te142  1  0.60592925  0.93835315  0.40198071  1
  Te  Te143  1  0.58090583  0.88568063  0.76513284  1
  Te  Te144  1  0.93488972  0.27226399  0.07021197  1
  Te  Te145  1  0.90389416  0.24537345  0.41145270  1
  Te  Te146  1  0.94321638  0.26944317  0.73050571  1
  Te  Te147  1  0.94250763  0.59903517  0.06896543  1
  Te  Te148  1  0.94539918  0.58105863  0.43534150  1
  Te  Te149  1  0.92954948  0.54438677  0.74047539  1
  Te  Te150  1  0.91732944  0.90195120  0.10527773  1
  Te  Te151  1  0.91922252  0.92064583  0.42583358  1
  Te  Te152  1  0.94682914  0.88727705  0.77896825  1
  Te  Te153  1  0.23013689  0.08205488  0.24531711  1
  Te  Te154  1  0.23728536  0.07157121  0.55443826  1
  Te  Te155  1  0.25608802  0.08366383  0.92793571  1
  Te  Te156  1  0.24158307  0.41599127  0.24610288  1
  Te  Te157  1  0.21065617  0.44757697  0.54306094  1
  Te  Te158  1  0.19666825  0.44611730  0.94085243  1
  Te  Te159  1  0.25669831  0.72172384  0.27904087  1
  Te  Te160  1  0.24875075  0.74923598  0.58438207  1
  Te  Te161  1  0.21913713  0.74635318  0.93027310  1
  Te  Te162  1  0.59816887  0.04219738  0.22532128  1
  Te  Te163  1  0.58494832  0.08749525  0.57902217  1
  Te  Te164  1  0.58213338  0.06234662  0.91947571  1
  Te  Te165  1  0.57441989  0.43942416  0.26112962  1
  Te  Te166  1  0.57065194  0.42430640  0.54934314  1
  Te  Te167  1  0.57906098  0.41206282  0.91580528  1
  Te  Te168  1  0.60079356  0.75538147  0.24579305  1
  Te  Te169  1  0.59557327  0.72867279  0.59227748  1
  Te  Te170  1  0.59394377  0.73850570  0.94626375  1
  Te  Te171  1  0.92639897  0.08191932  0.26427764  1
  Te  Te172  1  0.91457100  0.08948372  0.59351184  1
  Te  Te173  1  0.90987005  0.09030794  0.93913242  1
  Te  Te174  1  0.91567437  0.42098953  0.24546679  1
  Te  Te175  1  0.92898711  0.46786558  0.60002499  1
  Te  Te176  1  0.95625137  0.44748478  0.91880998  1
  Te  Te177  1  0.93507981  0.73865710  0.25944513  1
  Te  Te178  1  0.94946905  0.72245151  0.60221340  1
  Te  Te179  1  0.94004520  0.73037945  0.92140121  1
