# generated using pymatgen
data_In2Te3
_symmetry_space_group_name_H-M   'P 1'
_cell_length_a   19.02438824
_cell_length_b   19.03112834
_cell_length_c   19.02532625
_cell_angle_alpha   89.73474399
_cell_angle_beta   89.97477509
_cell_angle_gamma   90.46897814
_symmetry_Int_Tables_number   1
_chemical_formula_structural   In2Te3
_chemical_formula_sum   'In72 Te108'
_cell_volume   6887.92007164
_cell_formula_units_Z   36
loop_
 _symmetry_equiv_pos_site_id
 _symmetry_equiv_pos_as_xyz
  1  'x, y, z'
loop_
 _atom_site_type_symbol
 _atom_site_label
 _atom_site_symmetry_multiplicity
 _atom_site_fract_x
 _atom_site_fract_y
 _atom_site_fract_z
 _atom_site_occupancy
  In  In0  1  0.31206848  0.16905783  0.50265431  1
  In  In1  1  0.16902240  0.49279575  0.64814159  1
  In  In2  1  0.67665091  0.52195766  0.49372963  1
  In  In3  1  0.48797519  0.16168330  0.65397943  1
  In  In4  1  0.51819464  0.66657233  0.16721147  1
  In  In5  1  0.15298338  0.14124671  0.33505934  1
  In  In6  1  0.31698724  -0.01612150  0.36100683  1
  In  In7  1  0.17182865  0.66904328  0.19559810  1
  In  In8  1  0.36220104  0.52120320  0.15337201  1
  In  In9  1  0.16237713  -0.01039889  0.18687035  1
  In  In10  1  0.84255253  0.14090734  0.00613628  1
  In  In11  1  0.65693763  0.14252027  0.81350582  1
  In  In12  1  0.15151279  0.64988639  0.81059846  1
  In  In13  1  0.00314873  0.81471808  0.81523175  1
  In  In14  1  0.14404136  0.33168996  0.50379198  1
  In  In15  1  0.27613139  0.41327698  0.37324159  1
  In  In16  1  0.13699980  0.13669836  -0.01449079  1
  In  In17  1  0.82868009  0.67474894  0.81540547  1
  In  In18  1  0.30081924  0.29645652  0.70696826  1
  In  In19  1  0.00714414  0.51533061  0.18052956  1
  In  In20  1  0.01199334  0.66575242  0.02557984  1
  In  In21  1  0.84595806  0.12336604  0.41344004  1
  In  In22  1  0.53542330  -0.00054429  0.49157271  1
  In  In23  1  0.48603105  0.00395549  0.82912973  1
  In  In24  1  0.00267834  0.17683736  0.83959720  1
  In  In25  1  0.66206401  0.49580697  0.80358931  1
  In  In26  1  0.66872101  0.70939887  0.33419337  1
  In  In27  1  0.31634529  -0.01787062  0.63334082  1
  In  In28  1  0.85832679  0.34009138  0.16574045  1
  In  In29  1  0.48706139  0.18826187  0.33197547  1
  In  In30  1  0.01727082  0.82989326  0.51050388  1
  In  In31  1  0.80537680  0.33706434  0.83685790  1
  In  In32  1  -0.03098736  0.84450949  0.18400666  1
  In  In33  1  0.85406618  0.67266673  0.48159305  1
  In  In34  1  0.16807151  0.32693111  0.17340550  1
  In  In35  1  0.84578649  0.32147312  0.51981013  1
  In  In36  1  0.14844595  0.00075806  0.81373847  1
  In  In37  1  0.68788912  0.33534616  0.02341410  1
  In  In38  1  0.66076411  0.67017653  0.65089672  1
  In  In39  1  0.66705653  0.33282147  0.64846662  1
  In  In40  1  0.51073396  0.35065898  0.46789455  1
  In  In41  1  0.30163397  0.69710773  0.61060801  1
  In  In42  1  0.51561665  0.37761211  0.16967778  1
  In  In43  1  0.51950667  0.53180123  -0.00699349  1
  In  In44  1  0.52128664  0.82908497  -0.00804417  1
  In  In45  1  0.31403873  0.32200819  -0.02087317  1
  In  In46  1  0.00012613  0.32550943  0.66037986  1
  In  In47  1  0.01863468  0.65203600  0.64928155  1
  In  In48  1  0.50860795  0.00005741  0.16778153  1
  In  In49  1  0.19659632  0.47210518  0.02826300  1
  In  In50  1  0.49567031  0.84687947  0.66531044  1
  In  In51  1  0.31722255  0.66485140  0.37095143  1
  In  In52  1  0.69127909  0.15505910  0.14984519  1
  In  In53  1  0.81170794  0.86644287  0.64553611  1
  In  In54  1  -0.01994480  0.13986218  0.18427823  1
  In  In55  1  0.35931646  0.65846676  -0.02915301  1
  In  In56  1  0.36222574  0.18113863  0.16409364  1
  In  In57  1  0.48566646  0.68356138  0.50215340  1
  In  In58  1  0.65893553  0.33175767  0.31941461  1
  In  In59  1  0.35178587  0.82922801  0.82147664  1
  In  In60  1  0.48204666  0.34228777  0.84517222  1
  In  In61  1  0.17972291  0.84366240  -0.00576689  1
  In  In62  1  0.82015938  0.85383434  0.33133920  1
  In  In63  1  0.34314708  0.83374314  0.18941029  1
  In  In64  1  -0.00407710  0.48279035  0.84303516  1
  In  In65  1  0.51473706  0.16071438  -0.01227914  1
  In  In66  1  0.83153227  -0.04635328  0.86133334  1
  In  In67  1  0.82600656  0.51755050  0.34046918  1
  In  In68  1  0.68602864  0.73082433  0.00752240  1
  In  In69  1  0.83594832  0.49445648  0.00819708  1
  In  In70  1  -0.00812080  -0.00312147  0.34505166  1
  In  In71  1  0.84897207  0.13057751  0.65467988  1
  Te  Te72  1  0.06393563  0.05375520  0.09288644  1
  Te  Te73  1  0.06052741  0.09037387  0.43794340  1
  Te  Te74  1  0.06331214  0.09299803  0.73736959  1
  Te  Te75  1  0.07391620  0.41187117  0.08868855  1
  Te  Te76  1  0.12373968  0.42666894  0.39461810  1
  Te  Te77  1  0.08849985  0.41139674  0.74886856  1
  Te  Te78  1  0.09232492  0.77114046  0.09858851  1
  Te  Te79  1  0.10602631  0.72433097  0.45903798  1
  Te  Te80  1  0.10305406  0.75849522  0.71776757  1
  Te  Te81  1  0.41893830  0.07729231  0.07149121  1
  Te  Te82  1  0.41995588  0.08585919  0.42331024  1
  Te  Te83  1  0.39447491  0.07460453  0.73255800  1
  Te  Te84  1  0.41551320  0.41405037  0.05962149  1
  Te  Te85  1  0.41699103  0.44308354  0.40789339  1
  Te  Te86  1  0.40691596  0.39466208  0.73253714  1
  Te  Te87  1  0.41205823  0.74744922  0.08264321  1
  Te  Te88  1  0.41957544  0.76511839  0.39910279  1
  Te  Te89  1  0.40790635  0.73629788  0.72052764  1
  Te  Te90  1  0.76424419  0.04449682  0.08684988  1
  Te  Te91  1  0.73175615  0.03308325  0.44212964  1
  Te  Te92  1  0.76919976  0.05896503  0.76546075  1
  Te  Te93  1  0.74846821  0.43350766  0.11851048  1
  Te  Te94  1  0.74726033  0.40584084  0.42581750  1
  Te  Te95  1  0.76576223  0.42360917  0.71990924  1
  Te  Te96  1  0.79330661  0.79653838  0.08793074  1
  Te  Te97  1  0.75014383  0.77271768  0.44509246  1
  Te  Te98  1  0.73902416  0.76755388  0.73873144  1
  Te  Te99  1  0.07202384  0.24038854  0.25351548  1
  Te  Te100  1  0.08348879  0.22963276  0.58915145  1
  Te  Te101  1  0.10588210  0.26217545  0.90878224  1
  Te  Te102  1  0.05765036  0.61911393  0.27117810  1
  Te  Te103  1  0.10877311  0.58894560  0.55032343  1
  Te  Te104  1  0.08427169  0.57536995  0.92647970  1
  Te  Te105  1  0.08182702  0.89917968  0.27568560  1
  Te  Te106  1  0.11796293  0.91932097  0.57245731  1
  Te  Te107  1  0.07160139  0.90823619  0.91370017  1
  Te  Te108  1  0.41545226  0.29294286  0.24999358  1
  Te  Te109  1  0.42448103  0.25605433  0.55775664  1
  Te  Te110  1  0.40603227  0.22544466  0.90506987  1
  Te  Te111  1  0.41508512  0.60832157  0.26166398  1
  Te  Te112  1  0.39012107  0.59040025  0.56490952  1
  Te  Te113  1  0.42259676  0.55856297  0.88802836  1
  Te  Te114  1  0.42830500  0.92510525  0.27434421  1
  Te  Te115  1  0.42250506  0.91483063  0.55156678  1
  Te  Te116  1  0.41267471  0.91375656  0.92920514  1
  Te  Te117  1  0.76212554  0.25066744  0.24289842  1
  Te  Te118  1  0.74625071  0.22246294  0.58751878  1
  Te  Te119  1  0.73861613  0.22895480  0.92503779  1
  Te  Te120  1  0.76735294  0.62661774  0.26229926  1
  Te  Te121  1  0.77119225  0.59151064  0.58676021  1
  Te  Te122  1  0.76012590  0.56572959  0.89827023  1
  Te  Te123  1  0.70205872  0.90376412  0.25749578  1
  Te  Te124  1  0.72117803  0.96146136  0.58020934  1
  Te  Te125  1  0.75249438  0.85559329  0.94025765  1
  Te  Te126  1  0.24034405  0.22720252  0.08427149  1
  Te  Te127  1  0.24620015  0.24564294  0.39278662  1
  Te  Te128  1  0.20615978  0.23032412  0.79459364  1
  Te  Te129  1  0.25073054  0.60555402  0.07690462  1
  Te  Te130  1  0.23040804  0.55142023  0.41458373  1
  Te  Te131  1  0.25589545  0.59169556  0.72252490  1
  Te  Te132  1  0.26114677  0.92154635  0.09544292  1
  Te  Te133  1  0.20581291  0.93732260  0.44574301  1
  Te  Te134  1  0.24823791  0.90370413  0.74423987  1
  Te  Te135  1  0.57516387  0.25424562  0.09216408  1
  Te  Te136  1  0.59940986  0.23583210  0.42211903  1
  Te  Te137  1  0.58104339  0.25811886  0.75340629  1
  Te  Te138  1  0.61935344  0.60170590  0.07799488  1
  Te  Te139  1  0.58605522  0.60855415  0.41268429  1
  Te  Te140  1  0.57293591  0.57815372  0.72527854  1
  Te  Te141  1  0.59533430  0.90525712  0.09536272  1
  Te  Te142  1  0.61938148  0.93886689  0.38516479  1
  Te  Te143  1  0.57678802  0.90866452  0.76961284  1
  Te  Te144  1  0.93068351  0.23908640  0.07981489  1
  Te  Te145  1  0.91743528  0.25044042  0.41602780  1
  Te  Te146  1  0.89272347  0.24856327  0.75094798  1
  Te  Te147  1  0.90199252  0.59393443  0.10042721  1
  Te  Te148  1  0.92811765  0.55325239  0.44126601  1
  Te  Te149  1  0.92871205  0.57979334  0.74937990  1
  Te  Te150  1  0.88545760  0.91996472  0.09182099  1
  Te  Te151  1  0.91166477  0.91040790  0.44151051  1
  Te  Te152  1  0.91952791  0.91620516  0.74091064  1
  Te  Te153  1  0.27199590  0.08426725  0.24874605  1
  Te  Te154  1  0.22731203  0.09098094  0.59223111  1
  Te  Te155  1  0.23787362  0.06600178  0.91068497  1
  Te  Te156  1  0.25054933  0.44335099  0.22338257  1
  Te  Te157  1  0.25683934  0.38633504  0.58935668  1
  Te  Te158  1  0.25923856  0.43455495  0.90374152  1
  Te  Te159  1  0.24320883  0.76946942  0.28244690  1
  Te  Te160  1  0.22873651  0.79617767  0.52146930  1
  Te  Te161  1  0.24419807  0.74023552  0.90232091  1
  Te  Te162  1  0.58263015  0.10701872  0.24596701  1
  Te  Te163  1  0.59335330  0.06808143  0.61015281  1
  Te  Te164  1  0.60038553  0.05627323  0.92396626  1
  Te  Te165  1  0.59337781  0.45142544  0.26711267  1
  Te  Te166  1  0.58224402  0.43264170  0.57516593  1
  Te  Te167  1  0.59876963  0.41119435  0.92627915  1
  Te  Te168  1  0.59142692  0.78188783  0.22667654  1
  Te  Te169  1  0.58788955  0.77411246  0.57022504  1
  Te  Te170  1  0.57442917  0.71908373  0.91226971  1
  Te  Te171  1  0.88188265  0.06609950  0.26978791  1
  Te  Te172  1  0.92141602  0.07729333  0.53898129  1
  Te  Te173  1  0.92643904  0.06277407  0.91144666  1
  Te  Te174  1  0.92717010  0.42212136  0.26998570  1
  Te  Te175  1  0.94364282  0.42303145  0.56527038  1
  Te  Te176  1  0.91247065  0.39039964  0.93048271  1
  Te  Te177  1  0.90977081  0.74890762  0.27883581  1
  Te  Te178  1  0.91316035  0.75230971  0.60268621  1
  Te  Te179  1  0.92723055  0.73204268  0.91679235  1
