# generated using pymatgen
data_In2Te3
_symmetry_space_group_name_H-M   'P 1'
_cell_length_a   18.77842862
_cell_length_b   18.78011218
_cell_length_c   18.78744858
_cell_angle_alpha   90.09660827
_cell_angle_beta   90.02918730
_cell_angle_gamma   89.97810335
_symmetry_Int_Tables_number   1
_chemical_formula_structural   In2Te3
_chemical_formula_sum   'In72 Te108'
_cell_volume   6625.58957077
_cell_formula_units_Z   36
loop_
 _symmetry_equiv_pos_site_id
 _symmetry_equiv_pos_as_xyz
  1  'x, y, z'
loop_
 _atom_site_type_symbol
 _atom_site_label
 _atom_site_symmetry_multiplicity
 _atom_site_fract_x
 _atom_site_fract_y
 _atom_site_fract_z
 _atom_site_occupancy
  In  In0  1  0.81666959  0.86684003  0.29864816  1
  In  In1  1  0.64462807  0.83136233  0.49523420  1
  In  In2  1  0.50850094  0.49067280  0.35664034  1
  In  In3  1  0.17565900  0.66828433  0.84158192  1
  In  In4  1  0.67304608  0.31048847  0.32913327  1
  In  In5  1  0.34684488  0.32355517  0.64872833  1
  In  In6  1  0.48153967  0.68392276  0.85466264  1
  In  In7  1  -0.00343114  0.15497369  0.16646238  1
  In  In8  1  0.00702948  0.69666140  0.01241349  1
  In  In9  1  0.47909028  0.87897683  0.31643260  1
  In  In10  1  0.82290934  0.67066070  0.16445816  1
  In  In11  1  0.18649846  0.16080706  0.02977803  1
  In  In12  1  0.32635835  0.68853817  0.32585427  1
  In  In13  1  0.67688838  0.32091986  0.65904422  1
  In  In14  1  0.18469903  0.50067615  0.30731692  1
  In  In15  1  0.33426170  0.84382651  0.83053936  1
  In  In16  1  0.66113139  0.67596231  0.33062064  1
  In  In17  1  0.01074889  0.85883632  0.51297255  1
  In  In18  1  0.17636625  0.86510921  0.01455901  1
  In  In19  1  0.19124978  0.33571360  0.15920492  1
  In  In20  1  0.19011891  0.13010767  0.32223183  1
  In  In21  1  0.17372213  0.29960418  0.49196554  1
  In  In22  1  0.17672515  0.88432362  0.30679313  1
  In  In23  1  -0.01515510  0.50745573  0.81068416  1
  In  In24  1  0.33994424  0.86138822  0.50389317  1
  In  In25  1  0.82487935  0.01433837  0.84558304  1
  In  In26  1  0.68719573  0.85043755  0.16700714  1
  In  In27  1  0.82103062  0.49462154  -0.00034744  1
  In  In28  1  0.33485194  0.50129415  0.16833137  1
  In  In29  1  0.48476106  0.85028435  0.01134112  1
  In  In30  1  0.64599577  0.31550181  0.00210121  1
  In  In31  1  0.66046777  0.14180565  0.83057976  1
  In  In32  1  -0.00459630  0.82349201  0.84858544  1
  In  In33  1  0.49145498  0.30532831  0.49062263  1
  In  In34  1  0.50942763  0.33956819  0.86061596  1
  In  In35  1  0.64440447  0.87367654  0.82118085  1
  In  In36  1  0.82415463  0.83538336  0.65846912  1
  In  In37  1  0.49193334  0.14495208  0.02805929  1
  In  In38  1  0.17631663  0.51581379  0.02411304  1
  In  In39  1  0.82448990  -0.00899456  0.48678214  1
  In  In40  1  -0.02120406  0.15707061  0.84041508  1
  In  In41  1  0.82800290  0.16043209  0.31801528  1
  In  In42  1  0.16826273  -0.01455313  0.83501905  1
  In  In43  1  -0.00997220  0.30029477  0.01736066  1
  In  In44  1  0.66019790  0.48909304  0.85227667  1
  In  In45  1  0.02305173  -0.01137922  0.65289220  1
  In  In46  1  -0.01010292  0.48402120  0.51252180  1
  In  In47  1  0.49713005  0.66185275  0.51687421  1
  In  In48  1  0.00078412  0.34021335  0.32323436  1
  In  In49  1  -0.00408431  0.63828101  0.68728257  1
  In  In50  1  0.32807946  0.33846644  0.02008524  1
  In  In51  1  0.64716077  0.49262724  0.17570906  1
  In  In52  1  0.17360130  0.48754166  0.68792662  1
  In  In53  1  0.34042239  0.15132297  0.81319526  1
  In  In54  1  0.18014654  0.31568526  0.81358999  1
  In  In55  1  0.49229696  0.15201829  0.65454810  1
  In  In56  1  0.85880818  0.47142604  0.33797009  1
  In  In57  1  0.82548922  0.32928004  0.50905917  1
  In  In58  1  -0.00624202  0.49935129  0.20440051  1
  In  In59  1  0.68099801  0.01736060  0.02016828  1
  In  In60  1  0.49769333  0.67303337  0.14248194  1
  In  In61  1  0.81574363  0.65920388  0.51643464  1
  In  In62  1  -0.00257039  0.68558103  0.31072130  1
  In  In63  1  0.83434575  0.31183464  0.83198001  1
  In  In64  1  0.17433000  0.68091172  0.48662491  1
  In  In65  1  0.49632578  0.50190042  0.66203441  1
  In  In66  1  0.47963737  0.13102044  0.29640422  1
  In  In67  1  0.68000476  0.65987275  0.66295135  1
  In  In68  1  0.16640283  0.85902811  0.64942952  1
  In  In69  1  0.02324960  0.14783584  0.49563196  1
  In  In70  1  0.50537242  0.01238761  0.49229002  1
  In  In71  1  0.34051081  0.52436899  0.84873213  1
  Te  Te72  1  0.09095547  0.06338605  0.09285287  1
  Te  Te73  1  0.06906113  0.06722957  0.38034193  1
  Te  Te74  1  0.08596280  0.08518247  0.75352670  1
  Te  Te75  1  0.07863696  0.41447139  0.08950948  1
  Te  Te76  1  0.09174522  0.42825480  0.41011933  1
  Te  Te77  1  0.06756296  0.39419684  0.74415783  1
  Te  Te78  1  0.09881283  0.76949987  0.10042386  1
  Te  Te79  1  0.09174310  0.77470005  0.39929047  1
  Te  Te80  1  0.09386024  0.76059088  0.74772782  1
  Te  Te81  1  0.40310080  0.04682207  0.09869864  1
  Te  Te82  1  0.39401391  0.06422645  0.40391159  1
  Te  Te83  1  0.44755172  0.05622899  0.76353821  1
  Te  Te84  1  0.42993331  0.42263619  0.08565529  1
  Te  Te85  1  0.40831093  0.41239090  0.43045600  1
  Te  Te86  1  0.40651523  0.40788726  0.76341582  1
  Te  Te87  1  0.39645049  0.77245240  0.10385445  1
  Te  Te88  1  0.43185246  0.76131753  0.41758208  1
  Te  Te89  1  0.40727767  0.74834287  0.74500026  1
  Te  Te90  1  0.75927097  0.11589088  0.09862843  1
  Te  Te91  1  0.74294662  0.09504439  0.42033604  1
  Te  Te92  1  0.75101440  0.07630461  0.73510464  1
  Te  Te93  1  0.73945717  0.40393640  0.09004997  1
  Te  Te94  1  0.73994579  0.41727015  0.41664621  1
  Te  Te95  1  0.75099557  0.41421627  0.75529709  1
  Te  Te96  1  0.75105390  0.75809689  0.07000717  1
  Te  Te97  1  0.76516542  0.76365657  0.41297755  1
  Te  Te98  1  0.73896027  0.76267864  0.76015335  1
  Te  Te99  1  0.09697198  0.24901714  0.24733794  1
  Te  Te100  1  0.07602753  0.24972497  0.58840540  1
  Te  Te101  1  0.10038606  0.24249827  0.92625807  1
  Te  Te102  1  0.10299981  0.60427770  0.23181727  1
  Te  Te103  1  0.09661998  0.58486364  0.58059043  1
  Te  Te104  1  0.07737527  0.57770891  0.91473349  1
  Te  Te105  1  0.06936392  0.93067038  0.20200499  1
  Te  Te106  1  0.13087133  0.96122089  0.53447570  1
  Te  Te107  1  0.06353397  0.93045724  0.93304225  1
  Te  Te108  1  0.40530740  0.24377810  0.23747130  1
  Te  Te109  1  0.39030161  0.20919845  0.55744351  1
  Te  Te110  1  0.40859526  0.24105305  0.92149999  1
  Te  Te111  1  0.43397224  0.58987835  0.26284363  1
  Te  Te112  1  0.39785782  0.57248027  0.57863586  1
  Te  Te113  1  0.41410703  0.59549970  0.95382555  1
  Te  Te114  1  0.38544189  0.95051419  0.22291977  1
  Te  Te115  1  0.44440396  0.92023296  0.59500188  1
  Te  Te116  1  0.41009273  0.93713977  0.91583135  1
  Te  Te117  1  0.72864649  0.22047781  0.22050976  1
  Te  Te118  1  0.73900144  0.22240735  0.56708866  1
  Te  Te119  1  0.74531604  0.22950932  0.92302593  1
  Te  Te120  1  0.75961762  0.57345586  0.26432297  1
  Te  Te121  1  0.74762999  0.55142560  0.58848620  1
  Te  Te122  1  0.74249342  0.59112433  0.92186299  1
  Te  Te123  1  0.73265615  0.97883984  0.23745460  1
  Te  Te124  1  0.72521226  0.92466999  0.58743099  1
  Te  Te125  1  0.74911106  0.91424535  0.93043014  1
  Te  Te126  1  0.29797222  0.22436830  0.12593420  1
  Te  Te127  1  0.26574539  0.23220394  0.39916946  1
  Te  Te128  1  0.24841717  0.22281401  0.71490672  1
  Te  Te129  1  0.26999534  0.60823933  0.08830771  1
  Te  Te130  1  0.26320513  0.58011855  0.41349100  1
  Te  Te131  1  0.26509705  0.59954598  0.73890364  1
  Te  Te132  1  0.27667455  0.95034709  0.08795407  1
  Te  Te133  1  0.27931169  0.95197339  0.40027789  1
  Te  Te134  1  0.27033375  0.95174288  0.71841418  1
  Te  Te135  1  0.57251881  0.23978182  0.10692469  1
  Te  Te136  1  0.57206798  0.21917614  0.39644227  1
  Te  Te137  1  0.57173775  0.25193530  0.75252714  1
  Te  Te138  1  0.61675812  0.60636082  0.08647222  1
  Te  Te139  1  0.60209499  0.58406458  0.43667238  1
  Te  Te140  1  0.57531805  0.58578799  0.76262815  1
  Te  Te141  1  0.57648326  0.93662976  0.10146986  1
  Te  Te142  1  0.60003539  0.93515165  0.39279424  1
  Te  Te143  1  0.54741270  0.93671087  0.72952446  1
  Te  Te144  1  0.88527790  0.21601256  0.08259170  1
  Te  Te145  1  0.92051928  0.24923250  0.41499938  1
  Te  Te146  1  0.90877233  0.23048892  0.73459589  1
  Te  Te147  1  0.92667271  0.57770702  0.08906116  1
  Te  Te148  1  0.92717293  0.59365685  0.41430788  1
  Te  Te149  1  0.87682869  0.59558845  0.76172622  1
  Te  Te150  1  0.93754487  0.95160501  0.13601089  1
  Te  Te151  1  0.92607837  0.91588400  0.40038988  1
  Te  Te152  1  0.92193562  0.91571900  0.74762236  1
  Te  Te153  1  0.25473527  0.04373987  0.21636957  1
  Te  Te154  1  0.23534508  0.04671694  0.60500160  1
  Te  Te155  1  0.25695963  0.07938054  0.91913533  1
  Te  Te156  1  0.28507219  0.39347400  0.26700755  1
  Te  Te157  1  0.24541716  0.41228732  0.57726010  1
  Te  Te158  1  0.23944861  0.41767157  0.91422634  1
  Te  Te159  1  0.25463430  0.77843547  0.23426489  1
  Te  Te160  1  0.26287683  0.75666576  0.58500850  1
  Te  Te161  1  0.25558286  0.75857509  0.93111984  1
  Te  Te162  1  0.58958564  0.04520006  0.24420709  1
  Te  Te163  1  0.60072283  0.09603654  0.57163314  1
  Te  Te164  1  0.57050111  0.06356629  0.92463811  1
  Te  Te165  1  0.56481131  0.39221609  0.25420219  1
  Te  Te166  1  0.57612128  0.40282155  0.57788867  1
  Te  Te167  1  0.56102486  0.44243709  0.95851879  1
  Te  Te168  1  0.57526303  0.77009260  0.24919046  1
  Te  Te169  1  0.57521414  0.75655639  0.60826688  1
  Te  Te170  1  0.58413303  0.77289254  0.92241344  1
  Te  Te171  1  0.91712807  0.05663788  0.25207059  1
  Te  Te172  1  0.91828388  0.07299130  0.57849450  1
  Te  Te173  1  0.91896097  0.07191804  0.94390658  1
  Te  Te174  1  0.89560113  0.38198406  0.22004470  1
  Te  Te175  1  0.90251523  0.41359763  0.60532901  1
  Te  Te176  1  0.92648915  0.40493768  0.92110862  1
  Te  Te177  1  0.91780088  0.77848681  0.21930979  1
  Te  Te178  1  0.92930022  0.74797834  0.58330871  1
  Te  Te179  1  0.89840054  0.74535304  0.92680317  1
