# generated using pymatgen
data_In2Te3
_symmetry_space_group_name_H-M   'P 1'
_cell_length_a   18.84375085
_cell_length_b   18.85168087
_cell_length_c   18.85429187
_cell_angle_alpha   90.02954337
_cell_angle_beta   90.07993560
_cell_angle_gamma   90.04532864
_symmetry_Int_Tables_number   1
_chemical_formula_structural   In2Te3
_chemical_formula_sum   'In72 Te108'
_cell_volume   6697.72083137
_cell_formula_units_Z   36
loop_
 _symmetry_equiv_pos_site_id
 _symmetry_equiv_pos_as_xyz
  1  'x, y, z'
loop_
 _atom_site_type_symbol
 _atom_site_label
 _atom_site_symmetry_multiplicity
 _atom_site_fract_x
 _atom_site_fract_y
 _atom_site_fract_z
 _atom_site_occupancy
  In  In0  1  -0.00671856  0.83637656  0.50270284  1
  In  In1  1  0.33579577  0.00934645  0.62573591  1
  In  In2  1  0.65506298  0.49628138  0.82088873  1
  In  In3  1  0.17264096  0.35061437  0.13896235  1
  In  In4  1  0.82693438  0.67196857  0.17231270  1
  In  In5  1  -0.01381787  0.34348935  0.32407383  1
  In  In6  1  0.49465477  0.67172076  0.17886521  1
  In  In7  1  0.47443190  0.15246538  0.35979172  1
  In  In8  1  0.67343784  0.16747956  0.48695350  1
  In  In9  1  0.33480054  0.01197385  0.02288807  1
  In  In10  1  0.16004939  0.82633978  0.65809358  1
  In  In11  1  0.14658912  0.21268155  -0.01223306  1
  In  In12  1  0.17370554  0.31472006  0.50401394  1
  In  In13  1  0.50819535  0.19087446  0.65769052  1
  In  In14  1  0.31507003  0.51347109  0.14149787  1
  In  In15  1  0.85571117  0.17844792  0.00350062  1
  In  In16  1  0.84880843  0.01830717  0.84009180  1
  In  In17  1  0.66892263  0.49277530  0.50896567  1
  In  In18  1  0.00490853  0.17116072  0.16298942  1
  In  In19  1  0.64659724  0.18764801  0.81547248  1
  In  In20  1  0.47904455  0.18121956  0.00296497  1
  In  In21  1  0.49228626  0.01076658  0.84707566  1
  In  In22  1  0.01148469  0.65196885  -0.02689623  1
  In  In23  1  0.34188040  0.35521642  0.66700402  1
  In  In24  1  0.16379299  0.49647499  0.32327509  1
  In  In25  1  0.34494809  0.49705168  0.51037890  1
  In  In26  1  0.84461273  0.18952255  0.66740471  1
  In  In27  1  0.18559102  0.15705944  0.66109035  1
  In  In28  1  0.33363416  0.17623210  0.84897323  1
  In  In29  1  0.01156137  0.80537818  0.82251980  1
  In  In30  1  0.27934213  0.50809248  0.81649166  1
  In  In31  1  0.01931448  0.16031719  0.50200413  1
  In  In32  1  0.65540708  0.50550141  0.17647990  1
  In  In33  1  0.63684474  0.15948216  0.19912975  1
  In  In34  1  0.16302571  0.80186313  -0.01093421  1
  In  In35  1  0.49147223  0.63877779  0.84679941  1
  In  In36  1  0.50772686  0.63836211  0.51812815  1
  In  In37  1  0.32660257  0.67562034  0.32467679  1
  In  In38  1  0.29331910  0.79887578  0.86242011  1
  In  In39  1  0.49990702  0.83789004  0.33140774  1
  In  In40  1  0.17534305  0.83880774  0.32116217  1
  In  In41  1  0.84622755  0.51426425  0.67187565  1
  In  In42  1  0.32609081  0.34412059  -0.01905426  1
  In  In43  1  0.69740681  0.82697615  0.81371850  1
  In  In44  1  0.66330207  0.82649471  0.47599159  1
  In  In45  1  0.48528292  0.81458536  0.67318265  1
  In  In46  1  0.66768987  -0.01116869  0.64617705  1
  In  In47  1  0.18819764  0.16952535  0.34508707  1
  In  In48  1  0.83777157  0.82022360  0.35235428  1
  In  In49  1  0.49822701  0.32961109  0.18714729  1
  In  In50  1  -0.00060680  -0.01047399  0.64959700  1
  In  In51  1  0.15035766  0.65306010  0.53243713  1
  In  In52  1  0.65333034  0.83156303  0.18128096  1
  In  In53  1  0.50004655  0.34830286  0.50336019  1
  In  In54  1  0.00537676  0.65579018  0.32270104  1
  In  In55  1  0.16290882  0.01077107  0.18629521  1
  In  In56  1  0.83447196  0.79812355  0.65181038  1
  In  In57  1  -0.00951550  0.51545053  0.51735523  1
  In  In58  1  0.66295078  0.34508825  -0.02766891  1
  In  In59  1  0.82141161  0.16488621  0.32941904  1
  In  In60  1  0.82645750  0.35233494  0.51429642  1
  In  In61  1  0.66923245  0.64632213  -0.01074530  1
  In  In62  1  0.86971542  0.82455899  0.01361340  1
  In  In63  1  0.49992208  0.82173709  0.01585019  1
  In  In64  1  0.83431777  0.49840240  0.00025066  1
  In  In65  1  0.86980134  0.35888572  0.82395695  1
  In  In66  1  0.84396320  -0.01068195  0.17384388  1
  In  In67  1  0.67491309  -0.00427442  0.03359128  1
  In  In68  1  0.31914439  0.84651285  0.49247665  1
  In  In69  1  0.17154641  -0.02624324  0.81618476  1
  In  In70  1  0.85006746  0.32222864  0.18136959  1
  In  In71  1  0.33349610  0.82397831  0.17561537  1
  Te  Te72  1  0.09669196  0.09398983  0.07049093  1
  Te  Te73  1  0.09015744  0.07703735  0.40498105  1
  Te  Te74  1  0.08517221  0.07492041  0.74296713  1
  Te  Te75  1  0.05813246  0.40219719  0.06253043  1
  Te  Te76  1  0.07705381  0.41874591  0.42786860  1
  Te  Te77  1  0.12265210  0.41105440  0.80701113  1
  Te  Te78  1  0.04929159  0.75615007  0.07154245  1
  Te  Te79  1  0.09704110  0.74639796  0.42284696  1
  Te  Te80  1  0.13630546  0.73230285  0.77615993  1
  Te  Te81  1  0.43534386  0.08318523  0.10331808  1
  Te  Te82  1  0.37994600  0.07747410  0.44830293  1
  Te  Te83  1  0.41358446  0.08984616  0.74221334  1
  Te  Te84  1  0.41474948  0.41228486  0.08450479  1
  Te  Te85  1  0.40368641  0.41000045  0.40763875  1
  Te  Te86  1  0.40660827  0.46239658  0.74803558  1
  Te  Te87  1  0.39725151  0.72773777  0.07528620  1
  Te  Te88  1  0.41904127  0.74192534  0.42669110  1
  Te  Te89  1  0.39953915  0.73604329  0.76966968  1
  Te  Te90  1  0.75823183  0.10613295  0.10245529  1
  Te  Te91  1  0.76152335  0.06900732  0.42247174  1
  Te  Te92  1  0.74098227  0.08290623  0.74457093  1
  Te  Te93  1  0.74848717  0.40624944  0.08610826  1
  Te  Te94  1  0.75250917  0.41955641  0.40913433  1
  Te  Te95  1  0.75518947  0.41086672  0.74170101  1
  Te  Te96  1  0.73567124  0.76319981  0.07284627  1
  Te  Te97  1  0.76573113  0.72479744  0.43993580  1
  Te  Te98  1  0.74380076  0.71418875  0.73261716  1
  Te  Te99  1  0.09215598  0.26393064  0.24874098  1
  Te  Te100  1  0.07875629  0.25311283  0.60702706  1
  Te  Te101  1  0.09213970  0.26825242  0.86358434  1
  Te  Te102  1  0.08135316  0.57128401  0.22813947  1
  Te  Te103  1  0.07552664  0.56908273  0.63496967  1
  Te  Te104  1  0.04917238  0.55266677  0.86641121  1
  Te  Te105  1  0.07204455  0.91696488  0.25195342  1
  Te  Te106  1  0.10827232  0.92984339  0.56165663  1
  Te  Te107  1  0.07678054  0.90876541  0.91368180  1
  Te  Te108  1  0.41267801  0.22120809  0.24077056  1
  Te  Te109  1  0.39990201  0.25209499  0.57249777  1
  Te  Te110  1  0.43780457  0.27717487  0.89371415  1
  Te  Te111  1  0.41057423  0.57144129  0.25472602  1
  Te  Te112  1  0.41899917  0.57035991  0.61768580  1
  Te  Te113  1  0.37846554  0.57233033  0.91603818  1
  Te  Te114  1  0.39918101  0.92397952  0.26255247  1
  Te  Te115  1  0.43741904  0.91262690  0.56615167  1
  Te  Te116  1  0.40866307  0.90810821  0.92285427  1
  Te  Te117  1  0.73118835  0.26460313  0.25950452  1
  Te  Te118  1  0.73311306  0.25994635  0.59349812  1
  Te  Te119  1  0.76315889  0.25079264  0.90332134  1
  Te  Te120  1  0.73999871  0.59388052  0.25967722  1
  Te  Te121  1  0.76722266  0.58845575  0.57081605  1
  Te  Te122  1  0.76454797  0.57980054  0.89303444  1
  Te  Te123  1  0.74761158  0.91562264  0.26347984  1
  Te  Te124  1  0.76494344  0.90444317  0.56865464  1
  Te  Te125  1  0.75267263  0.92550025  0.92207573  1
  Te  Te126  1  0.26524221  0.24326842  0.07653708  1
  Te  Te127  1  0.27223839  0.27958217  0.40104048  1
  Te  Te128  1  0.25411875  0.25983902  0.75130445  1
  Te  Te129  1  0.20759090  0.56751964  0.05626226  1
  Te  Te130  1  0.24249631  0.58876990  0.42156723  1
  Te  Te131  1  0.21194928  0.60521607  0.72556803  1
  Te  Te132  1  0.24162885  0.90514772  0.07934039  1
  Te  Te133  1  0.27424855  0.93512394  0.38154071  1
  Te  Te134  1  0.27786606  0.90930187  0.73001707  1
  Te  Te135  1  0.59402904  0.25162207  0.07622322  1
  Te  Te136  1  0.57821736  0.25574227  0.40912870  1
  Te  Te137  1  0.57559337  0.29386240  0.74099601  1
  Te  Te138  1  0.56557484  0.58042803  0.07640916  1
  Te  Te139  1  0.57534840  0.56175379  0.41428643  1
  Te  Te140  1  0.58394541  0.59796458  0.74020531  1
  Te  Te141  1  0.55978385  0.92757064  0.10848071  1
  Te  Te142  1  0.58318231  0.93339573  0.41011499  1
  Te  Te143  1  0.57753715  0.92029566  0.75553877  1
  Te  Te144  1  0.95240960  0.28441674  0.06816985  1
  Te  Te145  1  0.91507748  0.25093552  0.42472797  1
  Te  Te146  1  0.93780431  0.23654177  0.77254355  1
  Te  Te147  1  0.91966964  0.59059020  0.08509579  1
  Te  Te148  1  0.91311385  0.59256170  0.41887772  1
  Te  Te149  1  0.95564824  0.58483858  0.74363658  1
  Te  Te150  1  0.93449858  0.94337012  0.06767586  1
  Te  Te151  1  0.91874325  0.92651961  0.41583178  1
  Te  Te152  1  0.91339412  0.91042744  0.74830861  1
  Te  Te153  1  0.26465150  0.10396542  0.23591371  1
  Te  Te154  1  0.25361877  0.09904929  0.53820173  1
  Te  Te155  1  0.24483731  0.07198783  0.91389675  1
  Te  Te156  1  0.26262822  0.41147212  0.24579095  1
  Te  Te157  1  0.23245567  0.42704457  0.58850347  1
  Te  Te158  1  0.21006070  0.43252937  0.93347325  1
  Te  Te159  1  0.22476685  0.72874541  0.22534497  1
  Te  Te160  1  0.26454650  0.73913513  0.58661585  1
  Te  Te161  1  0.24221357  0.67682319  0.95020939  1
  Te  Te162  1  0.58056911  0.06399681  0.29551354  1
  Te  Te163  1  0.57530572  0.08432677  0.57230678  1
  Te  Te164  1  0.59701133  0.08698430  0.92798077  1
  Te  Te165  1  0.57409677  0.42487129  0.27016676  1
  Te  Te166  1  0.58201865  0.41699977  0.60455777  1
  Te  Te167  1  0.56556301  0.44414296  0.92709768  1
  Te  Te168  1  0.59517000  0.72960178  0.27720150  1
  Te  Te169  1  0.59010609  0.74789121  0.58744730  1
  Te  Te170  1  0.59048526  0.75928919  0.91060821  1
  Te  Te171  1  0.93011277  0.08240443  0.26042429  1
  Te  Te172  1  0.90596871  0.08460832  0.57586045  1
  Te  Te173  1  0.94440094  0.09039328  0.92508459  1
  Te  Te174  1  0.90523696  0.44008235  0.24962183  1
  Te  Te175  1  0.93505091  0.40410446  0.60619658  1
  Te  Te176  1  0.95021471  0.43025210  0.92944050  1
  Te  Te177  1  0.92666926  0.76252200  0.24310307  1
  Te  Te178  1  0.96027226  0.73700660  0.60670338  1
  Te  Te179  1  0.89920428  0.73605239  0.89733763  1
