# generated using pymatgen
data_In2Te3
_symmetry_space_group_name_H-M   'P 1'
_cell_length_a   19.02112917
_cell_length_b   19.03651802
_cell_length_c   19.04529349
_cell_angle_alpha   90.06448729
_cell_angle_beta   89.89306111
_cell_angle_gamma   89.72249807
_symmetry_Int_Tables_number   1
_chemical_formula_structural   In2Te3
_chemical_formula_sum   'In72 Te108'
_cell_volume   6896.12855620
_cell_formula_units_Z   36
loop_
 _symmetry_equiv_pos_site_id
 _symmetry_equiv_pos_as_xyz
  1  'x, y, z'
loop_
 _atom_site_type_symbol
 _atom_site_label
 _atom_site_symmetry_multiplicity
 _atom_site_fract_x
 _atom_site_fract_y
 _atom_site_fract_z
 _atom_site_occupancy
  In  In0  1  0.32258889  0.51327189  0.84391255  1
  In  In1  1  0.50751541  -0.02300652  0.17157824  1
  In  In2  1  0.82009846  0.50386343  0.67855820  1
  In  In3  1  0.49828664  0.50731998  0.32251590  1
  In  In4  1  0.66829266  -0.01921698  0.01211703  1
  In  In5  1  0.66412438  0.50104272  0.84952870  1
  In  In6  1  0.19759563  0.84331410  0.01672251  1
  In  In7  1  0.84340255  0.14497029  0.33066805  1
  In  In8  1  0.48422164  0.17311195  0.69622932  1
  In  In9  1  0.02693485  0.83661779  0.17590136  1
  In  In10  1  -0.00272441  0.84613879  0.51322101  1
  In  In11  1  0.34698644  0.00145855  0.02531399  1
  In  In12  1  0.48535906  0.68730244  0.83819589  1
  In  In13  1  0.34374554  0.52127893  0.47947463  1
  In  In14  1  0.64129068  0.50249414  0.48492756  1
  In  In15  1  0.32493433  0.01650734  0.67859561  1
  In  In16  1  0.33344821  0.00278747  0.32346303  1
  In  In17  1  0.19731807  0.85088146  0.65150114  1
  In  In18  1  0.83879384  -0.03186959  0.17398221  1
  In  In19  1  -0.00176668  0.02394515  0.67744205  1
  In  In20  1  0.63653092  0.67253621  -0.01540078  1
  In  In21  1  0.65759546  0.81898383  0.46541726  1
  In  In22  1  0.03310131  0.82223024  0.84565853  1
  In  In23  1  0.16975897  0.65759759  0.49326637  1
  In  In24  1  0.31719777  0.17664115  0.47035636  1
  In  In25  1  -0.02072909  0.65861202  0.66465830  1
  In  In26  1  0.84800449  0.32778648  0.85483681  1
  In  In27  1  0.83271677  0.81629403  0.67390991  1
  In  In28  1  0.65785872  0.15171284  0.83781644  1
  In  In29  1  0.47735104  0.46848022  0.02162958  1
  In  In30  1  -0.00309820  0.65274068  -0.01421506  1
  In  In31  1  0.04806153  0.02687571  0.03595317  1
  In  In32  1  0.18605542  0.82801417  0.31660515  1
  In  In33  1  0.65494024  0.67638654  0.65340749  1
  In  In34  1  0.66258155  0.81088437  0.20711575  1
  In  In35  1  0.66730141  0.32040731  0.32537731  1
  In  In36  1  0.00433212  0.33622109  0.33083186  1
  In  In37  1  0.85752141  0.00643007  0.85697579  1
  In  In38  1  0.31272439  0.46200141  0.16277912  1
  In  In39  1  0.36548288  0.82001407  0.46613850  1
  In  In40  1  0.82626033  0.64012736  0.19188698  1
  In  In41  1  0.15214567  0.17103945  0.66280356  1
  In  In42  1  0.67238929  0.13817203  0.16234932  1
  In  In43  1  0.48038065  0.67126501  0.13706439  1
  In  In44  1  0.29119632  0.24793174  0.17585784  1
  In  In45  1  0.16409288  0.49681792  0.31792650  1
  In  In46  1  0.18560537  0.68783471  0.83115086  1
  In  In47  1  0.83147096  0.81721228  0.01611823  1
  In  In48  1  0.31902990  0.16681563  0.84713306  1
  In  In49  1  -0.01209820  0.66308895  0.33164706  1
  In  In50  1  0.48121638  0.51092916  0.65376643  1
  In  In51  1  0.69040535  0.32629584  -0.00145082  1
  In  In52  1  0.48234398  0.84590456  0.68462466  1
  In  In53  1  0.19688636  0.68357932  0.17150017  1
  In  In54  1  0.85629024  -0.00126273  0.48703122  1
  In  In55  1  0.49009365  0.18187613  -0.00381833  1
  In  In56  1  0.00725018  0.31638576  0.00780152  1
  In  In57  1  0.15325730  0.49273432  0.00329008  1
  In  In58  1  0.47447364  0.35772492  0.47851159  1
  In  In59  1  0.68402884  0.50579982  0.18871292  1
  In  In60  1  -0.00983724  0.33787171  0.67783382  1
  In  In61  1  0.84470290  0.49213222  0.33377406  1
  In  In62  1  0.80239511  0.18281187  0.67746729  1
  In  In63  1  0.65151489  -0.02030974  0.65203464  1
  In  In64  1  0.04054933  0.17350322  0.86272027  1
  In  In65  1  0.83298749  0.48480270  0.00083073  1
  In  In66  1  0.16860044  0.49157289  0.67009473  1
  In  In67  1  0.14958833  0.16809732  0.32930930  1
  In  In68  1  0.67827213  0.18624652  0.50192605  1
  In  In69  1  0.01890237  0.17813372  0.48228032  1
  In  In70  1  0.33200312  0.34970046  0.65408014  1
  In  In71  1  0.51837182  -0.00938868  0.48852183  1
  Te  Te72  1  0.09389982  0.14844182  0.10650374  1
  Te  Te73  1  0.07686135  0.06745503  0.40923498  1
  Te  Te74  1  0.10688740  0.07361484  0.76928621  1
  Te  Te75  1  0.08214605  0.40519083  0.09859812  1
  Te  Te76  1  0.06631121  0.44336567  0.41267496  1
  Te  Te77  1  0.08880353  0.40858264  0.75785888  1
  Te  Te78  1  0.08668592  0.74247526  0.07047160  1
  Te  Te79  1  0.08580834  0.75610954  0.41294656  1
  Te  Te80  1  0.09067721  0.75455268  0.72345490  1
  Te  Te81  1  0.43272543  0.09449042  0.10514149  1
  Te  Te82  1  0.42540965  0.08474144  0.41220808  1
  Te  Te83  1  0.42106604  0.06918901  0.78282438  1
  Te  Te84  1  0.40301692  0.36399029  0.09579795  1
  Te  Te85  1  0.38419177  0.40496515  0.36549355  1
  Te  Te86  1  0.41438148  0.42275951  0.75572627  1
  Te  Te87  1  0.40031896  0.76655957  0.04732436  1
  Te  Te88  1  0.45992020  0.73403595  0.39396084  1
  Te  Te89  1  0.38945770  0.75960795  0.75544370  1
  Te  Te90  1  0.77293511  0.06517587  0.07574121  1
  Te  Te91  1  0.74218372  0.07666307  0.42019779  1
  Te  Te92  1  0.75964817  0.05862095  0.74977025  1
  Te  Te93  1  0.76250475  0.40437931  0.10859390  1
  Te  Te94  1  0.74283407  0.41431305  0.41463368  1
  Te  Te95  1  0.74868005  0.40400032  0.76967935  1
  Te  Te96  1  0.74202637  0.72528538  0.09521895  1
  Te  Te97  1  0.74068603  0.72227349  0.39792359  1
  Te  Te98  1  0.73723416  0.74179277  0.75340429  1
  Te  Te99  1  0.04565944  0.22537858  0.23557362  1
  Te  Te100  1  0.08612480  0.27460513  0.57663998  1
  Te  Te101  1  0.12667013  0.27678590  0.92408239  1
  Te  Te102  1  0.08845062  0.60050533  0.23636413  1
  Te  Te103  1  0.07808388  0.57773890  0.58270712  1
  Te  Te104  1  0.09341299  0.58584558  0.89284804  1
  Te  Te105  1  0.11963385  0.93298190  0.23500726  1
  Te  Te106  1  0.08839858  0.93789037  0.58959546  1
  Te  Te107  1  0.09983821  0.92516874  0.92946499  1
  Te  Te108  1  0.39363375  0.28272180  0.27147777  1
  Te  Te109  1  0.41563400  0.24756124  0.57503843  1
  Te  Te110  1  0.41916795  0.26030117  0.89696855  1
  Te  Te111  1  0.40571737  0.56981143  0.22238218  1
  Te  Te112  1  0.41901907  0.61068108  0.56761097  1
  Te  Te113  1  0.42817810  0.57725832  0.93106161  1
  Te  Te114  1  0.39904240  0.90000571  0.23803785  1
  Te  Te115  1  0.40745246  0.93268593  0.57348574  1
  Te  Te116  1  0.42211412  0.88903318  0.96703961  1
  Te  Te117  1  0.75864379  0.23519077  0.24234832  1
  Te  Te118  1  0.75048237  0.28171256  0.58506883  1
  Te  Te119  1  0.76681623  0.21646028  0.92124550  1
  Te  Te120  1  0.71919763  0.60594749  0.29743973  1
  Te  Te121  1  0.73665553  0.58124237  0.57128961  1
  Te  Te122  1  0.75449980  0.59178606  0.92737512  1
  Te  Te123  1  0.74025626  0.91718187  0.26899584  1
  Te  Te124  1  0.76352482  0.91166062  0.57606522  1
  Te  Te125  1  0.76069735  0.90601502  0.91530667  1
  Te  Te126  1  0.22304792  0.21195176  0.04827862  1
  Te  Te127  1  0.21332377  0.26480947  0.42114464  1
  Te  Te128  1  0.25241880  0.25331097  0.73909205  1
  Te  Te129  1  0.25378838  0.57723376  0.08067124  1
  Te  Te130  1  0.25804393  0.60064079  0.38481597  1
  Te  Te131  1  0.25859608  0.59395077  0.73414855  1
  Te  Te132  1  0.23795124  0.94636267  0.11326113  1
  Te  Te133  1  0.25514685  0.91343639  0.42007154  1
  Te  Te134  1  0.25848250  0.91905087  0.76447608  1
  Te  Te135  1  0.59727368  0.24542102  0.08489566  1
  Te  Te136  1  0.57006126  0.25378032  0.41757449  1
  Te  Te137  1  0.59308407  0.25029207  0.75301202  1
  Te  Te138  1  0.58924928  0.56456435  0.08399173  1
  Te  Te139  1  0.53947198  0.60164182  0.43419357  1
  Te  Te140  1  0.57605891  0.58319376  0.75492849  1
  Te  Te141  1  0.59096250  0.88033223  0.09130876  1
  Te  Te142  1  0.58843526  0.91831133  0.38210182  1
  Te  Te143  1  0.57411235  0.92877158  0.76258841  1
  Te  Te144  1  0.87097937  0.27519284  0.04126583  1
  Te  Te145  1  0.90739497  0.25340445  0.41481831  1
  Te  Te146  1  0.92532746  0.22404775  0.76755525  1
  Te  Te147  1  0.91952300  0.57485999  0.08841504  1
  Te  Te148  1  0.93131441  0.56720426  0.42494725  1
  Te  Te149  1  0.91129543  0.57969409  0.76420132  1
  Te  Te150  1  0.94238316  0.90550714  0.06717521  1
  Te  Te151  1  0.94114937  0.91849611  0.39939756  1
  Te  Te152  1  0.93190157  0.91212711  0.75751338  1
  Te  Te153  1  0.26321514  0.11308381  0.24710867  1
  Te  Te154  1  0.24463105  0.09045283  0.57456540  1
  Te  Te155  1  0.24850552  0.08435555  0.94848879  1
  Te  Te156  1  0.20081096  0.38437420  0.22291156  1
  Te  Te157  1  0.25059621  0.43058384  0.55604823  1
  Te  Te158  1  0.25117127  0.41492049  0.92478039  1
  Te  Te159  1  0.29701494  0.77076364  0.23504670  1
  Te  Te160  1  0.26686325  0.74980044  0.56311421  1
  Te  Te161  1  0.27279014  0.74003129  0.93839272  1
  Te  Te162  1  0.57818192  0.07610907  0.25308021  1
  Te  Te163  1  0.57936337  0.09670219  0.58854829  1
  Te  Te164  1  0.57667930  0.06940241  0.93185198  1
  Te  Te165  1  0.57781361  0.40972107  0.23995400  1
  Te  Te166  1  0.57025083  0.41107510  0.58352591  1
  Te  Te167  1  0.58050416  0.40370932  0.92766388  1
  Te  Te168  1  0.54571661  0.73175682  0.25582756  1
  Te  Te169  1  0.56949622  0.77499511  0.57997526  1
  Te  Te170  1  0.57663744  0.77950435  0.90659470  1
  Te  Te171  1  0.92323555  0.07281980  0.23038871  1
  Te  Te172  1  0.91073639  0.10367679  0.58343564  1
  Te  Te173  1  0.94323302  0.09237208  0.94666130  1
  Te  Te174  1  0.91850115  0.41266501  0.23855762  1
  Te  Te175  1  0.89977099  0.41440099  0.59338221  1
  Te  Te176  1  0.94077016  0.42672403  0.91418607  1
  Te  Te177  1  0.91413941  0.75695573  0.23749847  1
  Te  Te178  1  0.90257080  0.73990542  0.56310760  1
  Te  Te179  1  0.91454446  0.74958339  0.90374525  1
