# generated using pymatgen
data_In2Te3
_symmetry_space_group_name_H-M   'P 1'
_cell_length_a   18.75412795
_cell_length_b   18.75394756
_cell_length_c   18.76332072
_cell_angle_alpha   89.97866456
_cell_angle_beta   90.07629080
_cell_angle_gamma   90.00556543
_symmetry_Int_Tables_number   1
_chemical_formula_structural   In2Te3
_chemical_formula_sum   'In72 Te108'
_cell_volume   6599.31496845
_cell_formula_units_Z   36
loop_
 _symmetry_equiv_pos_site_id
 _symmetry_equiv_pos_as_xyz
  1  'x, y, z'
loop_
 _atom_site_type_symbol
 _atom_site_label
 _atom_site_symmetry_multiplicity
 _atom_site_fract_x
 _atom_site_fract_y
 _atom_site_fract_z
 _atom_site_occupancy
  In  In0  1  -0.01070496  0.80083862  0.85372324  1
  In  In1  1  0.85251688  0.49907354  0.34573828  1
  In  In2  1  0.63929988  0.15199240  0.82612860  1
  In  In3  1  0.64945595  -0.01172500  0.32586934  1
  In  In4  1  0.51704600  0.66048904  0.17028710  1
  In  In5  1  0.82808381  0.17414343  -0.00849338  1
  In  In6  1  0.50946569  0.31204082  0.12207540  1
  In  In7  1  0.16737799  0.81746307  0.01540268  1
  In  In8  1  -0.00149236  0.14130116  0.16235242  1
  In  In9  1  0.19151373  0.64934906  0.80546276  1
  In  In10  1  0.01228363  0.84884009  0.50863878  1
  In  In11  1  0.50502245  -0.01682472  0.49973984  1
  In  In12  1  0.50466658  0.51677592  0.33919901  1
  In  In13  1  0.65938650  -0.00493894  -0.01470008  1
  In  In14  1  0.16064348  0.84328447  0.31762074  1
  In  In15  1  0.18683976  0.32131726  0.14474298  1
  In  In16  1  0.80837409  0.32928315  0.83655854  1
  In  In17  1  0.33501915  0.17840012  0.52226518  1
  In  In18  1  0.01757721  0.33253860  -0.01005886  1
  In  In19  1  0.18045400  0.67033117  0.52438374  1
  In  In20  1  0.35309171  0.49505093  0.15429386  1
  In  In21  1  0.67316984  0.32614312  0.31539928  1
  In  In22  1  0.01622354  0.35341652  0.68666051  1
  In  In23  1  -0.00389084  0.66479067  0.68023371  1
  In  In24  1  0.00862643  0.17166795  0.84646282  1
  In  In25  1  0.66096958  0.67042568  0.65624824  1
  In  In26  1  0.79559793  0.33278393  0.17011104  1
  In  In27  1  0.63635700  0.49492441  0.52639480  1
  In  In28  1  0.34022830  0.13813939  0.84371816  1
  In  In29  1  0.81323096  0.68724747  0.14741369  1
  In  In30  1  0.48496178  0.18218017  0.69429179  1
  In  In31  1  -0.00180240  0.32567349  0.35023965  1
  In  In32  1  0.80230755  0.16881658  0.66399750  1
  In  In33  1  -0.01718941  0.53307150  0.15676527  1
  In  In34  1  0.00224985  0.51562824  0.50333654  1
  In  In35  1  0.15793830  0.01641855  0.50835603  1
  In  In36  1  0.00815082  -0.01306933  0.66835096  1
  In  In37  1  0.17806437  0.16116110  0.34357845  1
  In  In38  1  0.47673419  -0.01240269  0.15825958  1
  In  In39  1  0.00480879  0.16980887  0.48416064  1
  In  In40  1  0.32997725  0.83587730  0.17373271  1
  In  In41  1  0.65508967  0.65561445  0.34539192  1
  In  In42  1  0.00853827  0.50853381  0.83457295  1
  In  In43  1  0.33008264  -0.01768618  0.32038235  1
  In  In44  1  0.34339789  0.34586650  0.34025257  1
  In  In45  1  0.33411306  0.34925967  0.66018405  1
  In  In46  1  0.48965636  0.33955103  0.83164445  1
  In  In47  1  0.15154311  0.52242966  0.34149550  1
  In  In48  1  0.67522681  0.83377384  0.83850832  1
  In  In49  1  0.16321013  0.16450289  0.67724177  1
  In  In50  1  0.65393149  0.51004122  0.15042102  1
  In  In51  1  0.49481873  0.82661275  0.68571528  1
  In  In52  1  0.33474563  0.51953054  0.53348722  1
  In  In53  1  0.83547141  0.52811935  0.01612345  1
  In  In54  1  0.50723522  0.16638528  0.33150989  1
  In  In55  1  0.66239597  0.00181309  0.67858206  1
  In  In56  1  0.33837490  0.66390429  -0.01992854  1
  In  In57  1  0.35445849  0.79602618  0.50310746  1
  In  In58  1  0.48105068  0.66042390  0.82452918  1
  In  In59  1  0.66403151  0.50095161  0.83583378  1
  In  In60  1  0.82266995  0.83859901  0.67393938  1
  In  In61  1  0.18552167  0.50142761  -0.02093283  1
  In  In62  1  0.66930222  0.18046911  0.49628977  1
  In  In63  1  0.48999275  0.85274960  -0.02537876  1
  In  In64  1  -0.00987630  0.65796374  0.32289790  1
  In  In65  1  0.33578395  0.16410210  0.12427861  1
  In  In66  1  0.01098241  -0.00172973  0.01033105  1
  In  In67  1  0.82540293  -0.01780948  0.51061479  1
  In  In68  1  0.84201305  -0.01073501  0.14797089  1
  In  In69  1  0.85305839  0.33730179  0.50938912  1
  In  In70  1  0.14991620  -0.01250989  0.13941509  1
  In  In71  1  0.81462720  0.81973019  0.33371871  1
  Te  Te72  1  0.10675723  0.11126515  0.05990328  1
  Te  Te73  1  0.06984221  0.06503984  0.39318880  1
  Te  Te74  1  0.09099267  0.06649577  0.76967337  1
  Te  Te75  1  0.08523738  0.43258499  0.08601691  1
  Te  Te76  1  0.09176853  0.41394447  0.43227443  1
  Te  Te77  1  0.11371062  0.42212711  0.77353724  1
  Te  Te78  1  0.07492956  0.73120248  0.09079454  1
  Te  Te79  1  0.08229475  0.74179746  0.42170417  1
  Te  Te80  1  0.09501047  0.75753153  0.75029286  1
  Te  Te81  1  0.44112669  0.08811156  0.05102978  1
  Te  Te82  1  0.40630459  0.08495970  0.41481668  1
  Te  Te83  1  0.42046156  0.05764408  0.74272824  1
  Te  Te84  1  0.42212949  0.41063558  0.05455064  1
  Te  Te85  1  0.42271058  0.43125156  0.43601761  1
  Te  Te86  1  0.39657050  0.44028403  0.76292435  1
  Te  Te87  1  0.41983829  0.75270900  0.07883644  1
  Te  Te88  1  0.44565080  0.72631723  0.41271768  1
  Te  Te89  1  0.38519901  0.75725508  0.75977982  1
  Te  Te90  1  0.74150164  0.08493104  0.07974185  1
  Te  Te91  1  0.74233520  0.07178428  0.41768437  1
  Te  Te92  1  0.76064519  0.07185290  0.77283999  1
  Te  Te93  1  0.73579311  0.41707470  0.06012332  1
  Te  Te94  1  0.74689255  0.41713330  0.41809315  1
  Te  Te95  1  0.75707751  0.43001197  0.74290505  1
  Te  Te96  1  0.76028366  0.76731503  0.03465613  1
  Te  Te97  1  0.74638916  0.73379197  0.43263951  1
  Te  Te98  1  0.75702677  0.73144222  0.76001088  1
  Te  Te99  1  0.08697180  0.25002780  0.25018115  1
  Te  Te100  1  0.08123548  0.25520515  0.58337416  1
  Te  Te101  1  0.11485546  0.26273256  0.90028915  1
  Te  Te102  1  0.10000188  0.61111405  0.22715273  1
  Te  Te103  1  0.09684571  0.57327520  0.60832196  1
  Te  Te104  1  0.09432926  0.60718336  0.91478921  1
  Te  Te105  1  0.06367272  0.92104779  0.23888747  1
  Te  Te106  1  0.11892505  0.90237473  0.60524916  1
  Te  Te107  1  0.08639101  0.90273091  0.91572815  1
  Te  Te108  1  0.40769604  0.24869045  0.23968613  1
  Te  Te109  1  0.44218704  0.27331775  0.57723056  1
  Te  Te110  1  0.43857632  0.22641564  0.91639758  1
  Te  Te111  1  0.40615961  0.59832115  0.25526889  1
  Te  Te112  1  0.41412849  0.59795528  0.63203707  1
  Te  Te113  1  0.41447107  0.55762801  0.91128267  1
  Te  Te114  1  0.43851631  0.88906407  0.27084680  1
  Te  Te115  1  0.40434689  0.91524557  0.58802278  1
  Te  Te116  1  0.37986354  0.92124599  0.90494088  1
  Te  Te117  1  0.74764716  0.21742623  0.24823725  1
  Te  Te118  1  0.73387334  0.28398341  0.59131495  1
  Te  Te119  1  0.70971451  0.25122652  0.92788736  1
  Te  Te120  1  0.76324371  0.57463304  0.24473423  1
  Te  Te121  1  0.74687438  0.57918314  0.57473227  1
  Te  Te122  1  0.74507342  0.59628261  0.92114152  1
  Te  Te123  1  0.74008962  0.90727734  0.23291624  1
  Te  Te124  1  0.71793215  0.89933280  0.57997017  1
  Te  Te125  1  0.76801032  0.91057118  0.92687456  1
  Te  Te126  1  0.27422458  0.26983660  0.03247348  1
  Te  Te127  1  0.24747106  0.26492076  0.43055966  1
  Te  Te128  1  0.26857316  0.24436221  0.75040082  1
  Te  Te129  1  0.25395512  0.58960669  0.08431978  1
  Te  Te130  1  0.26075111  0.59568907  0.41736496  1
  Te  Te131  1  0.29712897  0.56938918  0.72793276  1
  Te  Te132  1  0.27135352  0.92902793  0.06888367  1
  Te  Te133  1  0.24855924  0.91363902  0.42924894  1
  Te  Te134  1  0.27947875  0.97416110  0.79661913  1
  Te  Te135  1  0.63185410  0.25063972  0.07421182  1
  Te  Te136  1  0.57242707  0.27145533  0.41916880  1
  Te  Te137  1  0.59868262  0.27455636  0.74074954  1
  Te  Te138  1  0.57062484  0.58480446  0.05500303  1
  Te  Te139  1  0.54376910  0.61115371  0.45483998  1
  Te  Te140  1  0.56506523  0.57544255  0.72908857  1
  Te  Te141  1  0.58307124  0.90418100  0.08425273  1
  Te  Te142  1  0.58239521  0.89094301  0.41551997  1
  Te  Te143  1  0.57118422  0.92680107  0.77415357  1
  Te  Te144  1  0.91909160  0.25633028  0.08452234  1
  Te  Te145  1  0.88967347  0.23223906  0.40385178  1
  Te  Te146  1  0.91494849  0.24563783  0.74681761  1
  Te  Te147  1  0.95269508  0.63879467  0.04627413  1
  Te  Te148  1  0.90073460  0.60975918  0.43793902  1
  Te  Te149  1  0.90436978  0.58779810  0.76620353  1
  Te  Te150  1  0.92950228  0.89384599  0.07588494  1
  Te  Te151  1  0.91529717  0.91287907  0.40949485  1
  Te  Te152  1  0.91840420  0.91190531  0.76573019  1
  Te  Te153  1  0.25299169  0.08356700  0.23438458  1
  Te  Te154  1  0.26331773  0.07271648  0.60363554  1
  Te  Te155  1  0.25148829  0.04916424  0.92399737  1
  Te  Te156  1  0.24392162  0.42550652  0.25209325  1
  Te  Te157  1  0.23368493  0.41973417  0.57680832  1
  Te  Te158  1  0.24604868  0.37930222  0.92299215  1
  Te  Te159  1  0.25388175  0.74503750  0.26102919  1
  Te  Te160  1  0.26900426  0.74796146  0.61603510  1
  Te  Te161  1  0.25073442  0.75831493  0.89883461  1
  Te  Te162  1  0.57777517  0.08347168  0.22801106  1
  Te  Te163  1  0.57882338  0.09440689  0.58770759  1
  Te  Te164  1  0.55017823  0.08040830  0.92339148  1
  Te  Te165  1  0.56685521  0.41515159  0.24123258  1
  Te  Te166  1  0.57734235  0.38599487  0.60320291  1
  Te  Te167  1  0.57173864  0.42399476  0.92400400  1
  Te  Te168  1  0.61792182  0.74724533  0.23493272  1
  Te  Te169  1  0.57148617  0.76067343  0.57797835  1
  Te  Te170  1  0.57638381  0.74337437  0.91380724  1
  Te  Te171  1  0.90717003  0.07298088  0.25368211  1
  Te  Te172  1  0.91626273  0.08651312  0.58744374  1
  Te  Te173  1  0.91409817  0.07408636  0.91606958  1
  Te  Te174  1  0.92622005  0.41196531  0.24359270  1
  Te  Te175  1  0.91661990  0.43728146  0.60488954  1
  Te  Te176  1  0.90686652  0.41615647  0.92233508  1
  Te  Te177  1  0.91641618  0.75872871  0.23561945  1
  Te  Te178  1  0.91698913  0.75716715  0.58548268  1
  Te  Te179  1  0.88097987  0.73903642  0.93779140  1
