# generated using pymatgen
data_In2Te3
_symmetry_space_group_name_H-M   'P 1'
_cell_length_a   18.78374260
_cell_length_b   18.78645554
_cell_length_c   18.78914599
_cell_angle_alpha   89.93546009
_cell_angle_beta   89.96495046
_cell_angle_gamma   90.03525103
_symmetry_Int_Tables_number   1
_chemical_formula_structural   In2Te3
_chemical_formula_sum   'In72 Te108'
_cell_volume   6630.30610350
_cell_formula_units_Z   36
loop_
 _symmetry_equiv_pos_site_id
 _symmetry_equiv_pos_as_xyz
  1  'x, y, z'
loop_
 _atom_site_type_symbol
 _atom_site_label
 _atom_site_symmetry_multiplicity
 _atom_site_fract_x
 _atom_site_fract_y
 _atom_site_fract_z
 _atom_site_occupancy
  In  In0  1  0.17470054  0.83941807  0.00964868  1
  In  In1  1  0.00851107  0.15628991  0.49775774  1
  In  In2  1  0.65833283  0.17645145  0.83265670  1
  In  In3  1  0.82800470  0.01200020  0.14800090  1
  In  In4  1  0.15547878  0.64385329  0.82717458  1
  In  In5  1  -0.01224437  0.51442669  0.16994036  1
  In  In6  1  0.35383711  0.82242018  0.80147258  1
  In  In7  1  0.02580207  0.31959979  0.30100278  1
  In  In8  1  0.64706535  0.02587198  0.34000978  1
  In  In9  1  0.17836556  0.46770582  -0.00784825  1
  In  In10  1  0.50440981  0.51526499  0.66394568  1
  In  In11  1  0.32911407  0.68684944  0.67845019  1
  In  In12  1  0.50345217  0.65505602  0.85692828  1
  In  In13  1  -0.00430754  0.48887540  0.81176180  1
  In  In14  1  0.84211635  0.16008935  0.67254822  1
  In  In15  1  0.34120573  0.32205208  0.00891375  1
  In  In16  1  0.32927387  0.47288460  0.16310889  1
  In  In17  1  0.29969443  0.00785250  0.33214115  1
  In  In18  1  0.80015499  0.67445326  0.17661102  1
  In  In19  1  0.67298402  0.00549406  -0.00512764  1
  In  In20  1  0.83283255  0.35420781  0.49613515  1
  In  In21  1  0.50000348  0.16051879  0.00825408  1
  In  In22  1  0.18248987  0.31853685  0.17861156  1
  In  In23  1  0.65042477  0.16044087  0.48972767  1
  In  In24  1  -0.01342215  0.86183359  0.17258808  1
  In  In25  1  0.18288765  0.14802124  0.65781493  1
  In  In26  1  0.18485176  0.68511351  0.17961242  1
  In  In27  1  0.65963574  0.31732824  -0.00505636  1
  In  In28  1  0.17208636  0.48594642  0.67676895  1
  In  In29  1  0.81528151  0.17522919  0.32770908  1
  In  In30  1  0.17048729  0.84657936  0.65747300  1
  In  In31  1  0.84459317  0.83268831  0.33723418  1
  In  In32  1  0.49654604  0.00054657  0.51391112  1
  In  In33  1  -0.03027670  0.82277124  0.82152915  1
  In  In34  1  0.49698507  0.83399507  -0.00105996  1
  In  In35  1  0.16026042  0.01196581  0.83684475  1
  In  In36  1  0.00100820  0.31755688  0.67004171  1
  In  In37  1  0.80107099  0.53049420  -0.03235698  1
  In  In38  1  0.35964496  0.66400685  0.34833329  1
  In  In39  1  0.79018933  0.52467642  0.31909126  1
  In  In40  1  0.67008331  0.50424185  0.49724898  1
  In  In41  1  0.00539616  0.16862623  0.83626612  1
  In  In42  1  0.35017809  0.67307600  -0.00912526  1
  In  In43  1  0.02534173  0.00768117  0.34427150  1
  In  In44  1  0.52875825  0.51298653  0.01997628  1
  In  In45  1  0.65947751  0.83860149  0.16116546  1
  In  In46  1  -0.00090157  0.32251245  -0.01028113  1
  In  In47  1  0.16710076  0.68942381  0.49452809  1
  In  In48  1  0.80320716  0.51273111  0.67737224  1
  In  In49  1  0.66069551  0.34234607  0.68106562  1
  In  In50  1  0.66984358  0.65824246  0.33266681  1
  In  In51  1  -0.02936740  0.67817736  0.63628118  1
  In  In52  1  -0.00727201  0.00572355  0.01340809  1
  In  In53  1  0.50937159  0.47403557  0.31933366  1
  In  In54  1  0.48872043  0.18409956  0.30779481  1
  In  In55  1  0.34081742  0.48415587  0.48758914  1
  In  In56  1  0.82018613  -0.01429506  0.84254551  1
  In  In57  1  0.83645989  0.66770490  0.52285312  1
  In  In58  1  0.34775298  0.85130262  0.15425519  1
  In  In59  1  0.02051407  0.18268699  0.16949641  1
  In  In60  1  0.01819676  0.69278501  0.38163170  1
  In  In61  1  -0.02405792  0.69364597  -0.03060014  1
  In  In62  1  0.82125166  0.33369883  0.16991265  1
  In  In63  1  0.48893414  0.84855303  0.34529888  1
  In  In64  1  0.00581969  0.82258503  0.51721797  1
  In  In65  1  0.34025746  0.00483379  -0.00840094  1
  In  In66  1  0.32409955  0.17794698  0.49398576  1
  In  In67  1  0.01616402  0.48969245  0.48115004  1
  In  In68  1  0.62864406  0.86221477  0.59424247  1
  In  In69  1  0.49876272  0.33162386  0.83940981  1
  In  In70  1  0.34147645  0.30308069  0.66674678  1
  In  In71  1  0.17956537  0.47449533  0.30252213  1
  Te  Te72  1  0.09245477  0.09355103  0.07629156  1
  Te  Te73  1  0.11575939  0.06162103  0.45085816  1
  Te  Te74  1  0.06792697  0.07592978  0.73372858  1
  Te  Te75  1  0.07974820  0.41138402  0.10300338  1
  Te  Te76  1  0.10709544  0.39108521  0.41259023  1
  Te  Te77  1  0.09898123  0.38695981  0.76838437  1
  Te  Te78  1  0.07815807  0.74471209  0.08392961  1
  Te  Te79  1  0.12148258  0.80878114  0.40094987  1
  Te  Te80  1  0.08159953  0.74348949  0.73693268  1
  Te  Te81  1  0.41244051  0.07883111  0.09724389  1
  Te  Te82  1  0.42322957  0.07923707  0.40688157  1
  Te  Te83  1  0.44221148  0.02739162  0.70887918  1
  Te  Te84  1  0.44464138  0.40308064  0.09031167  1
  Te  Te85  1  0.44363143  0.39471138  0.42858737  1
  Te  Te86  1  0.41685354  0.41564802  0.74196351  1
  Te  Te87  1  0.43322014  0.73562285  0.10017881  1
  Te  Te88  1  0.43126477  0.75174755  0.44215997  1
  Te  Te89  1  0.46812793  0.74369123  0.72599757  1
  Te  Te90  1  0.74072568  0.10741464  0.07931004  1
  Te  Te91  1  0.76259564  0.07415861  0.42960258  1
  Te  Te92  1  0.73872417  0.07749097  0.74760847  1
  Te  Te93  1  0.75180633  0.42251216  0.06775007  1
  Te  Te94  1  0.72589452  0.40233868  0.39505921  1
  Te  Te95  1  0.75750131  0.40843976  0.77047133  1
  Te  Te96  1  0.72105422  0.74002064  0.06481508  1
  Te  Te97  1  0.75020626  0.75150695  0.42445513  1
  Te  Te98  1  0.78936610  0.70977944  0.77357284  1
  Te  Te99  1  0.12988809  0.20231701  0.28569778  1
  Te  Te100  1  0.09810970  0.25235554  0.57669565  1
  Te  Te101  1  0.10041763  0.23606692  0.92846668  1
  Te  Te102  1  0.08246592  0.59215364  0.26264311  1
  Te  Te103  1  0.09144771  0.58330628  0.58619077  1
  Te  Te104  1  0.07227152  0.57002273  0.93249304  1
  Te  Te105  1  0.09674875  0.93331562  0.23658775  1
  Te  Te106  1  0.08060620  0.93436329  0.57974597  1
  Te  Te107  1  0.07123328  0.90377171  0.91467504  1
  Te  Te108  1  0.40466439  0.27295261  0.22147810  1
  Te  Te109  1  0.43419638  0.22772141  0.58053269  1
  Te  Te110  1  0.40893198  0.22888374  0.90441591  1
  Te  Te111  1  0.41935699  0.57245843  0.24027497  1
  Te  Te112  1  0.40173689  0.58997712  0.57846701  1
  Te  Te113  1  0.41082180  0.55201100  0.92555200  1
  Te  Te114  1  0.42159072  0.94384579  0.24884741  1
  Te  Te115  1  0.41925930  0.91656812  0.61340437  1
  Te  Te116  1  0.42517605  0.92056340  0.89496370  1
  Te  Te117  1  0.71753704  0.25837169  0.24990561  1
  Te  Te118  1  0.75223790  0.25697763  0.58048621  1
  Te  Te119  1  0.76003573  0.24131095  0.91753933  1
  Te  Te120  1  0.68981569  0.56308867  0.20519093  1
  Te  Te121  1  0.71397746  0.61154897  0.59930968  1
  Te  Te122  1  0.71888290  0.61127071  0.87084245  1
  Te  Te123  1  0.75316534  0.92366210  0.25405686  1
  Te  Te124  1  0.76634444  0.90873029  0.62365772  1
  Te  Te125  1  0.70483173  0.90238878  0.89056465  1
  Te  Te126  1  0.27506672  0.22423557  0.10537286  1
  Te  Te127  1  0.25270488  0.26937611  0.40305301  1
  Te  Te128  1  0.25656203  0.22477103  0.76010156  1
  Te  Te129  1  0.24619452  0.58273604  0.08275391  1
  Te  Te130  1  0.23677464  0.57981313  0.40944278  1
  Te  Te131  1  0.26951740  0.56947630  0.76099819  1
  Te  Te132  1  0.23916546  0.94249300  0.09709577  1
  Te  Te133  1  0.25123893  0.89786974  0.41711266  1
  Te  Te134  1  0.25723623  0.93202285  0.74910687  1
  Te  Te135  1  0.57423466  0.25347691  0.09687025  1
  Te  Te136  1  0.56420343  0.25554968  0.41684748  1
  Te  Te137  1  0.56035497  0.23955364  0.73281949  1
  Te  Te138  1  0.61588912  0.61956671  0.07396722  1
  Te  Te139  1  0.56742661  0.58408493  0.41818429  1
  Te  Te140  1  0.59516547  0.56852866  0.77159685  1
  Te  Te141  1  0.56982251  0.93543808  0.08658559  1
  Te  Te142  1  0.60203161  0.91105503  0.43003567  1
  Te  Te143  1  0.56172818  0.93595184  0.71054469  1
  Te  Te144  1  0.90847969  0.24216286  0.08378612  1
  Te  Te145  1  0.92063127  0.26093056  0.41053851  1
  Te  Te146  1  0.90139351  0.26232607  0.77028605  1
  Te  Te147  1  0.89792869  0.59488701  0.07702100  1
  Te  Te148  1  0.90734737  0.57729066  0.41556150  1
  Te  Te149  1  0.90753311  0.60532953  0.76134084  1
  Te  Te150  1  0.88867845  0.90004157  0.06325992  1
  Te  Te151  1  0.92547231  0.92231072  0.42608298  1
  Te  Te152  1  0.91241244  0.93106297  0.73766036  1
  Te  Te153  1  0.24877849  0.11288178  0.24097942  1
  Te  Te154  1  0.26136521  0.06248934  0.56535425  1
  Te  Te155  1  0.25489278  0.09691886  0.91072433  1
  Te  Te156  1  0.29906579  0.36743982  0.28728661  1
  Te  Te157  1  0.25277599  0.40084972  0.58117722  1
  Te  Te158  1  0.26765400  0.39618517  0.90239273  1
  Te  Te159  1  0.27824188  0.76673538  0.26470887  1
  Te  Te160  1  0.27157962  0.77596892  0.56612053  1
  Te  Te161  1  0.24385585  0.75021346  0.90580460  1
  Te  Te162  1  0.58480061  0.09910780  0.22991363  1
  Te  Te163  1  0.59671337  0.07390666  0.59960411  1
  Te  Te164  1  0.56970660  0.07417186  0.90267405  1
  Te  Te165  1  0.61792865  0.39225007  0.26027490  1
  Te  Te166  1  0.57591344  0.41184411  0.57542289  1
  Te  Te167  1  0.59380464  0.42631370  0.90983234  1
  Te  Te168  1  0.57619871  0.75572813  0.25779418  1
  Te  Te169  1  0.57914612  0.72515722  0.61716290  1
  Te  Te170  1  0.58873653  0.77201114  0.89817107  1
  Te  Te171  1  0.91833804  0.08712681  0.25222115  1
  Te  Te172  1  0.91400180  0.07428908  0.57674575  1
  Te  Te173  1  0.90521393  0.08804189  0.92095728  1
  Te  Te174  1  0.90728359  0.42393380  0.26464083  1
  Te  Te175  1  0.92183993  0.43660614  0.59753453  1
  Te  Te176  1  0.91155076  0.42724236  0.92245800  1
  Te  Te177  1  0.92555050  0.73676520  0.24985597  1
  Te  Te178  1  0.87090220  0.79658953  0.60485616  1
  Te  Te179  1  0.85750464  0.76383387  0.90563655  1
