# generated using pymatgen
data_In2Te3
_symmetry_space_group_name_H-M   'P 1'
_cell_length_a   18.75133675
_cell_length_b   18.74804363
_cell_length_c   18.75625934
_cell_angle_alpha   90.03197329
_cell_angle_beta   89.96838192
_cell_angle_gamma   89.98139933
_symmetry_Int_Tables_number   1
_chemical_formula_structural   In2Te3
_chemical_formula_sum   'In72 Te108'
_cell_volume   6593.77708899
_cell_formula_units_Z   36
loop_
 _symmetry_equiv_pos_site_id
 _symmetry_equiv_pos_as_xyz
  1  'x, y, z'
loop_
 _atom_site_type_symbol
 _atom_site_label
 _atom_site_symmetry_multiplicity
 _atom_site_fract_x
 _atom_site_fract_y
 _atom_site_fract_z
 _atom_site_occupancy
  In  In0  1  0.33761218  0.84526818  0.16154528  1
  In  In1  1  0.64641419  0.84516125  0.15459998  1
  In  In2  1  0.80897236  0.83607668  0.65951547  1
  In  In3  1  0.15558436  0.86460113  0.32997220  1
  In  In4  1  0.01833394  0.02082740  0.01400227  1
  In  In5  1  0.34368383  -0.00020046  0.67217402  1
  In  In6  1  0.03286431  0.46512887  0.13379791  1
  In  In7  1  0.01805720  0.18346182  0.16397869  1
  In  In8  1  0.82382051  0.63508203  0.18395813  1
  In  In9  1  0.17009933  0.84340923  0.00158956  1
  In  In10  1  0.34067099  0.17487048  0.84826455  1
  In  In11  1  0.50193983  0.67472663  0.18274969  1
  In  In12  1  0.80758222  0.80435878  0.38128373  1
  In  In13  1  0.34264785  0.04275566  0.01714311  1
  In  In14  1  -0.00594164  0.85233183  0.50547698  1
  In  In15  1  0.31956230  0.35806852  0.66333994  1
  In  In16  1  0.82891221  -0.00076339  0.81249799  1
  In  In17  1  -0.01138525  0.66136831  0.67471159  1
  In  In18  1  0.33956809  0.85310649  0.47809157  1
  In  In19  1  0.16543522  0.35290144  0.83330789  1
  In  In20  1  -0.02408567  0.64856145  0.34288749  1
  In  In21  1  0.53736386  0.82897178  0.64136210  1
  In  In22  1  0.82613282  0.85823756  -0.00992713  1
  In  In23  1  0.34596165  0.30511297  0.31240349  1
  In  In24  1  0.33749346  0.48412750  0.52282222  1
  In  In25  1  0.65082032  0.02354336  -0.03234119  1
  In  In26  1  0.02812129  0.83746421  0.20970738  1
  In  In27  1  0.83027292  0.33039539  0.83195824  1
  In  In28  1  0.32148780  0.30148639  0.00337640  1
  In  In29  1  0.51990923  0.84990727  0.00165486  1
  In  In30  1  0.49454165  0.47491678  -0.00394477  1
  In  In31  1  0.83452523  0.52304841  0.34177260  1
  In  In32  1  0.16489503  0.47605382  0.33564469  1
  In  In33  1  0.51661716  0.16761883  0.67324068  1
  In  In34  1  0.33833575  0.83416841  0.83826350  1
  In  In35  1  0.51594300  0.49159605  0.67275964  1
  In  In36  1  0.63789419  0.17388488  0.15020126  1
  In  In37  1  0.85187508  0.13749710  0.63960500  1
  In  In38  1  -0.01048172  0.82805162  0.82855383  1
  In  In39  1  0.66439132  0.01520181  0.33837892  1
  In  In40  1  0.35415232  0.67217377  0.33614921  1
  In  In41  1  0.16336847  0.48395869  0.67122836  1
  In  In42  1  0.30679522  0.65165998  0.00579656  1
  In  In43  1  0.83238515  0.49067097  0.66496955  1
  In  In44  1  -0.00399406  0.32162980  0.33583567  1
  In  In45  1  0.17163490  0.67298246  0.51296545  1
  In  In46  1  0.13456283  0.17026176  0.65932683  1
  In  In47  1  0.02917046  0.62890623  -0.03317289  1
  In  In48  1  0.83806788  0.48528720  -0.00275825  1
  In  In49  1  0.33303519  0.51213089  0.15653238  1
  In  In50  1  0.82594214  0.18894210  -0.00722178  1
  In  In51  1  0.01077226  0.18382358  0.83489805  1
  In  In52  1  0.81950560  0.16933107  0.36018204  1
  In  In53  1  0.15413079  0.85345114  0.65848436  1
  In  In54  1  0.49188101  0.33021799  0.82826644  1
  In  In55  1  0.32182460  0.03100209  0.32090904  1
  In  In56  1  0.01601099  0.01487268  0.36373792  1
  In  In57  1  0.50384711  0.32986863  0.49268873  1
  In  In58  1  0.83755189  -0.00174315  0.17849453  1
  In  In59  1  0.67831388  0.47488282  0.17745329  1
  In  In60  1  0.83413217  0.33133524  0.52158979  1
  In  In61  1  0.67291797  0.65885267  -0.00573387  1
  In  In62  1  0.82595718  0.66868500  0.81037994  1
  In  In63  1  0.66054442  0.00401475  0.66540783  1
  In  In64  1  0.50315649  0.65616097  0.81857076  1
  In  In65  1  0.17468568  0.65845586  0.15205484  1
  In  In66  1  0.50328774  0.85215628  0.35556498  1
  In  In67  1  0.32448586  0.63387545  0.67447579  1
  In  In68  1  0.64429645  0.32085566  0.33637956  1
  In  In69  1  0.32636701  0.16839839  0.48217584  1
  In  In70  1  0.82692324  0.34465228  0.15407990  1
  In  In71  1  0.66599316  0.50750023  0.50729598  1
  Te  Te72  1  0.11777603  0.11874420  0.06861629  1
  Te  Te73  1  0.08475697  0.11678010  0.44600239  1
  Te  Te74  1  0.08183765  0.07758505  0.76191896  1
  Te  Te75  1  0.10175031  0.36268866  0.05671168  1
  Te  Te76  1  0.05411068  0.42997550  0.42044336  1
  Te  Te77  1  0.06544389  0.38784236  0.72841064  1
  Te  Te78  1  0.07509478  0.75034764  0.08003742  1
  Te  Te79  1  0.08230078  0.75317859  0.41741220  1
  Te  Te80  1  0.09246525  0.74625106  0.74905761  1
  Te  Te81  1  0.42510798  0.11549103  0.11601392  1
  Te  Te82  1  0.42386549  0.07811682  0.41685057  1
  Te  Te83  1  0.43424014  0.07838960  0.76934809  1
  Te  Te84  1  0.41212664  0.39520748  0.09542397  1
  Te  Te85  1  0.41096411  0.41510818  0.40855569  1
  Te  Te86  1  0.40274405  0.43841928  0.76201553  1
  Te  Te87  1  0.41637972  0.74726297  0.07185740  1
  Te  Te88  1  0.43872219  0.74013967  0.44164552  1
  Te  Te89  1  0.41579005  0.75217421  0.73420806  1
  Te  Te90  1  0.75239519  0.07873174  0.08150180  1
  Te  Te91  1  0.73979523  0.08357917  0.45021293  1
  Te  Te92  1  0.74376930  0.10457051  0.74926571  1
  Te  Te93  1  0.72422590  0.39790555  0.05480402  1
  Te  Te94  1  0.75391975  0.40286928  0.40797863  1
  Te  Te95  1  0.73803875  0.41063096  0.74646202  1
  Te  Te96  1  0.75250640  0.75261398  0.08749695  1
  Te  Te97  1  0.71958315  0.70423032  0.45166065  1
  Te  Te98  1  0.72225189  0.75025150  0.74447753  1
  Te  Te99  1  0.10514021  0.24030376  0.27169348  1
  Te  Te100  1  0.06518518  0.23519765  0.54583779  1
  Te  Te101  1  0.09585389  0.26211482  0.93362673  1
  Te  Te102  1  0.08154363  0.58340977  0.24874407  1
  Te  Te103  1  0.07836469  0.57744551  0.58204651  1
  Te  Te104  1  0.11873458  0.54809674  0.88608328  1
  Te  Te105  1  0.09630988  0.97257942  0.23862344  1
  Te  Te106  1  0.07813714  0.95588350  0.57611137  1
  Te  Te107  1  0.07825964  0.92389145  0.90880499  1
  Te  Te108  1  0.43798912  0.20889130  0.24172381  1
  Te  Te109  1  0.41069645  0.25656439  0.59297599  1
  Te  Te110  1  0.46341623  0.22624718  0.95011392  1
  Te  Te111  1  0.43236620  0.56407657  0.26213565  1
  Te  Te112  1  0.43535820  0.58570963  0.57927162  1
  Te  Te113  1  0.41399417  0.58346478  0.91993349  1
  Te  Te114  1  0.42388167  0.93072942  0.25062299  1
  Te  Te115  1  0.43300502  0.92731719  0.57346954  1
  Te  Te116  1  0.41289452  0.93022535  0.92919363  1
  Te  Te117  1  0.75387489  0.24066227  0.23930520  1
  Te  Te118  1  0.74736385  0.22641465  0.57875112  1
  Te  Te119  1  0.72602520  0.24968809  0.90533977  1
  Te  Te120  1  0.70918957  0.58886696  0.27645641  1
  Te  Te121  1  0.75458912  0.59591076  0.59050292  1
  Te  Te122  1  0.75063653  0.56812916  0.90197210  1
  Te  Te123  1  0.74770688  0.90549332  0.25827974  1
  Te  Te124  1  0.73702981  0.92313640  0.56200172  1
  Te  Te125  1  0.72657576  0.91329187  0.89020973  1
  Te  Te126  1  0.25106697  0.21698479  0.10581856  1
  Te  Te127  1  0.23868389  0.26350969  0.40858921  1
  Te  Te128  1  0.25110333  0.24446328  0.74414541  1
  Te  Te129  1  0.21564589  0.54234970  0.06026727  1
  Te  Te130  1  0.25470772  0.58520682  0.41675290  1
  Te  Te131  1  0.22922790  0.57397275  0.77467040  1
  Te  Te132  1  0.24285778  0.94012327  0.09338424  1
  Te  Te133  1  0.23380920  0.94894598  0.42864938  1
  Te  Te134  1  0.24284783  0.92659332  0.76094044  1
  Te  Te135  1  0.55485307  0.26623084  0.07190666  1
  Te  Te136  1  0.57536857  0.22135124  0.42109966  1
  Te  Te137  1  0.59982305  0.26557406  0.74795459  1
  Te  Te138  1  0.58051170  0.58112834  0.08856744  1
  Te  Te139  1  0.59930027  0.59770416  0.41181750  1
  Te  Te140  1  0.60730660  0.58901597  0.73825723  1
  Te  Te141  1  0.57256839  0.96101379  0.09037520  1
  Te  Te142  1  0.60905763  0.91663005  0.43899606  1
  Te  Te143  1  0.57463570  0.91781213  0.75148195  1
  Te  Te144  1  0.93052438  0.26905186  0.07016472  1
  Te  Te145  1  0.93291115  0.22776413  0.44480692  1
  Te  Te146  1  0.91521713  0.24299123  0.73317728  1
  Te  Te147  1  0.92811619  0.58049633  0.08350336  1
  Te  Te148  1  0.91119578  0.57999793  0.45554557  1
  Te  Te149  1  0.92810761  0.56302919  0.77202001  1
  Te  Te150  1  0.93053236  0.91248404  0.09145464  1
  Te  Te151  1  0.90090709  0.92652399  0.41045214  1
  Te  Te152  1  0.92337387  0.91837890  0.72538270  1
  Te  Te153  1  0.25510918  0.13861124  0.24138969  1
  Te  Te154  1  0.25222512  0.09009782  0.59181453  1
  Te  Te155  1  0.24482249  0.08441473  0.91464804  1
  Te  Te156  1  0.25118357  0.40596137  0.23440758  1
  Te  Te157  1  0.21853467  0.39544610  0.55536202  1
  Te  Te158  1  0.28293760  0.40687835  0.90697438  1
  Te  Te159  1  0.24793072  0.75505472  0.25677721  1
  Te  Te160  1  0.26389813  0.76747064  0.58911573  1
  Te  Te161  1  0.23519033  0.74265376  0.90627844  1
  Te  Te162  1  0.56622717  0.10183571  0.26257819  1
  Te  Te163  1  0.58456767  0.08944439  0.56740470  1
  Te  Te164  1  0.55129247  0.10532509  0.89726010  1
  Te  Te165  1  0.56674274  0.40509763  0.24367878  1
  Te  Te166  1  0.60195028  0.39555410  0.58932536  1
  Te  Te167  1  0.58835662  0.42400565  0.89521108  1
  Te  Te168  1  0.59251269  0.75920798  0.26946568  1
  Te  Te169  1  0.60747964  0.73141233  0.55825462  1
  Te  Te170  1  0.58797213  0.75195048  0.90797586  1
  Te  Te171  1  0.92025944  0.09736144  0.25818623  1
  Te  Te172  1  0.95393130  0.05386134  0.56903945  1
  Te  Te173  1  0.90834038  0.07804325  0.91994149  1
  Te  Te174  1  0.91853352  0.42881820  0.24328595  1
  Te  Te175  1  0.93722158  0.40875907  0.59583416  1
  Te  Te176  1  0.92968130  0.40733833  0.91288764  1
  Te  Te177  1  0.90335899  0.75425333  0.25815029  1
  Te  Te178  1  0.90870859  0.74919107  0.57858689  1
  Te  Te179  1  0.90919857  0.74149009  0.92637732  1
