# generated using pymatgen
data_In2Te3
_symmetry_space_group_name_H-M   'P 1'
_cell_length_a   18.78841443
_cell_length_b   18.78635260
_cell_length_c   18.78925944
_cell_angle_alpha   89.97166644
_cell_angle_beta   90.03522172
_cell_angle_gamma   90.10178281
_symmetry_Int_Tables_number   1
_chemical_formula_structural   In2Te3
_chemical_formula_sum   'In72 Te108'
_cell_volume   6631.95305489
_cell_formula_units_Z   36
loop_
 _symmetry_equiv_pos_site_id
 _symmetry_equiv_pos_as_xyz
  1  'x, y, z'
loop_
 _atom_site_type_symbol
 _atom_site_label
 _atom_site_symmetry_multiplicity
 _atom_site_fract_x
 _atom_site_fract_y
 _atom_site_fract_z
 _atom_site_occupancy
  In  In0  1  0.81819687  0.49687925  0.33830927  1
  In  In1  1  0.17009178  0.50899872  0.35062191  1
  In  In2  1  0.62795908  0.64148110  0.03031546  1
  In  In3  1  0.83477395  0.85740601  0.63891774  1
  In  In4  1  0.17506815  0.82715367  0.00655276  1
  In  In5  1  0.86052517  0.81921865  0.33128274  1
  In  In6  1  0.35751341  0.35650198  0.67293456  1
  In  In7  1  0.84273994  0.49041380  0.65707027  1
  In  In8  1  -0.00046400  -0.00773353  0.64506081  1
  In  In9  1  0.18200869  0.83160432  0.32770378  1
  In  In10  1  0.19567778  -0.00779915  0.51084415  1
  In  In11  1  0.19297150  0.17358027  0.34017854  1
  In  In12  1  0.00261704  0.19392720  0.83380622  1
  In  In13  1  0.16450859  0.34206674  0.85909790  1
  In  In14  1  0.03185590  0.79843819  0.80177054  1
  In  In15  1  0.80866715  0.84268617  0.00361298  1
  In  In16  1  0.66331280  0.86624951  0.49990116  1
  In  In17  1  0.01792709  0.01466186  0.30480674  1
  In  In18  1  0.85583697  0.00841814  0.15530113  1
  In  In19  1  -0.01266645  0.65118834  0.31935314  1
  In  In20  1  0.50005595  0.01198319  0.15714939  1
  In  In21  1  0.49438628  0.49044224  0.32074308  1
  In  In22  1  -0.01610589  0.34403662  0.67366083  1
  In  In23  1  0.65998289  -0.01179172  0.33861874  1
  In  In24  1  0.65291888  0.31785850  0.66722596  1
  In  In25  1  0.34456383  0.16486621  0.16521531  1
  In  In26  1  0.32885242  0.65914786  -0.00081897  1
  In  In27  1  0.67384890  0.19812568  0.19253810  1
  In  In28  1  0.47170702  0.00685374  0.84066299  1
  In  In29  1  0.64374771  0.16950216  0.51522552  1
  In  In30  1  0.62878606  0.50789743  0.85048032  1
  In  In31  1  0.17428110  0.15422830  0.66885516  1
  In  In32  1  0.66097511  0.82242631  0.17356226  1
  In  In33  1  0.49623714  0.32429888  0.49834764  1
  In  In34  1  0.84917277  0.65633657  0.83478537  1
  In  In35  1  0.18541300  0.65533369  0.51487340  1
  In  In36  1  0.32844513  0.51700512  0.16711692  1
  In  In37  1  0.02567593  0.84347517  0.50506287  1
  In  In38  1  0.64490528  0.65492574  0.69818209  1
  In  In39  1  0.17182781  -0.01064079  0.17404895  1
  In  In40  1  0.01092632  0.50295303  0.16179822  1
  In  In41  1  0.01396365  0.49861020  0.83031275  1
  In  In42  1  0.33884750  0.33757938  0.00170023  1
  In  In43  1  0.82301324  0.47855695  -0.00092908  1
  In  In44  1  0.81494327  0.00420658  0.49837557  1
  In  In45  1  0.50315262  0.64171523  0.85781170  1
  In  In46  1  0.20276858  0.00161460  0.82826599  1
  In  In47  1  0.65897880  -0.00349499  -0.01244085  1
  In  In48  1  0.00053133  0.00256353  -0.01249904  1
  In  In49  1  0.19772939  0.33912972  0.51038458  1
  In  In50  1  -0.00947827  0.17594359  0.48998674  1
  In  In51  1  0.66483193  0.82791587  0.83211768  1
  In  In52  1  -0.01548487  0.16166799  0.15403403  1
  In  In53  1  0.83461594  0.17929305  0.00693297  1
  In  In54  1  0.48852603  0.85259640  0.65248701  1
  In  In55  1  0.47322916  0.67130714  0.51632268  1
  In  In56  1  0.33861790  0.33263828  0.34865757  1
  In  In57  1  0.14675583  0.34360977  0.14685862  1
  In  In58  1  0.51742688  0.83244681  0.34721134  1
  In  In59  1  0.31904532  0.66409629  0.67988217  1
  In  In60  1  0.49438820  0.32949868  0.17575394  1
  In  In61  1  0.82208776  0.33998883  0.83476507  1
  In  In62  1  0.33897088  0.16930643  0.83943461  1
  In  In63  1  0.64419710  0.34793950  0.00533281  1
  In  In64  1  0.84025512  0.67310967  0.48708275  1
  In  In65  1  0.34128933  0.82412555  0.16571848  1
  In  In66  1  0.65980276  0.14647581  0.79460890  1
  In  In67  1  0.66178522  0.65001573  0.31632721  1
  In  In68  1  0.34546220  0.83888962  0.83162810  1
  In  In69  1  0.68414533  0.48664250  0.48818178  1
  In  In70  1  0.00385481  0.34251269  0.34351754  1
  In  In71  1  0.01759592  0.65991833  -0.00783693  1
  Te  Te72  1  0.09204993  0.08249919  0.08054114  1
  Te  Te73  1  0.09168670  0.07673454  0.42550501  1
  Te  Te74  1  0.07323753  0.07806093  0.75654325  1
  Te  Te75  1  0.09589058  0.44537473  0.05385115  1
  Te  Te76  1  0.08688349  0.42254700  0.44433481  1
  Te  Te77  1  0.10131135  0.41510984  0.73697492  1
  Te  Te78  1  0.09098667  0.74149358  0.09128017  1
  Te  Te79  1  0.08088578  0.74015989  0.40904620  1
  Te  Te80  1  0.11613048  0.70826904  0.70967918  1
  Te  Te81  1  0.41792558  0.08970964  0.06228839  1
  Te  Te82  1  0.41722877  0.04348807  0.45732545  1
  Te  Te83  1  0.40190094  0.08414813  0.73476874  1
  Te  Te84  1  0.43226837  0.43869332  0.08238038  1
  Te  Te85  1  0.40898144  0.43469409  0.43414851  1
  Te  Te86  1  0.43069687  0.43854810  0.77377212  1
  Te  Te87  1  0.42522457  0.74413170  0.07239311  1
  Te  Te88  1  0.40992392  0.76699326  0.42393396  1
  Te  Te89  1  0.44130753  0.74226735  0.75326812  1
  Te  Te90  1  0.73754370  0.08226506  0.09189269  1
  Te  Te91  1  0.74017611  0.09764709  0.40829201  1
  Te  Te92  1  0.75814333  0.06779425  0.72362406  1
  Te  Te93  1  0.73612811  0.41493369  0.10003438  1
  Te  Te94  1  0.72785771  0.38368955  0.38752489  1
  Te  Te95  1  0.73650009  0.43848130  0.75552729  1
  Te  Te96  1  0.74496463  0.73162708  0.08455713  1
  Te  Te97  1  0.73755424  0.76299485  0.40771639  1
  Te  Te98  1  0.76471968  0.75144585  0.74242557  1
  Te  Te99  1  0.08690945  0.24088855  0.25397365  1
  Te  Te100  1  0.08611908  0.25056620  0.58532078  1
  Te  Te101  1  0.08406781  0.24993465  0.94216440  1
  Te  Te102  1  0.10510117  0.59301074  0.24167171  1
  Te  Te103  1  0.08256581  0.59962425  0.60409064  1
  Te  Te104  1  0.11061862  0.59384987  0.89446984  1
  Te  Te105  1  0.07144038  0.89191290  0.23629696  1
  Te  Te106  1  0.11900635  0.90206038  0.61048392  1
  Te  Te107  1  0.08927207  0.91102242  0.90208503  1
  Te  Te108  1  0.42717983  0.23341114  0.27527460  1
  Te  Te109  1  0.42594696  0.24520374  0.60288266  1
  Te  Te110  1  0.43111326  0.26242635  0.91217397  1
  Te  Te111  1  0.40816323  0.59637466  0.26382389  1
  Te  Te112  1  0.39426789  0.56919855  0.59058137  1
  Te  Te113  1  0.38722830  0.55707401  0.90062117  1
  Te  Te114  1  0.42965767  0.91689114  0.25406682  1
  Te  Te115  1  0.40082752  0.93012409  0.56230550  1
  Te  Te116  1  0.41755314  0.91010386  0.93888254  1
  Te  Te117  1  0.76480175  0.27516238  0.27779009  1
  Te  Te118  1  0.75006157  0.25253496  0.57947380  1
  Te  Te119  1  0.73096280  0.24795976  0.91460400  1
  Te  Te120  1  0.76275463  0.58493051  0.23290969  1
  Te  Te121  1  0.74674803  0.59599541  0.58524548  1
  Te  Te122  1  0.73955432  0.59246052  0.92024941  1
  Te  Te123  1  0.76028041  0.91765572  0.24478642  1
  Te  Te124  1  0.71804792  0.95927812  0.61598459  1
  Te  Te125  1  0.75952346  0.93421516  0.89170507  1
  Te  Te126  1  0.24541187  0.24718897  0.08149655  1
  Te  Te127  1  0.28365288  0.22917707  0.44854924  1
  Te  Te128  1  0.24486837  0.26301603  0.75116717  1
  Te  Te129  1  0.22875006  0.57968107  0.07756764  1
  Te  Te130  1  0.27414721  0.58916302  0.41577789  1
  Te  Te131  1  0.21091527  0.59529837  0.75783420  1
  Te  Te132  1  0.26815928  0.92651957  0.07487539  1
  Te  Te133  1  0.27045915  0.92613786  0.40082847  1
  Te  Te134  1  0.26283790  0.91006298  0.73067893  1
  Te  Te135  1  0.57269961  0.23654315  0.08339978  1
  Te  Te136  1  0.57645589  0.24404873  0.40396376  1
  Te  Te137  1  0.55576575  0.23844237  0.74469602  1
  Te  Te138  1  0.55682788  0.53783514  0.10776431  1
  Te  Te139  1  0.57958614  0.58673274  0.42837603  1
  Te  Te140  1  0.53642126  0.54856275  0.72819091  1
  Te  Te141  1  0.57671426  0.90494691  0.07727900  1
  Te  Te142  1  0.55188743  0.96970693  0.45497452  1
  Te  Te143  1  0.57413620  0.92442135  0.75740102  1
  Te  Te144  1  0.91186790  0.27249195  0.09034374  1
  Te  Te145  1  0.89890585  0.25620347  0.40584128  1
  Te  Te146  1  0.89088226  0.24275527  0.74056089  1
  Te  Te147  1  0.91318222  0.57996086  0.07083823  1
  Te  Te148  1  0.92635387  0.56343645  0.42853857  1
  Te  Te149  1  0.93566536  0.58705974  0.73088047  1
  Te  Te150  1  0.93025731  0.90125862  0.07945054  1
  Te  Te151  1  0.92438232  0.92807574  0.41759863  1
  Te  Te152  1  0.92911625  0.90532198  0.74909111  1
  Te  Te153  1  0.26973322  0.06928239  0.26140945  1
  Te  Te154  1  0.28106892  0.08368381  0.59484185  1
  Te  Te155  1  0.25260876  0.09103441  0.93221655  1
  Te  Te156  1  0.24582748  0.40423846  0.25190308  1
  Te  Te157  1  0.26329980  0.44200933  0.59403661  1
  Te  Te158  1  0.26872522  0.43514163  0.91221636  1
  Te  Te159  1  0.25932487  0.73345649  0.24928991  1
  Te  Te160  1  0.26946521  0.76062372  0.57773547  1
  Te  Te161  1  0.24663343  0.74562196  0.90035025  1
  Te  Te162  1  0.58041415  0.09169317  0.25957066  1
  Te  Te163  1  0.54194593  0.07435409  0.57078670  1
  Te  Te164  1  0.57487054  0.09640176  0.91330216  1
  Te  Te165  1  0.59601287  0.42884692  0.22934461  1
  Te  Te166  1  0.58218313  0.42246559  0.58122531  1
  Te  Te167  1  0.54384371  0.39502062  0.90164340  1
  Te  Te168  1  0.55811017  0.73121247  0.23897753  1
  Te  Te169  1  0.59499702  0.75342596  0.58444958  1
  Te  Te170  1  0.58032774  0.75147641  0.93205439  1
  Te  Te171  1  0.89926991  0.10160200  0.26787878  1
  Te  Te172  1  0.90367825  0.09507768  0.58685099  1
  Te  Te173  1  0.90717841  0.09087897  0.90653157  1
  Te  Te174  1  0.91642852  0.41852771  0.24472345  1
  Te  Te175  1  0.90550421  0.39970110  0.56085599  1
  Te  Te176  1  0.93047211  0.40394308  0.91958948  1
  Te  Te177  1  0.90865207  0.73234267  0.22409142  1
  Te  Te178  1  0.92969452  0.75177243  0.58294536  1
  Te  Te179  1  0.91929796  0.76275342  0.91757158  1
