# generated using pymatgen
data_In2Te3
_symmetry_space_group_name_H-M   'P 1'
_cell_length_a   18.77405844
_cell_length_b   18.77144095
_cell_length_c   18.76107724
_cell_angle_alpha   90.05458058
_cell_angle_beta   90.01082730
_cell_angle_gamma   90.06596063
_symmetry_Int_Tables_number   1
_chemical_formula_structural   In2Te3
_chemical_formula_sum   'In72 Te108'
_cell_volume   6611.69872388
_cell_formula_units_Z   36
loop_
 _symmetry_equiv_pos_site_id
 _symmetry_equiv_pos_as_xyz
  1  'x, y, z'
loop_
 _atom_site_type_symbol
 _atom_site_label
 _atom_site_symmetry_multiplicity
 _atom_site_fract_x
 _atom_site_fract_y
 _atom_site_fract_z
 _atom_site_occupancy
  In  In0  1  -0.01751431  0.16759283  0.16755283  1
  In  In1  1  0.50324076  0.64797678  0.82862942  1
  In  In2  1  0.68291494  0.65547704  0.01302494  1
  In  In3  1  0.69639118  -0.00547756  0.01778703  1
  In  In4  1  0.19009829  -0.00427391  0.49018431  1
  In  In5  1  0.34320966  0.33441540  0.00460772  1
  In  In6  1  0.16437957  0.51484527  0.01788920  1
  In  In7  1  0.17198008  0.83190327  0.67309686  1
  In  In8  1  0.83929983  0.68096686  0.17192880  1
  In  In9  1  0.00166287  0.52351150  0.50901776  1
  In  In10  1  0.34132301  0.32556255  0.33285444  1
  In  In11  1  0.48758677  0.53396000  0.31595890  1
  In  In12  1  0.16613846  0.34968731  0.16092064  1
  In  In13  1  0.65348519  0.69845519  0.31133924  1
  In  In14  1  0.82297223  0.67721790  0.48540598  1
  In  In15  1  0.49321881  0.16323343  0.01194261  1
  In  In16  1  0.15915040  0.49651229  0.64037535  1
  In  In17  1  0.33923995  0.83838668  0.46568264  1
  In  In18  1  0.48805171  0.17244583  0.34681571  1
  In  In19  1  0.70427601  -0.01891334  0.31601072  1
  In  In20  1  0.48598765  -0.00348844  0.17331541  1
  In  In21  1  -0.00907993  0.14966696  0.84011253  1
  In  In22  1  0.36697634  0.46002524  0.81081893  1
  In  In23  1  -0.00035862  0.34033433  0.67879165  1
  In  In24  1  0.83790884  0.16632990  0.66641527  1
  In  In25  1  0.83105028  0.83713609  0.66465288  1
  In  In26  1  0.33093246  0.69191113  0.02436311  1
  In  In27  1  0.32841623  0.48864859  0.49017179  1
  In  In28  1  0.01740285  0.15594577  0.50266062  1
  In  In29  1  0.18245342  0.33876568  0.48672233  1
  In  In30  1  0.66843414  0.66293390  0.67299778  1
  In  In31  1  0.82797996  0.33618660  0.14257364  1
  In  In32  1  0.68434531  0.84651814  0.84023597  1
  In  In33  1  0.49450415  0.50281150  0.01258336  1
  In  In34  1  0.33067107  0.65967300  0.65506051  1
  In  In35  1  0.83153874  0.14504259  0.32759396  1
  In  In36  1  0.15876362  0.52983932  0.33552501  1
  In  In37  1  0.51384113  -0.02574781  0.84346681  1
  In  In38  1  0.14929020  0.16077847  0.00958375  1
  In  In39  1  0.66230500  0.15577794  0.14747783  1
  In  In40  1  0.20210771  0.13449258  0.30881710  1
  In  In41  1  0.67126218  0.82418624  0.48547423  1
  In  In42  1  0.49912213  -0.00384734  0.47995014  1
  In  In43  1  0.49311372  0.17903036  0.66434119  1
  In  In44  1  -0.00098113  0.00553744  0.67379183  1
  In  In45  1  0.15705171  0.66491608  0.82587040  1
  In  In46  1  0.50849509  0.84368076  0.00886119  1
  In  In47  1  -0.00771876  0.51572009  0.16287909  1
  In  In48  1  0.15250062  0.01259664  0.84368279  1
  In  In49  1  0.66615363  0.33098573  -0.00485500  1
  In  In50  1  0.80087886  0.32146947  0.50360004  1
  In  In51  1  0.14699433  0.83256706  0.04985978  1
  In  In52  1  0.32836753  0.17627292  0.83932449  1
  In  In53  1  -0.03621009  0.48824763  0.87085172  1
  In  In54  1  0.83401044  0.49677796  0.69343530  1
  In  In55  1  -0.03907249  0.81002646  0.87296276  1
  In  In56  1  0.67284677  0.00268508  0.66356596  1
  In  In57  1  0.34280962  0.00507605  0.64423257  1
  In  In58  1  0.00018983  0.69568526  0.33617370  1
  In  In59  1  0.14043329  0.64378115  0.47331177  1
  In  In60  1  0.67958434  0.17366730  0.82918477  1
  In  In61  1  -0.01886705  0.33309611  0.30714390  1
  In  In62  1  0.64331989  0.46922369  0.51380339  1
  In  In63  1  0.67324893  0.48684576  0.16803559  1
  In  In64  1  0.32445954  0.83267056  0.18550313  1
  In  In65  1  0.68353086  0.49854659  0.84038788  1
  In  In66  1  0.65006313  0.33270023  0.34208618  1
  In  In67  1  0.18005801  0.32098164  0.82065896  1
  In  In68  1  -0.01067154  0.84127729  0.46296028  1
  In  In69  1  0.35496009  0.83296698  0.84788931  1
  In  In70  1  0.48164714  0.67075233  0.48445336  1
  In  In71  1  -0.02082364  -0.02046095  0.03071976  1
  Te  Te72  1  0.08104798  0.06490459  0.10696044  1
  Te  Te73  1  0.09109031  0.07442584  0.39883364  1
  Te  Te74  1  0.09603130  0.10542711  0.73664471  1
  Te  Te75  1  0.06102095  0.41275664  0.07188193  1
  Te  Te76  1  0.07346449  0.41743723  0.41219159  1
  Te  Te77  1  0.08618741  0.43530865  0.76227802  1
  Te  Te78  1  0.06534138  0.73147377  0.11361476  1
  Te  Te79  1  0.11386593  0.77638360  0.40180101  1
  Te  Te80  1  0.06512622  0.76837880  0.76096543  1
  Te  Te81  1  0.39674182  0.10104672  0.11017493  1
  Te  Te82  1  0.39526178  0.08221026  0.42033876  1
  Te  Te83  1  0.42660879  0.07165845  0.76380523  1
  Te  Te84  1  0.40975150  0.42206392  0.10260927  1
  Te  Te85  1  0.43605366  0.41949952  0.40794931  1
  Te  Te86  1  0.44602185  0.37969777  0.71363175  1
  Te  Te87  1  0.44605548  0.74839333  0.11164647  1
  Te  Te88  1  0.44305864  0.77007374  0.38085566  1
  Te  Te89  1  0.42429455  0.74726793  0.74178217  1
  Te  Te90  1  0.78161910  0.09502231  0.08649792  1
  Te  Te91  1  0.73602961  0.08241807  0.41968776  1
  Te  Te92  1  0.76744195  0.06762697  0.76330371  1
  Te  Te93  1  0.76274473  0.44474820  0.05109806  1
  Te  Te94  1  0.74931175  0.42972819  0.40957394  1
  Te  Te95  1  0.74028868  0.39823641  0.74701730  1
  Te  Te96  1  0.74079984  0.76645666  0.09641705  1
  Te  Te97  1  0.77068283  0.77302748  0.37929313  1
  Te  Te98  1  0.76504304  0.73977751  0.76241786  1
  Te  Te99  1  0.09557981  0.24470336  0.25571428  1
  Te  Te100  1  0.09146791  0.26110875  0.58554685  1
  Te  Te101  1  0.07807189  0.25526862  0.91348387  1
  Te  Te102  1  0.08946097  0.61568077  0.22770827  1
  Te  Te103  1  0.07296423  0.61724131  0.60840949  1
  Te  Te104  1  0.06994792  0.59258805  0.92742809  1
  Te  Te105  1  0.02226497  0.91318923  0.28462034  1
  Te  Te106  1  0.08277093  0.91740903  0.57983446  1
  Te  Te107  1  0.07780123  0.90719118  0.92485699  1
  Te  Te108  1  0.41566569  0.24196317  0.23651883  1
  Te  Te109  1  0.43082679  0.27643113  0.57075941  1
  Te  Te110  1  0.43588814  0.25989223  0.90802200  1
  Te  Te111  1  0.38004262  0.60300964  0.23869785  1
  Te  Te112  1  0.42642603  0.56667241  0.58279149  1
  Te  Te113  1  0.39850697  0.58907827  0.92252970  1
  Te  Te114  1  0.41139719  0.91672479  0.27638337  1
  Te  Te115  1  0.42687622  0.89925203  0.57759794  1
  Te  Te116  1  0.40582207  0.93773910  0.94830491  1
  Te  Te117  1  0.75050802  0.25437689  0.24837184  1
  Te  Te118  1  0.72787772  0.24308179  0.60333074  1
  Te  Te119  1  0.76739668  0.24903046  0.92437980  1
  Te  Te120  1  0.74655026  0.58977844  0.25410258  1
  Te  Te121  1  0.75322151  0.57553527  0.57787385  1
  Te  Te122  1  0.77121289  0.60467333  0.90252039  1
  Te  Te123  1  0.76938681  0.91547112  0.20003100  1
  Te  Te124  1  0.75839204  0.92393821  0.56282077  1
  Te  Te125  1  0.78179740  0.91000026  0.92987033  1
  Te  Te126  1  0.25026652  0.24546955  0.08884913  1
  Te  Te127  1  0.26114534  0.22740183  0.41895136  1
  Te  Te128  1  0.26046159  0.24176084  0.72627779  1
  Te  Te129  1  0.26802730  0.58109013  0.10467127  1
  Te  Te130  1  0.27440350  0.60663875  0.40755325  1
  Te  Te131  1  0.25687775  0.57132185  0.75528733  1
  Te  Te132  1  0.24910842  0.92986201  0.09755241  1
  Te  Te133  1  0.25411104  0.92316942  0.37686526  1
  Te  Te134  1  0.25775896  0.92526549  0.75973768  1
  Te  Te135  1  0.57115137  0.26636719  0.09560460  1
  Te  Te136  1  0.58290791  0.24371782  0.43802070  1
  Te  Te137  1  0.58047775  0.25768864  0.75843912  1
  Te  Te138  1  0.57929124  0.59057216  0.10448824  1
  Te  Te139  1  0.59832978  0.58828496  0.41789473  1
  Te  Te140  1  0.57918252  0.55657507  0.73544425  1
  Te  Te141  1  0.59968565  0.91558087  0.10821044  1
  Te  Te142  1  0.58894313  0.90993152  0.39096610  1
  Te  Te143  1  0.58635525  0.89704678  0.73352725  1
  Te  Te144  1  0.92829800  0.25910586  0.06456326  1
  Te  Te145  1  0.91896758  0.24734872  0.41916383  1
  Te  Te146  1  0.90824226  0.25823753  0.76697870  1
  Te  Te147  1  0.90651477  0.59527883  0.06621577  1
  Te  Te148  1  0.91417098  0.58621198  0.40047344  1
  Te  Te149  1  0.93467873  0.58081315  0.75858294  1
  Te  Te150  1  0.88531828  0.88496743  0.09790671  1
  Te  Te151  1  0.91070856  0.94009174  0.38401618  1
  Te  Te152  1  0.91668109  0.91624161  0.76382801  1
  Te  Te153  1  0.27139415  0.05286454  0.20749922  1
  Te  Te154  1  0.24702512  0.09717851  0.58302784  1
  Te  Te155  1  0.25594206  0.08018284  0.93389295  1
  Te  Te156  1  0.24763081  0.42652067  0.26337567  1
  Te  Te157  1  0.26801182  0.39963133  0.60044490  1
  Te  Te158  1  0.24520884  0.41995044  0.92056634  1
  Te  Te159  1  0.27345147  0.71263288  0.25599979  1
  Te  Te160  1  0.24973168  0.75401004  0.56684678  1
  Te  Te161  1  0.23889035  0.76004713  0.91881484  1
  Te  Te162  1  0.58930182  0.08285393  0.25885962  1
  Te  Te163  1  0.57935560  0.08493596  0.57712861  1
  Te  Te164  1  0.59131422  0.07758867  0.92843674  1
  Te  Te165  1  0.56475216  0.41642121  0.24708275  1
  Te  Te166  1  0.54768221  0.38243397  0.58810880  1
  Te  Te167  1  0.57258084  0.41869588  0.91207138  1
  Te  Te168  1  0.55938003  0.76424122  0.22156238  1
  Te  Te169  1  0.58066339  0.74490716  0.57917580  1
  Te  Te170  1  0.58462942  0.74618299  0.91637756  1
  Te  Te171  1  0.92805353  0.05529498  0.25384802  1
  Te  Te172  1  0.90866056  0.07081154  0.56849464  1
  Te  Te173  1  0.91067599  0.06937095  0.93380183  1
  Te  Te174  1  0.89064474  0.43609281  0.24558437  1
  Te  Te175  1  0.91428126  0.41330685  0.57272507  1
  Te  Te176  1  0.87708236  0.39213377  0.93971319  1
  Te  Te177  1  0.94925291  0.79018291  0.22358802  1
  Te  Te178  1  0.92091415  0.75175612  0.57547563  1
  Te  Te179  1  0.89164644  0.71252110  0.95987377  1
