# generated using pymatgen
data_In2Te3
_symmetry_space_group_name_H-M   'P 1'
_cell_length_a   18.91308703
_cell_length_b   18.91309228
_cell_length_c   18.91118832
_cell_angle_alpha   89.92971819
_cell_angle_beta   89.96927277
_cell_angle_gamma   89.96921131
_symmetry_Int_Tables_number   1
_chemical_formula_structural   In2Te3
_chemical_formula_sum   'In72 Te108'
_cell_volume   6764.61883203
_cell_formula_units_Z   36
loop_
 _symmetry_equiv_pos_site_id
 _symmetry_equiv_pos_as_xyz
  1  'x, y, z'
loop_
 _atom_site_type_symbol
 _atom_site_label
 _atom_site_symmetry_multiplicity
 _atom_site_fract_x
 _atom_site_fract_y
 _atom_site_fract_z
 _atom_site_occupancy
  In  In0  1  0.17104679  0.16872075  -0.00291231  1
  In  In1  1  0.64313070  0.14470359  0.86685650  1
  In  In2  1  0.17318062  0.16786751  0.69142838  1
  In  In3  1  0.52176330  0.14015692  0.64220111  1
  In  In4  1  0.83172159  -0.00563132  0.79818228  1
  In  In5  1  0.34583570  0.83301629  0.14963016  1
  In  In6  1  0.86293245  0.34180144  0.82556982  1
  In  In7  1  0.67004356  0.84662350  0.51876876  1
  In  In8  1  0.83037923  0.82887562  -0.00759176  1
  In  In9  1  0.52100936  0.33501204  0.18076419  1
  In  In10  1  0.00306959  0.68679501  0.66310282  1
  In  In11  1  0.82677618  0.51999426  0.32295115  1
  In  In12  1  0.35022657  0.16064559  0.82080158  1
  In  In13  1  0.16672900  0.81062271  -0.01338401  1
  In  In14  1  0.18271481  0.31794584  0.52934327  1
  In  In15  1  0.66297185  0.66787537  0.65932552  1
  In  In16  1  0.81113955  0.15302630  -0.00577956  1
  In  In17  1  0.82076869  0.31047388  0.49244707  1
  In  In18  1  -0.00078915  0.66505427  0.31986920  1
  In  In19  1  0.00509253  0.85409429  0.52689578  1
  In  In20  1  0.84278566  0.35445876  0.17479516  1
  In  In21  1  0.67666907  0.15420845  0.15623932  1
  In  In22  1  -0.00039198  0.51135792  0.84373317  1
  In  In23  1  0.82817000  0.67653367  0.81699936  1
  In  In24  1  0.68472696  0.81793771  0.14859503  1
  In  In25  1  0.85030261  0.82345720  0.33929705  1
  In  In26  1  0.66672156  -0.01388421  0.34963975  1
  In  In27  1  -0.01601470  0.65900787  0.01408936  1
  In  In28  1  0.50997632  0.51951968  0.65814282  1
  In  In29  1  0.17172573  -0.01642346  0.17523069  1
  In  In30  1  0.48837149  0.52836255  -0.00681025  1
  In  In31  1  0.17873830  0.36235030  0.86854560  1
  In  In32  1  -0.00645287  0.16139595  0.18414217  1
  In  In33  1  0.68645789  0.32388280  0.67731619  1
  In  In34  1  0.00426433  0.85711158  0.79862315  1
  In  In35  1  -0.01281917  0.49558999  0.47793835  1
  In  In36  1  0.31423210  0.33148318  -0.00043849  1
  In  In37  1  0.18844770  0.82465885  0.32184920  1
  In  In38  1  0.15614637  0.50672921  0.33990571  1
  In  In39  1  0.48361475  0.34096806  0.82084723  1
  In  In40  1  -0.00187561  0.33271691  0.65350232  1
  In  In41  1  0.37060996  0.84983999  0.86460855  1
  In  In42  1  -0.00258454  -0.00706560  0.32986716  1
  In  In43  1  -0.02990058  -0.01143772  0.00199082  1
  In  In44  1  0.67037591  0.51319704  0.84508001  1
  In  In45  1  0.50729359  -0.01865446  0.15892736  1
  In  In46  1  0.66354989  0.66104343  0.33969810  1
  In  In47  1  0.33047586  -0.00788265  0.67687938  1
  In  In48  1  0.81099110  0.15039373  0.33856278  1
  In  In49  1  0.16000485  0.02462731  0.81158312  1
  In  In50  1  0.31830546  0.83305555  0.49214018  1
  In  In51  1  0.49557113  0.66029067  0.16197693  1
  In  In52  1  0.52178984  0.85023143  0.66770371  1
  In  In53  1  0.17981277  0.33326306  0.13550757  1
  In  In54  1  0.01624485  0.14648117  0.78982297  1
  In  In55  1  0.33832581  0.15929387  0.50111675  1
  In  In56  1  0.15507462  0.15181140  0.33496956  1
  In  In57  1  0.36694757  0.35216349  0.33664092  1
  In  In58  1  0.34694533  0.35966440  0.65848177  1
  In  In59  1  0.59362295  0.36292542  0.36005915  1
  In  In60  1  0.68446049  0.34872267  0.02195393  1
  In  In61  1  0.46594349  0.82182178  0.33581279  1
  In  In62  1  0.66679475  0.50616504  0.50427401  1
  In  In63  1  -0.03133685  0.32262101  0.34018222  1
  In  In64  1  0.34166243  0.51496080  0.16094341  1
  In  In65  1  0.50297340  0.16748504  0.36803072  1
  In  In66  1  0.63327405  0.82495619  0.87003330  1
  In  In67  1  0.18425569  0.49847054  0.66177501  1
  In  In68  1  0.18565683  0.53536279  0.01422873  1
  In  In69  1  0.17574385  0.66600332  0.48671281  1
  In  In70  1  -0.01013689  0.34500870  -0.01303355  1
  In  In71  1  0.33346922  0.67065677  0.66938365  1
  Te  Te72  1  0.07493615  0.08332087  0.08178256  1
  Te  Te73  1  0.08318830  0.06398012  0.42622615  1
  Te  Te74  1  0.05359369  0.02699420  0.69399400  1
  Te  Te75  1  0.08530121  0.43091337  0.06831557  1
  Te  Te76  1  0.08479785  0.38885419  0.42793845  1
  Te  Te77  1  0.08084424  0.41134897  0.75355779  1
  Te  Te78  1  0.07317565  0.75291084  0.08293820  1
  Te  Te79  1  0.07404560  0.75673271  0.41842155  1
  Te  Te80  1  0.09693086  0.75183954  0.75435924  1
  Te  Te81  1  0.42873100  0.05944149  0.05908942  1
  Te  Te82  1  0.41423256  0.06402629  0.42079289  1
  Te  Te83  1  0.44268725  0.06567000  0.74995904  1
  Te  Te84  1  0.42165889  0.40870206  0.08180449  1
  Te  Te85  1  0.46714702  0.41280623  0.42234095  1
  Te  Te86  1  0.40871735  0.45467488  0.75770307  1
  Te  Te87  1  0.45542329  0.77082665  0.06420469  1
  Te  Te88  1  0.38603619  0.72651461  0.41435387  1
  Te  Te89  1  0.42517731  0.76517203  0.74922379  1
  Te  Te90  1  0.74496544  0.05215623  0.07606037  1
  Te  Te91  1  0.75272194  0.06275707  0.44468866  1
  Te  Te92  1  0.72122278  0.08749289  0.75810784  1
  Te  Te93  1  0.76642232  0.45209770  0.09110537  1
  Te  Te94  1  0.75214977  0.41415922  0.40396836  1
  Te  Te95  1  0.76188844  0.43106193  0.75392853  1
  Te  Te96  1  0.74274416  0.72217479  0.05013803  1
  Te  Te97  1  0.74822635  0.75234890  0.42820880  1
  Te  Te98  1  0.72367213  0.76779532  0.75534711  1
  Te  Te99  1  0.08388237  0.26870735  0.24209915  1
  Te  Te100  1  0.07717912  0.22341872  0.58395038  1
  Te  Te101  1  0.07859322  0.24523833  0.90139263  1
  Te  Te102  1  0.08988577  0.58456862  0.23631196  1
  Te  Te103  1  0.07997721  0.57141487  0.57343835  1
  Te  Te104  1  0.09414180  0.60344954  0.91388741  1
  Te  Te105  1  0.07243905  0.89329228  0.24369231  1
  Te  Te106  1  0.10839167  0.90781545  0.61534589  1
  Te  Te107  1  0.08169720  0.93369908  0.91434796  1
  Te  Te108  1  0.42747985  0.24011777  0.25369290  1
  Te  Te109  1  0.42407935  0.25019774  0.58989741  1
  Te  Te110  1  0.41936867  0.24849957  0.92273418  1
  Te  Te111  1  0.42849583  0.57532265  0.26180936  1
  Te  Te112  1  0.41235932  0.58961774  0.57493594  1
  Te  Te113  1  0.41389451  0.63444095  0.92412185  1
  Te  Te114  1  0.39902761  0.93010987  0.25360640  1
  Te  Te115  1  0.41455148  0.91465480  0.57906922  1
  Te  Te116  1  0.44655496  0.95494343  0.94109820  1
  Te  Te117  1  0.75128739  0.25421027  0.24419449  1
  Te  Te118  1  0.73797167  0.22590901  0.58019329  1
  Te  Te119  1  0.75336842  0.26595743  0.90897290  1
  Te  Te120  1  0.76443072  0.62281163  0.23541618  1
  Te  Te121  1  0.75791176  0.58119085  0.59006744  1
  Te  Te122  1  0.74342841  0.61483300  0.92501984  1
  Te  Te123  1  0.75280250  0.90569836  0.25444279  1
  Te  Te124  1  0.71861923  0.96930100  0.58583267  1
  Te  Te125  1  0.74907999  0.92244598  0.90830181  1
  Te  Te126  1  0.27328355  0.21949557  0.09719746  1
  Te  Te127  1  0.25885306  0.25617543  0.41112748  1
  Te  Te128  1  0.25644594  0.27656507  0.75893151  1
  Te  Te129  1  0.26705740  0.62777580  0.09720914  1
  Te  Te130  1  0.26412903  0.58777803  0.39796410  1
  Te  Te131  1  0.24199488  0.59215858  0.75618478  1
  Te  Te132  1  0.24957081  0.91535354  0.06527518  1
  Te  Te133  1  0.24183914  0.92789875  0.40914823  1
  Te  Te134  1  0.25487873  0.90979611  0.77679935  1
  Te  Te135  1  0.58616425  0.24550971  0.07519551  1
  Te  Te136  1  0.61228869  0.23778811  0.43556284  1
  Te  Te137  1  0.57675220  0.24085322  0.75614956  1
  Te  Te138  1  0.58624089  0.56183596  0.09726952  1
  Te  Te139  1  0.57059289  0.57939323  0.42023413  1
  Te  Te140  1  0.57619014  0.60225088  0.76662591  1
  Te  Te141  1  0.58146964  0.88933132  0.06710709  1
  Te  Te142  1  0.56302186  0.90347449  0.42252593  1
  Te  Te143  1  0.59119362  0.92722680  0.77196130  1
  Te  Te144  1  0.91375942  0.24891211  0.07942732  1
  Te  Te145  1  0.92181603  0.21170101  0.42774527  1
  Te  Te146  1  0.90557764  0.23606005  0.72650258  1
  Te  Te147  1  0.90541322  0.54718591  0.06534439  1
  Te  Te148  1  0.90188542  0.60589177  0.42439979  1
  Te  Te149  1  0.91713757  0.58106883  0.73764820  1
  Te  Te150  1  0.91522858  0.89161553  0.09553492  1
  Te  Te151  1  0.90677660  0.92761798  0.43483842  1
  Te  Te152  1  0.88395642  0.87795783  0.70685273  1
  Te  Te153  1  0.24953215  0.08432012  0.24690084  1
  Te  Te154  1  0.24263905  0.07931287  0.58835037  1
  Te  Te155  1  0.26103933  0.07984071  0.91368445  1
  Te  Te156  1  0.25278471  0.41105340  0.24404647  1
  Te  Te157  1  0.27225194  0.43924540  0.55282618  1
  Te  Te158  1  0.28076713  0.45836816  0.92100097  1
  Te  Te159  1  0.26111615  0.73677477  0.22696999  1
  Te  Te160  1  0.23108951  0.75762003  0.59287497  1
  Te  Te161  1  0.28381362  0.74154450  0.92408354  1
  Te  Te162  1  0.58599916  0.08099073  0.25524097  1
  Te  Te163  1  0.58685462  0.04036448  0.55547723  1
  Te  Te164  1  0.55315990  0.06980928  0.95501270  1
  Te  Te165  1  0.60576669  0.44159797  0.23520595  1
  Te  Te166  1  0.58989251  0.40736604  0.59464143  1
  Te  Te167  1  0.57886510  0.41168601  0.91900326  1
  Te  Te168  1  0.57989402  0.76361173  0.25216010  1
  Te  Te169  1  0.56870929  0.74414093  0.56813320  1
  Te  Te170  1  0.53881833  0.72830985  0.93480909  1
  Te  Te171  1  0.89358829  0.06658803  0.24147095  1
  Te  Te172  1  0.88941059  0.02320675  0.65855622  1
  Te  Te173  1  0.91951166  0.09617892  0.90223369  1
  Te  Te174  1  0.93957500  0.44223240  0.25275228  1
  Te  Te175  1  0.89997461  0.41456768  0.57321713  1
  Te  Te176  1  0.89024488  0.45153798  0.93447084  1
  Te  Te177  1  0.89522444  0.72831177  0.23279171  1
  Te  Te178  1  0.90195754  0.76154822  0.58388517  1
  Te  Te179  1  0.93270903  0.75798715  0.89643925  1
