# generated using pymatgen
data_In2Te3
_symmetry_space_group_name_H-M   'P 1'
_cell_length_a   19.04689274
_cell_length_b   19.06029414
_cell_length_c   19.07853344
_cell_angle_alpha   89.61662973
_cell_angle_beta   90.38362598
_cell_angle_gamma   89.63863288
_symmetry_Int_Tables_number   1
_chemical_formula_structural   In2Te3
_chemical_formula_sum   'In72 Te108'
_cell_volume   6925.80889162
_cell_formula_units_Z   36
loop_
 _symmetry_equiv_pos_site_id
 _symmetry_equiv_pos_as_xyz
  1  'x, y, z'
loop_
 _atom_site_type_symbol
 _atom_site_label
 _atom_site_symmetry_multiplicity
 _atom_site_fract_x
 _atom_site_fract_y
 _atom_site_fract_z
 _atom_site_occupancy
  In  In0  1  0.65704324  0.16395917  0.17840021  1
  In  In1  1  0.89493307  0.04060658  0.81157626  1
  In  In2  1  0.84642963  0.19367262  0.67485680  1
  In  In3  1  0.14982875  0.83795098  0.69202341  1
  In  In4  1  0.50239757  0.88619696  0.38587624  1
  In  In5  1  0.01271241  0.32115888  -0.00497909  1
  In  In6  1  0.69820600  0.16370407  0.50564882  1
  In  In7  1  0.32224152  0.49000963  0.83103702  1
  In  In8  1  0.14505753  0.16906906  0.72349470  1
  In  In9  1  0.84137431  0.82400037  0.35160430  1
  In  In10  1  0.33887434  0.84303953  0.51517380  1
  In  In11  1  0.19076014  0.66365826  0.15646865  1
  In  In12  1  0.00824647  0.66825670  0.31709149  1
  In  In13  1  0.48772508  0.16500697  0.67152042  1
  In  In14  1  0.83504366  0.84707701  0.03113553  1
  In  In15  1  0.14679815  0.47980998  0.67320829  1
  In  In16  1  0.83499965  0.64798286  0.84614612  1
  In  In17  1  0.03776362  0.85790546  0.12506150  1
  In  In18  1  0.65955272  0.66068036  0.65527716  1
  In  In19  1  0.63754490  0.83185396  0.21512743  1
  In  In20  1  0.67414514  -0.00645065  0.64462630  1
  In  In21  1  0.49349130  -0.02526315  0.82235999  1
  In  In22  1  0.31103955  0.32372721  0.63671025  1
  In  In23  1  -0.00590567  0.65058045  -0.00957840  1
  In  In24  1  0.86684452  0.34638953  0.15760997  1
  In  In25  1  0.64957643  0.63767014  0.32716455  1
  In  In26  1  0.65788836  0.15293559  0.83123712  1
  In  In27  1  0.66446179  -0.00496990  0.01342323  1
  In  In28  1  0.16759178  0.65417584  0.49633011  1
  In  In29  1  0.51348150  0.67149283  0.47852158  1
  In  In30  1  0.16911998  0.02361868  0.49429027  1
  In  In31  1  0.18027202  0.81052154  0.31510315  1
  In  In32  1  0.26106252  0.05775405  -0.00968800  1
  In  In33  1  0.35392379  0.52070460  0.18287290  1
  In  In34  1  -0.00333188  0.48568655  0.51312459  1
  In  In35  1  -0.01434653  0.31983734  0.33289854  1
  In  In36  1  0.15263917  0.35404059  0.15695762  1
  In  In37  1  -0.01406319  0.47380162  0.83934494  1
  In  In38  1  0.82153201  0.84973914  0.66089922  1
  In  In39  1  0.84042064  0.48259726  0.69951579  1
  In  In40  1  0.66613517  0.31557175  -0.03125630  1
  In  In41  1  0.31252937  0.00780136  0.65704537  1
  In  In42  1  0.32975271  0.31058493  -0.02248519  1
  In  In43  1  0.68793033  0.35770965  0.33729302  1
  In  In44  1  0.50475092  0.81683449  0.00850699  1
  In  In45  1  0.00331978  0.86186405  0.51318263  1
  In  In46  1  0.34267564  0.00976590  0.32971794  1
  In  In47  1  0.33844859  0.66495698  0.67975817  1
  In  In48  1  0.51154779  0.13198849  0.35621315  1
  In  In49  1  0.00481693  -0.01047815  0.33215794  1
  In  In50  1  0.04940564  0.16566101  0.13459555  1
  In  In51  1  -0.02225400  0.16976334  0.52545528  1
  In  In52  1  0.83148157  0.01558312  0.16933762  1
  In  In53  1  0.82844442  0.16301413  0.34452153  1
  In  In54  1  0.31852063  0.14931136  0.16794260  1
  In  In55  1  0.46356188  0.49654929  -0.00962724  1
  In  In56  1  0.31825076  0.30352039  0.35088090  1
  In  In57  1  0.33082070  0.67623573  -0.01076372  1
  In  In58  1  0.33498189  0.49779319  0.46917779  1
  In  In59  1  0.68207612  0.66030055  -0.01802789  1
  In  In60  1  0.81785117  0.69081542  0.19323510  1
  In  In61  1  0.85147652  0.48766594  -0.00013397  1
  In  In62  1  0.51821599  0.49936931  0.64564806  1
  In  In63  1  0.47313216  0.32537589  0.82139944  1
  In  In64  1  0.68195444  0.84680878  0.85604623  1
  In  In65  1  0.84940962  0.67267611  0.50074588  1
  In  In66  1  0.66510966  0.51134193  0.15604731  1
  In  In67  1  0.02285266  0.85997399  0.87231787  1
  In  In68  1  0.14775484  0.49657037  0.33536545  1
  In  In69  1  0.30681063  0.83410355  0.82916660  1
  In  In70  1  0.52446580  0.34762494  0.49586226  1
  In  In71  1  0.51236681  0.31461872  0.17535319  1
  Te  Te72  1  0.12712896  0.05802022  0.06887184  1
  Te  Te73  1  0.06181717  0.09897556  0.41876152  1
  Te  Te74  1  0.03797414  0.07357417  0.76552624  1
  Te  Te75  1  0.06431904  0.43586329  0.07094817  1
  Te  Te76  1  0.08185262  0.39591488  0.42505599  1
  Te  Te77  1  0.07521423  0.38337345  0.75933588  1
  Te  Te78  1  0.09731368  0.73919273  0.06029593  1
  Te  Te79  1  0.07194056  0.76021499  0.42210585  1
  Te  Te80  1  0.09226248  0.75229806  0.79786215  1
  Te  Te81  1  0.38659847  0.07140903  0.06672854  1
  Te  Te82  1  0.42327030  0.05437640  0.44453770  1
  Te  Te83  1  0.40277406  0.07868812  0.75951290  1
  Te  Te84  1  0.41313621  0.39991112  0.09673876  1
  Te  Te85  1  0.42594112  0.40666231  0.39518126  1
  Te  Te86  1  0.40268710  0.42195453  0.71832635  1
  Te  Te87  1  0.41104984  0.74235851  0.09175403  1
  Te  Te88  1  0.41238624  0.76301620  0.41174775  1
  Te  Te89  1  0.40543440  0.77957491  0.73553039  1
  Te  Te90  1  0.75088569  0.10155299  0.07521761  1
  Te  Te91  1  0.72930689  0.06712286  0.39712462  1
  Te  Te92  1  0.75253099  0.06466696  0.75122535  1
  Te  Te93  1  0.74129227  0.40455101  0.07700937  1
  Te  Te94  1  0.71681831  0.45041969  0.44429725  1
  Te  Te95  1  0.75105780  0.42676213  0.79786124  1
  Te  Te96  1  0.72455309  0.75969532  0.08846240  1
  Te  Te97  1  0.74179469  0.72996034  0.41038941  1
  Te  Te98  1  0.75765534  0.74930343  0.76227786  1
  Te  Te99  1  0.09345610  0.25117601  0.25055944  1
  Te  Te100  1  0.07651496  0.24273921  0.60887736  1
  Te  Te101  1  0.09657953  0.22708963  0.91810436  1
  Te  Te102  1  0.08392225  0.57951820  0.22431895  1
  Te  Te103  1  0.07280003  0.58977027  0.59195313  1
  Te  Te104  1  0.07634503  0.54559705  0.93219730  1
  Te  Te105  1  0.10636493  0.92280800  0.24222921  1
  Te  Te106  1  0.09028690  0.94723173  0.59850929  1
  Te  Te107  1  0.12550523  0.94635815  0.93577648  1
  Te  Te108  1  0.42316395  0.22822402  0.26217801  1
  Te  Te109  1  0.42628525  0.25617220  0.56599970  1
  Te  Te110  1  0.42435666  0.22314319  0.91199442  1
  Te  Te111  1  0.45683526  0.59037881  0.25322039  1
  Te  Te112  1  0.40836164  0.58960357  0.56512132  1
  Te  Te113  1  0.41175430  0.59634785  0.88848486  1
  Te  Te114  1  0.42727397  0.91203955  0.26328324  1
  Te  Te115  1  0.42185681  0.93869814  0.58690854  1
  Te  Te116  1  0.41051979  0.89871046  0.92149146  1
  Te  Te117  1  0.76202943  0.25783599  0.23922400  1
  Te  Te118  1  0.73641464  0.26326786  0.60491390  1
  Te  Te119  1  0.76176658  0.23432211  0.89538538  1
  Te  Te120  1  0.76369924  0.56702468  0.25759878  1
  Te  Te121  1  0.77816911  0.58676935  0.60152450  1
  Te  Te122  1  0.73902045  0.54023924  0.89973798  1
  Te  Te123  1  0.76265217  0.90912894  0.25005670  1
  Te  Te124  1  0.72979260  0.89248648  0.55096554  1
  Te  Te125  1  0.77462857  0.94251086  0.92472965  1
  Te  Te126  1  0.24221253  0.25544315  0.08744791  1
  Te  Te127  1  0.25664757  0.22652056  0.45457742  1
  Te  Te128  1  0.26685243  0.24782390  0.75546628  1
  Te  Te129  1  0.26305320  0.56290225  0.07163600  1
  Te  Te130  1  0.25158998  0.59669029  0.38691210  1
  Te  Te131  1  0.23317045  0.58158690  0.74654374  1
  Te  Te132  1  0.22411787  0.92388597  0.04772388  1
  Te  Te133  1  0.23174854  0.90427588  0.42561082  1
  Te  Te134  1  0.22599167  0.94590385  0.76324570  1
  Te  Te135  1  0.57900410  0.23539248  0.06777469  1
  Te  Te136  1  0.60444245  0.24880726  0.40443044  1
  Te  Te137  1  0.58324195  0.25472986  0.74528400  1
  Te  Te138  1  0.57673024  0.57958544  0.05426532  1
  Te  Te139  1  0.60245408  0.55434156  0.44181091  1
  Te  Te140  1  0.57694156  0.58407500  0.74678378  1
  Te  Te141  1  0.57500424  0.91348881  0.10143320  1
  Te  Te142  1  0.63269285  0.93444170  0.42411399  1
  Te  Te143  1  0.59822514  0.90331105  0.74255730  1
  Te  Te144  1  0.92358274  0.23049828  0.08123596  1
  Te  Te145  1  0.89100307  0.26395973  0.43517382  1
  Te  Te146  1  0.95728190  0.28447353  0.71411157  1
  Te  Te147  1  0.88974532  0.60282623  0.08854807  1
  Te  Te148  1  0.92913869  0.58153973  0.41078578  1
  Te  Te149  1  0.93728961  0.59181468  0.75570938  1
  Te  Te150  1  0.93372915  0.95423084  0.07210267  1
  Te  Te151  1  0.90222286  0.93782976  0.42965408  1
  Te  Te152  1  0.92464554  0.90250235  0.75893064  1
  Te  Te153  1  0.23464621  0.08523582  0.26797781  1
  Te  Te154  1  0.25812403  0.11872205  0.56741180  1
  Te  Te155  1  0.21258949  0.13642660  0.86718039  1
  Te  Te156  1  0.25145710  0.41575364  0.25824851  1
  Te  Te157  1  0.23548376  0.42958330  0.55881158  1
  Te  Te158  1  0.23848831  0.40264227  0.90995354  1
  Te  Te159  1  0.27922615  0.76017861  0.22184830  1
  Te  Te160  1  0.23324592  0.75252796  0.59126551  1
  Te  Te161  1  0.22510244  0.73699497  0.90438016  1
  Te  Te162  1  0.57558812  0.06437550  0.24473121  1
  Te  Te163  1  0.58395545  0.09441423  0.57807052  1
  Te  Te164  1  0.57076320  0.06507283  0.91682399  1
  Te  Te165  1  0.58265304  0.42489025  0.24924123  1
  Te  Te166  1  0.61980792  0.40561987  0.59335613  1
  Te  Te167  1  0.55830045  0.41072461  0.91173804  1
  Te  Te168  1  0.55429078  0.71099076  0.23751126  1
  Te  Te169  1  0.57965880  0.75421346  0.57700463  1
  Te  Te170  1  0.58249209  0.74346959  0.90203123  1
  Te  Te171  1  0.92895763  0.09700397  0.25044553  1
  Te  Te172  1  0.88021437  0.08134054  0.58820180  1
  Te  Te173  1  0.97665276  0.13039611  0.89625776  1
  Te  Te174  1  0.91674668  0.42978737  0.26406172  1
  Te  Te175  1  0.91119913  0.40111251  0.59838611  1
  Te  Te176  1  0.89618189  0.37539454  0.91083508  1
  Te  Te177  1  0.93911032  0.77746664  0.23556864  1
  Te  Te178  1  0.92705162  0.76150965  0.59517927  1
  Te  Te179  1  0.90659498  0.76386802  0.92742619  1
