# generated using pymatgen
data_In2Te3
_symmetry_space_group_name_H-M   'P 1'
_cell_length_a   18.99882965
_cell_length_b   19.01807959
_cell_length_c   19.02554361
_cell_angle_alpha   89.94411314
_cell_angle_beta   89.95948733
_cell_angle_gamma   90.16497672
_symmetry_Int_Tables_number   1
_chemical_formula_structural   In2Te3
_chemical_formula_sum   'In72 Te108'
_cell_volume   6874.29978371
_cell_formula_units_Z   36
loop_
 _symmetry_equiv_pos_site_id
 _symmetry_equiv_pos_as_xyz
  1  'x, y, z'
loop_
 _atom_site_type_symbol
 _atom_site_label
 _atom_site_symmetry_multiplicity
 _atom_site_fract_x
 _atom_site_fract_y
 _atom_site_fract_z
 _atom_site_occupancy
  In  In0  1  0.51044918  0.34823572  0.51805563  1
  In  In1  1  0.68463985  0.17242314  0.52399838  1
  In  In2  1  0.32635888  0.17794264  0.17968974  1
  In  In3  1  -0.05265094  0.51158600  0.15316196  1
  In  In4  1  0.17938026  0.80054461  0.67799881  1
  In  In5  1  0.17772214  0.18788176  0.65866670  1
  In  In6  1  0.83159455  0.70455823  0.15802185  1
  In  In7  1  0.84120595  -0.00331579  0.84024862  1
  In  In8  1  0.01660521  0.17682010  0.50148462  1
  In  In9  1  0.66222882  -0.02185309  -0.00838993  1
  In  In10  1  0.81606734  0.16274033  -0.00805346  1
  In  In11  1  0.65298530  0.83372677  0.19799689  1
  In  In12  1  0.65880950  0.33933762  0.32720213  1
  In  In13  1  0.49644770  0.48548917  0.34599354  1
  In  In14  1  0.84024989  0.19192545  0.67123883  1
  In  In15  1  0.52020776  0.32457877  0.81568009  1
  In  In16  1  0.03935261  0.00051763  0.66387599  1
  In  In17  1  0.16027062  0.84812156  -0.01156304  1
  In  In18  1  0.79873646  0.34068143  0.15890773  1
  In  In19  1  0.35270763  0.65412971  0.68711687  1
  In  In20  1  0.51164811  0.48795348  0.67358888  1
  In  In21  1  0.33825192  0.19300768  0.51444188  1
  In  In22  1  0.81819604  0.82943026  0.67611039  1
  In  In23  1  0.16326390  -0.00597683  0.48033477  1
  In  In24  1  0.36181459  0.63736519  -0.03990692  1
  In  In25  1  0.16332760  0.83595779  0.32928946  1
  In  In26  1  0.79677651  0.82206035  0.34881361  1
  In  In27  1  -0.00208296  0.65744155  0.31562399  1
  In  In28  1  0.34669179  0.80676098  0.15359196  1
  In  In29  1  0.15768151  0.68904587  0.13472240  1
  In  In30  1  0.15925745  0.35384524  0.16058142  1
  In  In31  1  -0.01305198  0.31844388  -0.03696119  1
  In  In32  1  0.64962582  0.00040623  0.67782580  1
  In  In33  1  0.17128486  0.50663911  0.67838127  1
  In  In34  1  0.33634428  0.81628967  0.82830169  1
  In  In35  1  0.34455018  0.67440997  0.37816173  1
  In  In36  1  0.65595545  0.64539011  0.66669571  1
  In  In37  1  0.46812668  0.01583888  0.18176755  1
  In  In38  1  0.66263312  0.66011299  0.02797351  1
  In  In39  1  -0.00090697  0.31918113  0.33863364  1
  In  In40  1  0.47995495  0.17385248  0.33521865  1
  In  In41  1  0.51092452  0.81412258  -0.00253139  1
  In  In42  1  -0.03474692  0.82174825  0.86697101  1
  In  In43  1  0.18486922  0.52432354  0.32215264  1
  In  In44  1  0.17195830  0.34597041  0.83232941  1
  In  In45  1  -0.01028100  -0.00634574  0.00618194  1
  In  In46  1  0.81449108  -0.00661395  0.52682391  1
  In  In47  1  0.65580130  0.66228635  0.34376190  1
  In  In48  1  0.66491257  0.15041068  0.13837125  1
  In  In49  1  0.86418262  0.15698225  0.33179571  1
  In  In50  1  0.53140513  -0.02438471  0.45756274  1
  In  In51  1  0.80541960  0.49592928  0.64585020  1
  In  In52  1  0.17182352  0.34892131  0.49589721  1
  In  In53  1  0.00169236  0.66451346  0.68173569  1
  In  In54  1  0.51137380  0.64906017  0.51536803  1
  In  In55  1  0.31063992  0.00992602  -0.01135469  1
  In  In56  1  0.50783151  0.19568157  -0.01649842  1
  In  In57  1  0.82238737  0.35501129  0.82177952  1
  In  In58  1  -0.01735377  0.50890156  0.85996796  1
  In  In59  1  0.80844946  0.50828504  0.35125910  1
  In  In60  1  -0.00555062  0.80696449  0.47697909  1
  In  In61  1  0.34631063  0.37404959  0.01750745  1
  In  In62  1  0.49750673  0.02042959  0.83961549  1
  In  In63  1  0.18528507  0.02352088  0.81490599  1
  In  In64  1  0.32047960  -0.00877346  0.32714112  1
  In  In65  1  0.37400854  0.00700777  0.64902025  1
  In  In66  1  -0.00658142  0.49306172  0.52360243  1
  In  In67  1  0.34290148  0.50528881  0.17606936  1
  In  In68  1  0.14612985  0.50305218  -0.00524985  1
  In  In69  1  0.00669837  -0.01132818  0.32624634  1
  In  In70  1  0.66813050  0.35999265  -0.01098292  1
  In  In71  1  0.01344989  0.15637531  0.14101876  1
  Te  Te72  1  0.09946696  0.06850115  0.06417064  1
  Te  Te73  1  0.08973344  0.09566049  0.39732082  1
  Te  Te74  1  0.08077578  0.11564623  0.75118697  1
  Te  Te75  1  0.04597962  0.41326836  0.07926836  1
  Te  Te76  1  0.07747622  0.43406384  0.39854299  1
  Te  Te77  1  0.06880127  0.42994436  0.76156693  1
  Te  Te78  1  0.05875442  0.77791922  0.07270112  1
  Te  Te79  1  0.09918835  0.72311041  0.40895319  1
  Te  Te80  1  0.07719159  0.75428339  0.77648680  1
  Te  Te81  1  0.41868433  0.09813000  0.06415146  1
  Te  Te82  1  0.40394879  0.07555559  0.42174841  1
  Te  Te83  1  0.41032044  0.10698338  0.75314374  1
  Te  Te84  1  0.45067328  0.45547268  0.08606422  1
  Te  Te85  1  0.41436949  0.38505622  0.41478362  1
  Te  Te86  1  0.41705880  0.38922953  0.73210035  1
  Te  Te87  1  0.43144165  0.70923453  0.07462357  1
  Te  Te88  1  0.45855720  0.75071200  0.42287480  1
  Te  Te89  1  0.44295371  0.75670880  0.74767728  1
  Te  Te90  1  0.76359745  0.05010210  0.07930605  1
  Te  Te91  1  0.76091980  0.08789249  0.42295590  1
  Te  Te92  1  0.76241847  0.08072986  0.74137510  1
  Te  Te93  1  0.72484010  0.45295323  0.09486563  1
  Te  Te94  1  0.75307454  0.39515348  0.42380496  1
  Te  Te95  1  0.73205941  0.45538910  0.76676974  1
  Te  Te96  1  0.73636675  0.79018710  0.08069225  1
  Te  Te97  1  0.74281946  0.72754876  0.44635355  1
  Te  Te98  1  0.75283835  0.72225705  0.75580708  1
  Te  Te99  1  0.08753519  0.24636380  0.24091798  1
  Te  Te100  1  0.07538290  0.27923553  0.59292020  1
  Te  Te101  1  0.11096844  0.25347232  0.92970441  1
  Te  Te102  1  0.07757103  0.57593874  0.21544686  1
  Te  Te103  1  0.09057693  0.59349157  0.58171028  1
  Te  Te104  1  0.06660176  0.60609750  0.93044477  1
  Te  Te105  1  0.08169960  0.90661214  0.23243120  1
  Te  Te106  1  0.09010669  0.89012479  0.57136315  1
  Te  Te107  1  0.08749577  0.93209304  0.88586198  1
  Te  Te108  1  0.42417437  0.26741147  0.23893228  1
  Te  Te109  1  0.44067180  0.24765671  0.60089334  1
  Te  Te110  1  0.40607825  0.28022225  0.91542572  1
  Te  Te111  1  0.41866053  0.59276344  0.27161322  1
  Te  Te112  1  0.41177133  0.55924011  0.58413629  1
  Te  Te113  1  0.46037520  0.55692952  0.88713585  1
  Te  Te114  1  0.41539682  0.89552458  0.25658462  1
  Te  Te115  1  0.45559833  0.91581639  0.56966857  1
  Te  Te116  1  0.41206438  0.91465851  0.92588131  1
  Te  Te117  1  0.75212612  0.22537109  0.24765537  1
  Te  Te118  1  0.71604536  0.26284304  0.63577139  1
  Te  Te119  1  0.73628833  0.25488452  0.90428407  1
  Te  Te120  1  0.75919518  0.60274413  0.24591915  1
  Te  Te121  1  0.75179071  0.60458210  0.56017629  1
  Te  Te122  1  0.78301442  0.61062204  0.95424458  1
  Te  Te123  1  0.73813265  0.93425653  0.27012002  1
  Te  Te124  1  0.71688002  0.89598876  0.58465483  1
  Te  Te125  1  0.72971557  0.90784559  0.88024501  1
  Te  Te126  1  0.25376794  0.26836383  0.08078029  1
  Te  Te127  1  0.24456645  0.24772483  0.41913881  1
  Te  Te128  1  0.26367408  0.28196825  0.73329420  1
  Te  Te129  1  0.25101798  0.58092240  0.08054327  1
  Te  Te130  1  0.26354666  0.56742274  0.43556336  1
  Te  Te131  1  0.24939609  0.59013825  0.76928054  1
  Te  Te132  1  0.25621831  0.90976591  0.08997749  1
  Te  Te133  1  0.26220382  0.89300730  0.42864994  1
  Te  Te134  1  0.26815490  0.91950878  0.73833042  1
  Te  Te135  1  0.58892439  0.26999879  0.08710699  1
  Te  Te136  1  0.58797945  0.24028168  0.42062852  1
  Te  Te137  1  0.54498668  0.18433287  0.77195703  1
  Te  Te138  1  0.59288411  0.54215754  0.08700206  1
  Te  Te139  1  0.59737598  0.55503066  0.43426196  1
  Te  Te140  1  0.56270269  0.58771512  0.77419060  1
  Te  Te141  1  0.56027310  0.92746712  0.09354589  1
  Te  Te142  1  0.62562476  0.89922593  0.37428383  1
  Te  Te143  1  0.58744574  0.91742750  0.78367550  1
  Te  Te144  1  0.89883658  0.24989392  0.08737466  1
  Te  Te145  1  0.90374212  0.25715340  0.43886862  1
  Te  Te146  1  0.92104941  0.25869899  0.77173688  1
  Te  Te147  1  0.90786205  0.61962993  0.06074917  1
  Te  Te148  1  0.91985576  0.58271915  0.42100772  1
  Te  Te149  1  0.90785053  0.56492922  0.74153059  1
  Te  Te150  1  0.92308364  0.86185785  0.00443677  1
  Te  Te151  1  0.91156005  0.92331073  0.42644472  1
  Te  Te152  1  0.92999470  0.92169305  0.73459551  1
  Te  Te153  1  0.24212528  0.07404243  0.23699836  1
  Te  Te154  1  0.24419748  0.07160430  0.58211761  1
  Te  Te155  1  0.26202357  0.11395317  0.89971563  1
  Te  Te156  1  0.25953720  0.40926634  0.25909685  1
  Te  Te157  1  0.25192567  0.40516031  0.60592898  1
  Te  Te158  1  0.25768178  0.44267555  0.91413392  1
  Te  Te159  1  0.24998361  0.73358435  0.24723837  1
  Te  Te160  1  0.28093302  0.74411667  0.59304489  1
  Te  Te161  1  0.25424485  0.74361708  0.93079911  1
  Te  Te162  1  0.57888774  0.09201281  0.24944751  1
  Te  Te163  1  0.57816863  0.07486939  0.56878526  1
  Te  Te164  1  0.60465465  0.09744486  0.91805298  1
  Te  Te165  1  0.59666243  0.44254359  0.24483091  1
  Te  Te166  1  0.61498875  0.40592387  0.60498874  1
  Te  Te167  1  0.56744725  0.43431653  0.90874673  1
  Te  Te168  1  0.57347153  0.71960309  0.23743154  1
  Te  Te169  1  0.55815191  0.74541085  0.61926706  1
  Te  Te170  1  0.58980407  0.72328739  0.91642197  1
  Te  Te171  1  0.92261463  0.06658344  0.22616403  1
  Te  Te172  1  0.93456373  0.07689323  0.58129701  1
  Te  Te173  1  0.92738696  0.09676596  0.91457534  1
  Te  Te174  1  0.90256141  0.40840751  0.25747234  1
  Te  Te175  1  0.90337365  0.40148684  0.59065228  1
  Te  Te176  1  0.88566935  0.42537678  0.94263978  1
  Te  Te177  1  0.91642498  0.77271058  0.26318926  1
  Te  Te178  1  0.91407402  0.74664046  0.58867965  1
  Te  Te179  1  0.85970912  0.71697484  0.87140420  1
