# generated using pymatgen
data_In2Te3
_symmetry_space_group_name_H-M   'P 1'
_cell_length_a   18.82003380
_cell_length_b   18.81097266
_cell_length_c   18.81641394
_cell_angle_alpha   89.95110171
_cell_angle_beta   89.90880867
_cell_angle_gamma   89.98124172
_symmetry_Int_Tables_number   1
_chemical_formula_structural   In2Te3
_chemical_formula_sum   'In72 Te108'
_cell_volume   6661.43475480
_cell_formula_units_Z   36
loop_
 _symmetry_equiv_pos_site_id
 _symmetry_equiv_pos_as_xyz
  1  'x, y, z'
loop_
 _atom_site_type_symbol
 _atom_site_label
 _atom_site_symmetry_multiplicity
 _atom_site_fract_x
 _atom_site_fract_y
 _atom_site_fract_z
 _atom_site_occupancy
  In  In0  1  0.46082823  0.36073942  0.14307325  1
  In  In1  1  0.50903794  0.33647510  0.84480544  1
  In  In2  1  0.32173511  0.17133751  0.50387706  1
  In  In3  1  0.49260204  0.15656236  -0.01231699  1
  In  In4  1  0.68768365  0.82559449  0.83055656  1
  In  In5  1  0.87156706  0.85628703  0.36459554  1
  In  In6  1  0.47936536  -0.02833702  0.16550574  1
  In  In7  1  0.67358484  0.84435686  0.13421513  1
  In  In8  1  0.48335036  0.80022348  0.68269336  1
  In  In9  1  0.84178670  0.61418359  0.83734736  1
  In  In10  1  0.84344219  0.00817183  0.83931626  1
  In  In11  1  -0.00583802  0.33222952  -0.02019363  1
  In  In12  1  0.16007333  0.65648378  0.51855098  1
  In  In13  1  -0.01615434  0.67475465  0.34110029  1
  In  In14  1  0.32893249  0.65852383  0.33089926  1
  In  In15  1  0.19640833  0.34143851  0.15783833  1
  In  In16  1  0.49971901  0.00776709  0.50133573  1
  In  In17  1  0.16750010  0.01160697  0.16523957  1
  In  In18  1  0.30690181  0.83752618  0.48549128  1
  In  In19  1  0.82850106  0.67909471  0.16707190  1
  In  In20  1  0.33200127  0.00499452  0.00393982  1
  In  In21  1  0.83977082  0.82329105  0.00673371  1
  In  In22  1  0.01106818  0.00880476  0.65544655  1
  In  In23  1  0.16153784  0.18723938  -0.00508816  1
  In  In24  1  0.02982247  0.85849926  0.85126795  1
  In  In25  1  0.49966752  0.64982065  0.13419253  1
  In  In26  1  0.48058083  0.65158670  0.84025717  1
  In  In27  1  0.66485949  0.50787093  0.15129607  1
  In  In28  1  0.17804614  0.67228710  0.11906313  1
  In  In29  1  0.66481112  0.33929806  -0.01100959  1
  In  In30  1  0.67986842  0.00764393  0.33399827  1
  In  In31  1  0.84486685  0.16436889  -0.01326791  1
  In  In32  1  0.67756310  0.18173247  0.17063499  1
  In  In33  1  0.48736292  0.82914404  0.00905928  1
  In  In34  1  0.49240820  0.47511656  0.35469750  1
  In  In35  1  0.68232272  0.50029512  0.50602772  1
  In  In36  1  0.84815545  0.64624103  0.52158603  1
  In  In37  1  0.00508643  0.51536226  0.17243155  1
  In  In38  1  0.01294066  0.15544842  0.17883381  1
  In  In39  1  0.01052375  0.50686678  0.52944958  1
  In  In40  1  0.67134872  0.82807386  0.52435300  1
  In  In41  1  0.14592968  0.17289446  0.66407697  1
  In  In42  1  0.31271513  -0.01324864  0.67602181  1
  In  In43  1  0.84884751  0.35587417  0.81833567  1
  In  In44  1  0.84760429  -0.00090866  0.16189504  1
  In  In45  1  0.69351873  0.14558976  0.50961850  1
  In  In46  1  0.14249715  0.48702693  0.33528901  1
  In  In47  1  0.69019104  -0.01742277  0.67270022  1
  In  In48  1  0.48908820  0.18700686  0.31024397  1
  In  In49  1  0.47433601  0.32548431  0.49944669  1
  In  In50  1  0.17735338  0.67318475  0.84092614  1
  In  In51  1  0.48565915  0.85657386  0.30325647  1
  In  In52  1  0.65708418  0.33479239  0.69784305  1
  In  In53  1  0.85853933  0.18624386  0.67047816  1
  In  In54  1  0.15412037  0.14321037  0.35619634  1
  In  In55  1  0.49525979  0.00219524  0.85260561  1
  In  In56  1  0.67249124  0.67755666  0.32505443  1
  In  In57  1  0.67222136  0.32123793  0.33707405  1
  In  In58  1  0.48071705  0.66155648  0.52247456  1
  In  In59  1  0.84010277  0.81661111  0.65144450  1
  In  In60  1  -0.00675065  0.33583650  0.34026364  1
  In  In61  1  0.31218418  0.48596073  0.83014860  1
  In  In62  1  0.80837017  0.33062739  0.17465638  1
  In  In63  1  0.34381619  0.84003455  0.15378754  1
  In  In64  1  0.15449339  0.85834300  0.33123554  1
  In  In65  1  0.33873747  0.18129387  0.82980800  1
  In  In66  1  0.18038512  0.50815660  -0.01102807  1
  In  In67  1  0.49897071  0.51569979  0.67428274  1
  In  In68  1  0.01119995  0.67117869  -0.02275452  1
  In  In69  1  0.16262606  0.83337531  0.66650041  1
  In  In70  1  0.86847822  0.33350334  0.50104573  1
  In  In71  1  0.31696633  0.32987648  0.63880179  1
  Te  Te72  1  0.07576852  0.08033180  0.06286347  1
  Te  Te73  1  0.04801523  0.06973461  0.42802817  1
  Te  Te74  1  0.09238008  0.07204953  0.76019710  1
  Te  Te75  1  0.07976567  0.41773591  0.08241415  1
  Te  Te76  1  0.08630310  0.39827851  0.44600321  1
  Te  Te77  1  0.01042612  0.41722442  0.71578123  1
  Te  Te78  1  0.07217738  0.76419557  0.07536602  1
  Te  Te79  1  0.08875532  0.74955193  0.42120931  1
  Te  Te80  1  0.07262150  0.74802743  0.75588665  1
  Te  Te81  1  0.40993603  0.09305563  0.09974223  1
  Te  Te82  1  0.41553457  0.09188211  0.40927180  1
  Te  Te83  1  0.41433568  0.07705656  0.74694717  1
  Te  Te84  1  0.39763252  0.45656324  0.05247874  1
  Te  Te85  1  0.38016394  0.41070548  0.42565081  1
  Te  Te86  1  0.41613993  0.40132555  0.73980709  1
  Te  Te87  1  0.38726297  0.72426195  0.06270345  1
  Te  Te88  1  0.42655520  0.75575107  0.41323094  1
  Te  Te89  1  0.37690686  0.73586837  0.76835932  1
  Te  Te90  1  0.75037060  0.08454780  0.07941534  1
  Te  Te91  1  0.78157012  0.06903783  0.42032932  1
  Te  Te92  1  0.75918268  0.09631536  0.74730506  1
  Te  Te93  1  0.76505162  0.42711156  0.06638540  1
  Te  Te94  1  0.76543033  0.41335181  0.41282879  1
  Te  Te95  1  0.74023705  0.43967044  0.75840218  1
  Te  Te96  1  0.72544128  0.72007046  0.05471443  1
  Te  Te97  1  0.76558801  0.74873666  0.42286049  1
  Te  Te98  1  0.76205806  0.72688368  0.74659369  1
  Te  Te99  1  0.09345940  0.26520897  0.24715328  1
  Te  Te100  1  0.09386882  0.29741814  0.59804919  1
  Te  Te101  1  0.08035756  0.25434504  0.88744446  1
  Te  Te102  1  0.09516113  0.61092423  0.25093991  1
  Te  Te103  1  0.09954934  0.57709454  0.63009650  1
  Te  Te104  1  0.07823911  0.56577956  0.89163312  1
  Te  Te105  1  0.06661194  0.93078264  0.23795624  1
  Te  Te106  1  0.08092107  0.90919236  0.56575549  1
  Te  Te107  1  0.11870162  0.90869705  0.95442345  1
  Te  Te108  1  0.39529246  0.28323205  0.25094353  1
  Te  Te109  1  0.42514256  0.22573307  0.60237733  1
  Te  Te110  1  0.40504043  0.27032667  0.93512190  1
  Te  Te111  1  0.43585255  0.57996056  0.25501240  1
  Te  Te112  1  0.39244600  0.56217320  0.58356630  1
  Te  Te113  1  0.40444486  0.55391510  0.92796495  1
  Te  Te114  1  0.36543717  0.94289956  0.26544929  1
  Te  Te115  1  0.41929998  0.90540885  0.58298242  1
  Te  Te116  1  0.39622442  0.90264675  0.90879702  1
  Te  Te117  1  0.77485225  0.22333035  0.27990111  1
  Te  Te118  1  0.74960594  0.26702604  0.58367326  1
  Te  Te119  1  0.75828056  0.25606645  0.90275706  1
  Te  Te120  1  0.75877325  0.57370012  0.25457105  1
  Te  Te121  1  0.75299659  0.57521654  0.61008415  1
  Te  Te122  1  0.74516604  0.61021150  0.94708926  1
  Te  Te123  1  0.75283176  0.89880218  0.25314127  1
  Te  Te124  1  0.78046223  0.92878874  0.56273442  1
  Te  Te125  1  0.75145687  0.92329177  0.92683521  1
  Te  Te126  1  0.27221097  0.25154789  0.06960502  1
  Te  Te127  1  0.23720066  0.25114715  0.41406562  1
  Te  Te128  1  0.23783897  0.26291399  0.75204381  1
  Te  Te129  1  0.26637229  0.55259094  0.10497290  1
  Te  Te130  1  0.24267383  0.57225687  0.42139945  1
  Te  Te131  1  0.23023738  0.57254093  0.74065331  1
  Te  Te132  1  0.23247781  0.89940733  0.06329383  1
  Te  Te133  1  0.23641138  0.94670707  0.41800048  1
  Te  Te134  1  0.23209524  0.91073684  0.77241344  1
  Te  Te135  1  0.57516077  0.25820261  0.08695890  1
  Te  Te136  1  0.58427264  0.23283828  0.42526989  1
  Te  Te137  1  0.58209840  0.23083373  0.76999608  1
  Te  Te138  1  0.58217478  0.56717150  0.04225010  1
  Te  Te139  1  0.58560481  0.59011664  0.41665353  1
  Te  Te140  1  0.58953087  0.57903468  0.77033669  1
  Te  Te141  1  0.58282078  0.93920555  0.05798030  1
  Te  Te142  1  0.58866837  0.90752728  0.41894580  1
  Te  Te143  1  0.57739258  0.90921836  0.74624786  1
  Te  Te144  1  0.91651626  0.25178330  0.09699349  1
  Te  Te145  1  0.94319355  0.22605450  0.42953480  1
  Te  Te146  1  0.95120738  0.25838900  0.76255734  1
  Te  Te147  1  0.91906490  0.59520229  0.07663641  1
  Te  Te148  1  0.91942038  0.56072932  0.41517908  1
  Te  Te149  1  0.93259081  0.55252142  0.73701038  1
  Te  Te150  1  0.92958887  0.92331100  0.06542283  1
  Te  Te151  1  0.97609289  0.93006823  0.44021875  1
  Te  Te152  1  0.91768493  0.91264347  0.74579552  1
  Te  Te153  1  0.24175175  0.11277216  0.24126232  1
  Te  Te154  1  0.23190885  0.07476386  0.58138424  1
  Te  Te155  1  0.24800171  0.08801828  0.90883686  1
  Te  Te156  1  0.25548703  0.44039275  0.25156550  1
  Te  Te157  1  0.19866772  0.40505429  0.59370448  1
  Te  Te158  1  0.22106490  0.39440389  0.90388451  1
  Te  Te159  1  0.24880935  0.75590473  0.24548896  1
  Te  Te160  1  0.26344449  0.74183246  0.59313535  1
  Te  Te161  1  0.29371648  0.73938576  0.90131197  1
  Te  Te162  1  0.57893945  0.07433055  0.24082544  1
  Te  Te163  1  0.59122752  0.07827100  0.60024040  1
  Te  Te164  1  0.59822098  0.09177578  0.90787397  1
  Te  Te165  1  0.58635970  0.40820073  0.24621008  1
  Te  Te166  1  0.57771075  0.41127745  0.57620702  1
  Te  Te167  1  0.59330113  0.44146079  0.90769813  1
  Te  Te168  1  0.57952292  0.75408698  0.22721048  1
  Te  Te169  1  0.59261801  0.72512732  0.60536622  1
  Te  Te170  1  0.57311251  0.75704263  0.90591108  1
  Te  Te171  1  0.92985288  0.06742413  0.26397347  1
  Te  Te172  1  0.94052253  0.11160606  0.56990051  1
  Te  Te173  1  0.94448504  0.09349623  0.90366596  1
  Te  Te174  1  0.90963628  0.42264638  0.24751715  1
  Te  Te175  1  0.89980475  0.43522990  0.61306159  1
  Te  Te176  1  0.91291111  0.44097855  0.92292221  1
  Te  Te177  1  0.92146871  0.77340056  0.24334421  1
  Te  Te178  1  0.94419609  0.74007119  0.58115148  1
  Te  Te179  1  0.91317501  0.75316375  0.89138065  1
