# generated using pymatgen
data_In2Te3
_symmetry_space_group_name_H-M   'P 1'
_cell_length_a   18.78955144
_cell_length_b   18.79476119
_cell_length_c   18.79804933
_cell_angle_alpha   90.01231095
_cell_angle_beta   90.01422007
_cell_angle_gamma   89.96426363
_symmetry_Int_Tables_number   1
_chemical_formula_structural   In2Te3
_chemical_formula_sum   'In72 Te108'
_cell_volume   6638.43796654
_cell_formula_units_Z   36
loop_
 _symmetry_equiv_pos_site_id
 _symmetry_equiv_pos_as_xyz
  1  'x, y, z'
loop_
 _atom_site_type_symbol
 _atom_site_label
 _atom_site_symmetry_multiplicity
 _atom_site_fract_x
 _atom_site_fract_y
 _atom_site_fract_z
 _atom_site_occupancy
  In  In0  1  0.32269643  0.30487357  0.00837637  1
  In  In1  1  0.65961429  0.50467310  0.48389218  1
  In  In2  1  0.80208754  -0.01638203  0.85226284  1
  In  In3  1  0.65091278  0.50547814  0.87010603  1
  In  In4  1  -0.01561407  0.68422585  0.01114499  1
  In  In5  1  0.33868309  0.66156701  0.33534225  1
  In  In6  1  0.77539811  0.68868097  0.43922358  1
  In  In7  1  0.17449682  0.48033485  0.03788492  1
  In  In8  1  -0.00336230  0.84187834  0.47826544  1
  In  In9  1  0.15557936  0.31135171  0.84233087  1
  In  In10  1  0.50644107  0.34145200  0.16360629  1
  In  In11  1  0.80070404  0.32664426  0.86936599  1
  In  In12  1  0.00904043  0.49562443  0.84385297  1
  In  In13  1  0.15291042  0.84373124  0.65926605  1
  In  In14  1  0.15294543  0.69613556  0.50344872  1
  In  In15  1  0.80899466  0.51162227  0.30168421  1
  In  In16  1  0.34615007  0.83259196  0.84886988  1
  In  In17  1  0.18660045  0.50273618  0.63530082  1
  In  In18  1  0.18409329  0.49237262  0.29550385  1
  In  In19  1  0.55132544  -0.00950327  0.83910855  1
  In  In20  1  0.50488558  0.85621010  0.02466730  1
  In  In21  1  0.85125267  0.30283286  0.49628043  1
  In  In22  1  0.67856314  0.69597568  0.66128751  1
  In  In23  1  0.82211993  0.14406273  0.68796136  1
  In  In24  1  0.83173256  0.70098677  0.82233035  1
  In  In25  1  0.33246079  0.15895355  0.49904449  1
  In  In26  1  0.18393229  0.35190808  0.49043822  1
  In  In27  1  0.53536908  0.68448975  0.48186008  1
  In  In28  1  0.83963437  0.14519821  0.32632635  1
  In  In29  1  0.50204602  0.83764227  0.30287397  1
  In  In30  1  0.36402775  0.48602742  0.83380333  1
  In  In31  1  0.84236941  0.52223985  0.04151852  1
  In  In32  1  0.66605969  0.68619685  0.02198399  1
  In  In33  1  0.82951760  -0.00127054  0.48602121  1
  In  In34  1  0.67679990  0.83540610  0.19045348  1
  In  In35  1  0.51908900  0.14505796  0.67065309  1
  In  In36  1  0.50498379  0.00658486  0.48857221  1
  In  In37  1  0.16145719  0.67239199  0.15703472  1
  In  In38  1  0.51820695  0.15140578  0.31708068  1
  In  In39  1  -0.00766498  0.16698182  0.84817088  1
  In  In40  1  0.65606646  0.32301157  0.33382955  1
  In  In41  1  -0.01289730  0.51070833  0.45686198  1
  In  In42  1  0.32773799  0.68842421  0.67422795  1
  In  In43  1  0.83740837  0.32699418  0.16242122  1
  In  In44  1  0.19626176  0.68056854  0.86769703  1
  In  In45  1  0.32510872  0.15527188  0.16157667  1
  In  In46  1  -0.00212921  0.14898344  0.46612461  1
  In  In47  1  0.00928591  0.32227200  0.01941053  1
  In  In48  1  -0.02319928  0.83332704  0.83884561  1
  In  In49  1  0.32529167  0.15638001  0.85579408  1
  In  In50  1  0.50331875  0.65575661  0.16965361  1
  In  In51  1  -0.00708186  0.70228696  0.65328639  1
  In  In52  1  0.00001504  0.16237078  0.17392011  1
  In  In53  1  0.16870622  0.87572299  0.33802736  1
  In  In54  1  0.34560710  0.49654275  0.48742624  1
  In  In55  1  0.19434369  0.14057183  0.66154079  1
  In  In56  1  0.49525452  0.66371749  0.82852752  1
  In  In57  1  0.16399312  0.15377516  0.32314973  1
  In  In58  1  0.31590732  0.85738080  0.14988713  1
  In  In59  1  0.67396307  0.29152627  0.01264146  1
  In  In60  1  0.49128926  0.49844629  -0.00901914  1
  In  In61  1  0.48653959  0.33179322  0.48211451  1
  In  In62  1  0.34219055  0.00362802  0.64330979  1
  In  In63  1  0.01398860  0.29940553  0.65663204  1
  In  In64  1  -0.00189033  -0.01474283  0.02455105  1
  In  In65  1  0.17402110  0.01806765  0.84412147  1
  In  In66  1  0.65930413  0.31094605  0.67310573  1
  In  In67  1  -0.01872642  0.84065481  0.19165425  1
  In  In68  1  0.47657136  0.49725648  0.67864581  1
  In  In69  1  0.82465228  0.84764765  0.65534757  1
  In  In70  1  0.83422750  0.49179227  0.66377913  1
  In  In71  1  0.51233068  0.00643308  0.16145044  1
  Te  Te72  1  0.09374751  0.06240526  0.11026999  1
  Te  Te73  1  0.06440410  0.05373404  0.37529329  1
  Te  Te74  1  0.07767043  0.08800781  0.74648939  1
  Te  Te75  1  0.06171136  0.42384546  0.11322096  1
  Te  Te76  1  0.08480919  0.41333471  0.39288469  1
  Te  Te77  1  0.08778408  0.41241092  0.74089553  1
  Te  Te78  1  0.07811073  0.77854434  0.08593848  1
  Te  Te79  1  0.07927876  0.75450940  0.38524006  1
  Te  Te80  1  0.09157531  0.74254125  0.76878255  1
  Te  Te81  1  0.43093589  0.09410446  0.07429172  1
  Te  Te82  1  0.40689971  0.07727465  0.39544807  1
  Te  Te83  1  0.41428250  0.07169416  0.75925142  1
  Te  Te84  1  0.39979165  0.41568588  0.08057075  1
  Te  Te85  1  0.41555815  0.41675620  0.37995347  1
  Te  Te86  1  0.44032981  0.38246570  0.76279023  1
  Te  Te87  1  0.41593503  0.75297131  0.09178279  1
  Te  Te88  1  0.42274882  0.76285980  0.41228726  1
  Te  Te89  1  0.43800241  0.77327981  0.73769565  1
  Te  Te90  1  0.70441642  0.13455872  0.05378238  1
  Te  Te91  1  0.73684667  0.09202052  0.41683819  1
  Te  Te92  1  0.71917504  0.06068051  0.75461782  1
  Te  Te93  1  0.74215417  0.41669357  0.08257890  1
  Te  Te94  1  0.76653159  0.41188388  0.42405581  1
  Te  Te95  1  0.73488141  0.42249504  0.76112148  1
  Te  Te96  1  0.77365594  0.73705268  0.11838161  1
  Te  Te97  1  0.72045651  0.82407380  0.40666423  1
  Te  Te98  1  0.72001747  0.79841919  0.77236898  1
  Te  Te99  1  0.10692874  0.25519388  0.22628721  1
  Te  Te100  1  0.10682867  0.22966868  0.55924545  1
  Te  Te101  1  0.09740124  0.21874972  0.94739907  1
  Te  Te102  1  0.08488231  0.59229746  0.25520367  1
  Te  Te103  1  0.06723363  0.58248496  0.57453219  1
  Te  Te104  1  0.08646013  0.59045625  0.93594065  1
  Te  Te105  1  0.08997937  0.94213318  0.22735608  1
  Te  Te106  1  0.05629225  0.92556214  0.58447594  1
  Te  Te107  1  0.08007428  0.91694217  0.91293937  1
  Te  Te108  1  0.42087038  0.24390093  0.24702711  1
  Te  Te109  1  0.42689385  0.23762731  0.58770339  1
  Te  Te110  1  0.42563527  0.23227878  0.93345147  1
  Te  Te111  1  0.39918097  0.57062453  0.23517140  1
  Te  Te112  1  0.41847601  0.60230667  0.58138616  1
  Te  Te113  1  0.39641825  0.60260886  0.92730990  1
  Te  Te114  1  0.40220605  0.93836206  0.24595260  1
  Te  Te115  1  0.43333334  0.91009592  0.57648256  1
  Te  Te116  1  0.42982503  0.93837193  0.92011641  1
  Te  Te117  1  0.74494744  0.23811932  0.24526966  1
  Te  Te118  1  0.74865504  0.22831108  0.58087766  1
  Te  Te119  1  0.73814437  0.19368620  0.90982665  1
  Te  Te120  1  0.74898634  0.62971514  0.23284686  1
  Te  Te121  1  0.75448574  0.58991120  0.57077823  1
  Te  Te122  1  0.76300159  0.59716127  0.92237747  1
  Te  Te123  1  0.77791150  0.89634959  0.28528336  1
  Te  Te124  1  0.73147649  0.94044155  0.58566238  1
  Te  Te125  1  0.73106627  0.89981145  0.94830396  1
  Te  Te126  1  0.22647162  0.26155170  0.11308911  1
  Te  Te127  1  0.25852787  0.25203178  0.40385655  1
  Te  Te128  1  0.25876083  0.24736871  0.74874030  1
  Te  Te129  1  0.26208688  0.58556679  0.09074918  1
  Te  Te130  1  0.23503054  0.58596709  0.42925214  1
  Te  Te131  1  0.24954059  0.58298502  0.75310124  1
  Te  Te132  1  0.25413417  0.93611714  0.04175280  1
  Te  Te133  1  0.25125063  0.91619831  0.45187644  1
  Te  Te134  1  0.25320897  0.91719143  0.75071152  1
  Te  Te135  1  0.57952613  0.22039607  0.10747300  1
  Te  Te136  1  0.58680272  0.22897568  0.43223225  1
  Te  Te137  1  0.58282755  0.23431393  0.77112152  1
  Te  Te138  1  0.59319255  0.56638667  0.08284990  1
  Te  Te139  1  0.56368243  0.56985441  0.39304035  1
  Te  Te140  1  0.59683637  0.58596727  0.74232157  1
  Te  Te141  1  0.63646921  0.92323291  0.07088313  1
  Te  Te142  1  0.58952614  0.92615705  0.38889263  1
  Te  Te143  1  0.58950102  0.88227515  0.74825743  1
  Te  Te144  1  0.90301408  0.22625452  0.06876998  1
  Te  Te145  1  0.93463769  0.25631501  0.37867637  1
  Te  Te146  1  0.90348409  0.26532437  0.75905073  1
  Te  Te147  1  0.93592540  0.60251956  0.12946360  1
  Te  Te148  1  0.90098522  0.61120966  0.38859670  1
  Te  Te149  1  0.92181455  0.58874748  0.75759684  1
  Te  Te150  1  0.88756161  0.93259722  0.11419628  1
  Te  Te151  1  0.90830886  0.91819162  0.38337022  1
  Te  Te152  1  0.91246031  0.93215659  0.74557525  1
  Te  Te153  1  0.25240953  0.05921147  0.24917060  1
  Te  Te154  1  0.22815301  0.04605801  0.54026507  1
  Te  Te155  1  0.25226589  0.07220460  0.96078661  1
  Te  Te156  1  0.30141280  0.41111293  0.27130102  1
  Te  Te157  1  0.28858690  0.39858793  0.59294032  1
  Te  Te158  1  0.24167487  0.41919778  0.90886632  1
  Te  Te159  1  0.25269468  0.76463097  0.25690952  1
  Te  Te160  1  0.26279866  0.77929577  0.56877448  1
  Te  Te161  1  0.25172549  0.78620171  0.95668288  1
  Te  Te162  1  0.61397729  0.05071787  0.26135704  1
  Te  Te163  1  0.60598497  0.05417155  0.59056918  1
  Te  Te164  1  0.61036714  0.08230727  0.93927007  1
  Te  Te165  1  0.59439525  0.42645624  0.24960967  1
  Te  Te166  1  0.58101896  0.41556579  0.58122109  1
  Te  Te167  1  0.57783881  0.38823577  0.92946358  1
  Te  Te168  1  0.60081804  0.72378560  0.26595895  1
  Te  Te169  1  0.59568315  0.78176504  0.57470883  1
  Te  Te170  1  0.57133156  0.75402477  0.92553500  1
  Te  Te171  1  0.88914497  0.06397685  0.20986383  1
  Te  Te172  1  0.91916929  0.08812861  0.57987292  1
  Te  Te173  1  0.91035050  0.06659264  0.92740152  1
  Te  Te174  1  0.91365226  0.42216919  0.24706145  1
  Te  Te175  1  0.93883156  0.40796519  0.57345763  1
  Te  Te176  1  0.91155081  0.41828765  0.93228916  1
  Te  Te177  1  0.89455812  0.72214451  0.23094798  1
  Te  Te178  1  0.88840415  0.75161676  0.55379172  1
  Te  Te179  1  0.88232762  0.77930053  0.94598274  1
