# generated using pymatgen
data_In2Te3
_symmetry_space_group_name_H-M   'P 1'
_cell_length_a   18.79809319
_cell_length_b   18.79425467
_cell_length_c   18.78548733
_cell_angle_alpha   90.03632365
_cell_angle_beta   90.02315291
_cell_angle_gamma   89.91948106
_symmetry_Int_Tables_number   1
_chemical_formula_structural   In2Te3
_chemical_formula_sum   'In72 Te108'
_cell_volume   6636.83193865
_cell_formula_units_Z   36
loop_
 _symmetry_equiv_pos_site_id
 _symmetry_equiv_pos_as_xyz
  1  'x, y, z'
loop_
 _atom_site_type_symbol
 _atom_site_label
 _atom_site_symmetry_multiplicity
 _atom_site_fract_x
 _atom_site_fract_y
 _atom_site_fract_z
 _atom_site_occupancy
  In  In0  1  0.31148573  0.19623381  0.79042627  1
  In  In1  1  0.68831450  0.04596981  0.69521091  1
  In  In2  1  0.36066434  0.66274034  -0.01897180  1
  In  In3  1  0.00584643  0.48835658  0.81170110  1
  In  In4  1  0.17070412  0.67444240  0.52673733  1
  In  In5  1  0.17193957  -0.00811263  0.16393840  1
  In  In6  1  0.50530101  0.66628474  0.15481344  1
  In  In7  1  0.66531998  0.47734281  0.50151699  1
  In  In8  1  -0.00488563  0.50334727  0.49837503  1
  In  In9  1  0.65999169  0.65463179  0.67419967  1
  In  In10  1  0.49512587  0.82457870  0.31021447  1
  In  In11  1  0.16104321  0.49983452  -0.00532200  1
  In  In12  1  -0.02239784  0.68203238  0.01611447  1
  In  In13  1  0.48627125  0.34775232  0.51839393  1
  In  In14  1  0.83996175  0.02178614  0.49900595  1
  In  In15  1  0.00156323  0.15491306  0.80884667  1
  In  In16  1  0.35376001  0.34497778  -0.01491610  1
  In  In17  1  -0.00582582  0.17100723  0.51579545  1
  In  In18  1  -0.02133199  0.17467289  0.18310159  1
  In  In19  1  0.81886400  0.83143264  -0.03468745  1
  In  In20  1  0.00061659  0.34874707  0.33873576  1
  In  In21  1  0.32262975  0.01089013  -0.00976259  1
  In  In22  1  0.47969404  0.63376055  0.53280333  1
  In  In23  1  0.15174032  0.50661195  0.34966436  1
  In  In24  1  0.00689112  0.33053826  0.00677454  1
  In  In25  1  0.84367687  0.65712415  0.49981288  1
  In  In26  1  0.66087292  0.33000777  -0.00980425  1
  In  In27  1  0.15378290  0.00789879  0.52438441  1
  In  In28  1  0.36546193  -0.00467413  0.34254857  1
  In  In29  1  0.31822622  0.81544594  0.50618903  1
  In  In30  1  0.15983051  0.67636933  0.17684841  1
  In  In31  1  0.03217318  0.83643896  0.51211252  1
  In  In32  1  0.84088296  0.82458858  0.35152267  1
  In  In33  1  0.82906888  0.32684546  0.17520409  1
  In  In34  1  0.64669333  0.84626308  0.16232293  1
  In  In35  1  0.51335595  0.18417810  0.67114935  1
  In  In36  1  0.66568488  0.83715524  0.85162692  1
  In  In37  1  0.82711828  0.32256354  0.50725816  1
  In  In38  1  0.51509597  0.16654802  0.33354789  1
  In  In39  1  0.51635391  0.48902554  0.33450306  1
  In  In40  1  0.66967799  0.32846896  0.66331735  1
  In  In41  1  0.31336963  -0.00811136  0.66423161  1
  In  In42  1  0.68249096  0.50773421  0.16037136  1
  In  In43  1  0.83007203  0.02210551  0.15326737  1
  In  In44  1  0.83599066  0.32897280  0.83463975  1
  In  In45  1  0.50539132  0.18082931  -0.00098752  1
  In  In46  1  0.50560943  -0.00100344  0.83900999  1
  In  In47  1  0.49700252  0.01612287  0.48852015  1
  In  In48  1  0.33653979  0.48353877  0.81424573  1
  In  In49  1  0.00243485  0.67019107  0.66188807  1
  In  In50  1  0.65081643  0.66900540  -0.01333207  1
  In  In51  1  0.15293502  0.82727961  0.33341407  1
  In  In52  1  0.34763563  0.48468843  0.15287197  1
  In  In53  1  0.33695527  0.81913026  0.82067903  1
  In  In54  1  0.00420598  -0.00383524  -0.03473032  1
  In  In55  1  0.34780334  0.16480395  0.17356499  1
  In  In56  1  0.67788361  0.01596065  0.33306790  1
  In  In57  1  0.65778764  0.49909408  0.83292038  1
  In  In58  1  0.01583439  0.33257291  0.65683677  1
  In  In59  1  0.16979860  0.17883290  0.36523278  1
  In  In60  1  0.30412043  0.66543163  0.33433073  1
  In  In61  1  0.69012525  0.86033024  0.51944850  1
  In  In62  1  0.84495974  0.67538102  0.84350304  1
  In  In63  1  0.82658877  0.65508421  0.17641385  1
  In  In64  1  -0.00154287  0.83589492  0.16401848  1
  In  In65  1  0.14252171  0.15954800  -0.02539413  1
  In  In66  1  0.33167748  0.31745401  0.34776713  1
  In  In67  1  0.68108009  0.00031032  0.00240784  1
  In  In68  1  0.68050885  0.32243747  0.33212176  1
  In  In69  1  0.18129960  0.33598399  0.14130120  1
  In  In70  1  0.16927484  0.66843040  0.81635457  1
  In  In71  1  0.49219785  0.81562336  0.68334875  1
  Te  Te72  1  0.07054885  0.08301907  0.08616261  1
  Te  Te73  1  0.06997032  0.07845171  0.41682554  1
  Te  Te74  1  0.08490033  0.04384618  0.75322463  1
  Te  Te75  1  0.07144731  0.43344064  0.10026895  1
  Te  Te76  1  0.09675137  0.39915549  0.44626548  1
  Te  Te77  1  0.11277837  0.41831803  0.73395031  1
  Te  Te78  1  0.09479214  0.76544252  0.06941795  1
  Te  Te79  1  0.07695065  0.72558608  0.41654254  1
  Te  Te80  1  0.08053088  0.76386314  0.74540945  1
  Te  Te81  1  0.42847342  0.07525937  0.08060369  1
  Te  Te82  1  0.40121911  0.11745277  0.42727114  1
  Te  Te83  1  0.41628910  0.07848826  0.74434264  1
  Te  Te84  1  0.44532576  0.39672943  0.08825214  1
  Te  Te85  1  0.40442900  0.43201178  0.42060671  1
  Te  Te86  1  0.41054085  0.37889521  0.73573990  1
  Te  Te87  1  0.41225794  0.75453803  0.08409288  1
  Te  Te88  1  0.41803118  0.73988563  0.41894137  1
  Te  Te89  1  0.41109207  0.71164000  0.74867191  1
  Te  Te90  1  0.72899693  0.11059861  0.09097969  1
  Te  Te91  1  0.73864759  0.10652674  0.43189318  1
  Te  Te92  1  0.78544116  0.09100442  0.79736639  1
  Te  Te93  1  0.76262950  0.41570802  0.06959907  1
  Te  Te94  1  0.76981328  0.42211603  0.40529286  1
  Te  Te95  1  0.75802586  0.42486507  0.74400295  1
  Te  Te96  1  0.74895550  0.75396740  0.07716665  1
  Te  Te97  1  0.73756997  0.74536102  0.42858933  1
  Te  Te98  1  0.75550781  0.76188890  0.74163773  1
  Te  Te99  1  0.09922367  0.25461525  0.24467250  1
  Te  Te100  1  0.10543187  0.21817951  0.60897523  1
  Te  Te101  1  0.07723763  0.26494922  0.88836015  1
  Te  Te102  1  0.07379295  0.58128839  0.24902481  1
  Te  Te103  1  0.09381557  0.56411428  0.59805035  1
  Te  Te104  1  0.06875523  0.59218366  0.91519142  1
  Te  Te105  1  0.06860760  0.93122055  0.26035422  1
  Te  Te106  1  0.05907461  0.93997685  0.61820694  1
  Te  Te107  1  0.10067424  0.94225298  0.86716874  1
  Te  Te108  1  0.43346333  0.26650182  0.24659376  1
  Te  Te109  1  0.39950712  0.26276233  0.60846186  1
  Te  Te110  1  0.41806681  0.24689467  0.88876508  1
  Te  Te111  1  0.41374464  0.58581400  0.25849567  1
  Te  Te112  1  0.37128884  0.57159732  0.61052200  1
  Te  Te113  1  0.42212322  0.54230758  0.92314938  1
  Te  Te114  1  0.42004470  0.92095037  0.22790082  1
  Te  Te115  1  0.42242202  0.91510487  0.57767293  1
  Te  Te116  1  0.41450969  0.90883803  0.91804904  1
  Te  Te117  1  0.75166518  0.22340628  0.24855033  1
  Te  Te118  1  0.75168828  0.22730588  0.59096648  1
  Te  Te119  1  0.73671011  0.23699396  0.89665288  1
  Te  Te120  1  0.74288910  0.58146687  0.27318898  1
  Te  Te121  1  0.75275368  0.57039513  0.58804301  1
  Te  Te122  1  0.75616144  0.58005410  0.92236060  1
  Te  Te123  1  0.76112672  0.90680868  0.24691391  1
  Te  Te124  1  0.77445069  0.93735548  0.61918765  1
  Te  Te125  1  0.77110233  0.95042938  0.87886860  1
  Te  Te126  1  0.26048121  0.23084408  0.06403178  1
  Te  Te127  1  0.23901201  0.27421668  0.45409416  1
  Te  Te128  1  0.20082144  0.26974273  0.72446989  1
  Te  Te129  1  0.25163185  0.58403219  0.08730162  1
  Te  Te130  1  0.25272691  0.57343161  0.44331701  1
  Te  Te131  1  0.25098995  0.57715196  0.72971811  1
  Te  Te132  1  0.23529105  0.91278225  0.05838752  1
  Te  Te133  1  0.24734451  0.92082508  0.41847448  1
  Te  Te134  1  0.23477037  0.91286883  0.76279437  1
  Te  Te135  1  0.59874861  0.24311567  0.09537729  1
  Te  Te136  1  0.58244736  0.26240981  0.43373233  1
  Te  Te137  1  0.60118521  0.25039474  0.77061562  1
  Te  Te138  1  0.57441142  0.56373679  0.06652841  1
  Te  Te139  1  0.58351953  0.58620943  0.42994688  1
  Te  Te140  1  0.56176990  0.59245021  0.76430511  1
  Te  Te141  1  0.57657060  0.90641935  0.04857814  1
  Te  Te142  1  0.58344864  0.91223174  0.41286089  1
  Te  Te143  1  0.59115758  0.92308930  0.73366652  1
  Te  Te144  1  0.90426988  0.23715951  0.06658977  1
  Te  Te145  1  0.91429614  0.24464937  0.40784041  1
  Te  Te146  1  0.91048776  0.24807588  0.72779127  1
  Te  Te147  1  0.90416448  0.57303182  0.08003784  1
  Te  Te148  1  0.91898234  0.58038044  0.39880748  1
  Te  Te149  1  0.90667632  0.58053279  0.74029453  1
  Te  Te150  1  0.90838025  0.91597117  0.06877057  1
  Te  Te151  1  0.93029943  0.91826881  0.42869093  1
  Te  Te152  1  0.87673497  0.85051232  0.72766790  1
  Te  Te153  1  0.24955944  0.08559605  0.26035582  1
  Te  Te154  1  0.25367330  0.09950346  0.58280675  1
  Te  Te155  1  0.24646597  0.09331687  0.88600503  1
  Te  Te156  1  0.24838893  0.42020190  0.25404325  1
  Te  Te157  1  0.32234036  0.42369436  0.62529346  1
  Te  Te158  1  0.23676512  0.40297650  0.90757264  1
  Te  Te159  1  0.26059242  0.77613532  0.23816386  1
  Te  Te160  1  0.23508232  0.77098184  0.61891922  1
  Te  Te161  1  0.24674092  0.74578318  0.92225164  1
  Te  Te162  1  0.56938521  0.06204035  0.24416426  1
  Te  Te163  1  0.59368102  0.08987007  0.57950424  1
  Te  Te164  1  0.59667116  0.09391835  0.91039672  1
  Te  Te165  1  0.59469532  0.40578436  0.23668543  1
  Te  Te166  1  0.56883900  0.43543952  0.61152792  1
  Te  Te167  1  0.56761185  0.40281412  0.89964639  1
  Te  Te168  1  0.60265039  0.73134802  0.25335880  1
  Te  Te169  1  0.58472044  0.75432605  0.57606592  1
  Te  Te170  1  0.56008923  0.74590805  0.89956755  1
  Te  Te171  1  0.90837514  0.07598557  0.26580571  1
  Te  Te172  1  0.92350621  0.07848238  0.60791475  1
  Te  Te173  1  0.90902707  0.09951282  0.91532839  1
  Te  Te174  1  0.91714093  0.42382732  0.24454851  1
  Te  Te175  1  0.90787051  0.42045346  0.59157184  1
  Te  Te176  1  0.92021039  0.42397432  0.92012032  1
  Te  Te177  1  0.92687938  0.74020689  0.25735799  1
  Te  Te178  1  0.90920315  0.76832791  0.58343268  1
  Te  Te179  1  0.94568819  0.77772063  0.89884762  1
