# generated using pymatgen
data_In2Te3
_symmetry_space_group_name_H-M   'P 1'
_cell_length_a   18.84455642
_cell_length_b   18.83906016
_cell_length_c   18.84302650
_cell_angle_alpha   89.95264289
_cell_angle_beta   89.89822331
_cell_angle_gamma   89.89867683
_symmetry_Int_Tables_number   1
_chemical_formula_structural   In2Te3
_chemical_formula_sum   'In72 Te108'
_cell_volume   6689.50987786
_cell_formula_units_Z   36
loop_
 _symmetry_equiv_pos_site_id
 _symmetry_equiv_pos_as_xyz
  1  'x, y, z'
loop_
 _atom_site_type_symbol
 _atom_site_label
 _atom_site_symmetry_multiplicity
 _atom_site_fract_x
 _atom_site_fract_y
 _atom_site_fract_z
 _atom_site_occupancy
  In  In0  1  0.68421862  0.33477617  0.03677118  1
  In  In1  1  0.51012252  0.18645246  -0.00509448  1
  In  In2  1  0.18376988  0.64653147  0.47758349  1
  In  In3  1  0.83196940  0.80224797  0.34102945  1
  In  In4  1  0.67180113  0.86049242  0.86993945  1
  In  In5  1  0.46884945  0.66050988  0.16943313  1
  In  In6  1  0.48980209  0.02439697  0.80703204  1
  In  In7  1  -0.00494531  0.48595092  0.17026686  1
  In  In8  1  0.31190951  0.84214924  0.83215877  1
  In  In9  1  0.01763538  0.83423320  0.47433650  1
  In  In10  1  0.14430286  0.66695537  0.82249101  1
  In  In11  1  0.50475705  0.66538100  0.47024745  1
  In  In12  1  0.83389529  0.02270210  0.16960041  1
  In  In13  1  0.16324469  0.84301990  0.67341000  1
  In  In14  1  0.18160363  0.01992201  0.50630997  1
  In  In15  1  0.66206515  0.82311538  0.15428395  1
  In  In16  1  0.00465752  0.69929410  0.66469255  1
  In  In17  1  0.15813798  -0.00387912  0.83513555  1
  In  In18  1  -0.00514507  0.33954315  0.32791028  1
  In  In19  1  0.83369678  0.34689164  0.50271486  1
  In  In20  1  0.67732742  0.49869742  0.82449533  1
  In  In21  1  0.00369310  0.15464389  0.83842349  1
  In  In22  1  -0.01320013  0.30884878  0.02351686  1
  In  In23  1  0.00520088  0.33706430  0.65961491  1
  In  In24  1  0.19273078  0.18778460  0.69567137  1
  In  In25  1  0.33456877  0.46977597  0.49057597  1
  In  In26  1  0.68188969  0.31764386  0.29513726  1
  In  In27  1  0.02507128  0.85313350  0.19427736  1
  In  In28  1  0.00006552  0.64405926  0.34560436  1
  In  In29  1  0.64381166  -0.00870393  0.32814730  1
  In  In30  1  0.84539424  0.18465870  0.66190025  1
  In  In31  1  0.67480825  0.66114932  0.00474868  1
  In  In32  1  0.69103446  0.84335873  0.47110224  1
  In  In33  1  0.65685834  0.51134789  0.48627235  1
  In  In34  1  0.15532018  0.16961896  0.02824390  1
  In  In35  1  0.32983444  0.48067165  0.18821094  1
  In  In36  1  0.32094612  -0.01142152  0.02038277  1
  In  In37  1  0.69153464  0.17150441  0.85219543  1
  In  In38  1  0.16063538  0.51627765  0.64683174  1
  In  In39  1  0.17609101  0.17998783  0.32925141  1
  In  In40  1  0.84279757  0.63530065  0.49591891  1
  In  In41  1  0.48080977  0.84492221  0.64981899  1
  In  In42  1  0.64287388  0.15655990  0.48551004  1
  In  In43  1  0.68643915  0.68011247  0.66151947  1
  In  In44  1  0.19477896  0.66056678  0.17816423  1
  In  In45  1  0.34618194  0.65050513  0.00816582  1
  In  In46  1  0.00618693  0.64163647  0.00707841  1
  In  In47  1  0.34645931  0.67557634  0.65967261  1
  In  In48  1  0.46987992  0.20367207  0.64604508  1
  In  In49  1  0.66592326  0.03142053  0.66920192  1
  In  In50  1  0.32318257  0.47830544  0.85469332  1
  In  In51  1  0.15622049  0.85413460  0.00329268  1
  In  In52  1  0.83113051  0.66296225  0.83921143  1
  In  In53  1  0.47725673  0.18589056  0.30792182  1
  In  In54  1  0.49178505  0.32938382  0.83310814  1
  In  In55  1  -0.00625077  0.48583235  0.84706061  1
  In  In56  1  0.17460612  0.34169948  0.17412334  1
  In  In57  1  0.67360600  0.50734218  0.18728318  1
  In  In58  1  0.49403170  0.83116908  0.33670694  1
  In  In59  1  0.48373076  0.80946894  0.00515336  1
  In  In60  1  0.83240974  0.00400946  0.49070792  1
  In  In61  1  0.17680725  0.32470930  0.46110109  1
  In  In62  1  0.00559993  0.15211676  0.48913504  1
  In  In63  1  0.35018517  0.85034840  0.48608333  1
  In  In64  1  0.81342755  0.82719238  0.01698394  1
  In  In65  1  0.70671364  -0.00475067  0.00573184  1
  In  In66  1  -0.00522880  0.04026287  0.02516462  1
  In  In67  1  0.51443469  0.49128090  0.67527444  1
  In  In68  1  0.31881665  0.02433433  0.33793260  1
  In  In69  1  0.66330520  0.35042577  0.67994428  1
  In  In70  1  0.49985831  0.01492524  0.17631462  1
  In  In71  1  0.47539788  0.47347602  0.00933486  1
  Te  Te72  1  0.10131181  0.06598735  0.12363914  1
  Te  Te73  1  0.08152689  0.06633556  0.38628961  1
  Te  Te74  1  0.08602245  0.08270588  0.73262090  1
  Te  Te75  1  0.08774182  0.41414180  0.07304766  1
  Te  Te76  1  0.07129526  0.41965973  0.42528775  1
  Te  Te77  1  0.09501553  0.42273105  0.74866181  1
  Te  Te78  1  0.09132082  0.74513078  0.09158332  1
  Te  Te79  1  0.10776092  0.74572861  0.38885660  1
  Te  Te80  1  0.06878165  0.79280031  0.78385005  1
  Te  Te81  1  0.41626919  0.09339973  0.07774613  1
  Te  Te82  1  0.43854833  0.07990327  0.40371008  1
  Te  Te83  1  0.39657757  0.11988930  0.74541768  1
  Te  Te84  1  0.38124680  0.38395823  0.08229107  1
  Te  Te85  1  0.40412423  0.36655351  0.40935275  1
  Te  Te86  1  0.40398637  0.40964145  0.73753791  1
  Te  Te87  1  0.37540091  0.77013942  0.10505040  1
  Te  Te88  1  0.38595616  0.72954648  0.39790761  1
  Te  Te89  1  0.42077098  0.75845465  0.76178012  1
  Te  Te90  1  0.74070934  0.10917457  0.09090957  1
  Te  Te91  1  0.74514333  0.08617529  0.39748762  1
  Te  Te92  1  0.77620903  0.08480250  0.75776143  1
  Te  Te93  1  0.77568263  0.42211004  0.11596664  1
  Te  Te94  1  0.74021517  0.41425407  0.40326393  1
  Te  Te95  1  0.77358905  0.41664999  0.74847491  1
  Te  Te96  1  0.76451642  0.71384443  0.11888733  1
  Te  Te97  1  0.73064805  0.71038339  0.41217965  1
  Te  Te98  1  0.74782379  0.76894505  0.76728994  1
  Te  Te99  1  0.07326636  0.24656469  0.23671760  1
  Te  Te100  1  0.09238429  0.24274608  0.57500665  1
  Te  Te101  1  0.08695931  0.25220313  0.91932775  1
  Te  Te102  1  0.09445293  0.57113470  0.24963212  1
  Te  Te103  1  0.06605899  0.59824252  0.56163007  1
  Te  Te104  1  0.10609267  0.56150719  0.92320046  1
  Te  Te105  1  0.09125253  0.95326845  0.27590158  1
  Te  Te106  1  0.08022214  0.92788921  0.57781396  1
  Te  Te107  1  0.05267508  0.93467860  0.92605548  1
  Te  Te108  1  0.44039944  0.29392299  0.21012260  1
  Te  Te109  1  0.40096420  0.27590003  0.53633842  1
  Te  Te110  1  0.39915383  0.24175055  0.91093512  1
  Te  Te111  1  0.43689992  0.55059554  0.26426234  1
  Te  Te112  1  0.42225593  0.57563701  0.57380967  1
  Te  Te113  1  0.42859054  0.57678090  0.90327521  1
  Te  Te114  1  0.40804453  0.92387934  0.25381590  1
  Te  Te115  1  0.39249806  0.94538434  0.58974186  1
  Te  Te116  1  0.41886098  0.92028308  0.91136655  1
  Te  Te117  1  0.78950560  0.23996190  0.22215701  1
  Te  Te118  1  0.73357727  0.24361672  0.57543307  1
  Te  Te119  1  0.76049137  0.28183540  0.92111468  1
  Te  Te120  1  0.74254947  0.61841574  0.25153719  1
  Te  Te121  1  0.75224069  0.56106685  0.59550484  1
  Te  Te122  1  0.76493985  0.56147440  0.93285821  1
  Te  Te123  1  0.74751287  0.90665149  0.24972860  1
  Te  Te124  1  0.74382125  0.92437626  0.58742707  1
  Te  Te125  1  0.80168693  0.93272459  0.90463280  1
  Te  Te126  1  0.26176290  0.24055585  0.10533399  1
  Te  Te127  1  0.29203876  0.23799424  0.41314328  1
  Te  Te128  1  0.26286950  0.27360067  0.79338314  1
  Te  Te129  1  0.25077804  0.55838593  0.07911032  1
  Te  Te130  1  0.25331363  0.54808702  0.39128057  1
  Te  Te131  1  0.25931205  0.58697585  0.74907269  1
  Te  Te132  1  0.22403696  0.92619790  0.11335843  1
  Te  Te133  1  0.23731442  0.91423158  0.40883520  1
  Te  Te134  1  0.26175372  0.94403921  0.73211691  1
  Te  Te135  1  0.56796128  0.26957614  0.10729155  1
  Te  Te136  1  0.58072356  0.26145651  0.39707312  1
  Te  Te137  1  0.58999572  0.23592168  0.75052356  1
  Te  Te138  1  0.56869456  0.57731312  0.07768177  1
  Te  Te139  1  0.55138289  0.55043032  0.38787037  1
  Te  Te140  1  0.58908065  0.59913085  0.75085042  1
  Te  Te141  1  0.57366835  0.91747382  0.07431056  1
  Te  Te142  1  0.56498632  0.92115385  0.43870360  1
  Te  Te143  1  0.58662830  0.91823687  0.74845578  1
  Te  Te144  1  0.91203338  0.22430226  0.12488945  1
  Te  Te145  1  0.90900815  0.24432494  0.41787950  1
  Te  Te146  1  0.92215593  0.26338898  0.76461498  1
  Te  Te147  1  0.90627845  0.57328799  0.08869146  1
  Te  Te148  1  0.90083471  0.54642984  0.39403587  1
  Te  Te149  1  0.93361596  0.59177978  0.75284135  1
  Te  Te150  1  0.91874691  0.91000804  0.09778113  1
  Te  Te151  1  0.91609137  0.91860653  0.39556778  1
  Te  Te152  1  0.92991782  0.82359545  0.70192936  1
  Te  Te153  1  0.26960588  0.11618493  0.23097519  1
  Te  Te154  1  0.25884491  0.12225497  0.57924177  1
  Te  Te155  1  0.23928330  0.07989679  0.92906199  1
  Te  Te156  1  0.23962706  0.41340851  0.28814390  1
  Te  Te157  1  0.23709920  0.40146766  0.58530991  1
  Te  Te158  1  0.25528417  0.36554688  0.91793244  1
  Te  Te159  1  0.29592867  0.73583111  0.25081766  1
  Te  Te160  1  0.24440687  0.75418588  0.57834566  1
  Te  Te161  1  0.24436120  0.74296557  0.92604944  1
  Te  Te162  1  0.59828536  0.10705913  0.24197327  1
  Te  Te163  1  0.55230990  0.08598805  0.58495427  1
  Te  Te164  1  0.59013300  0.07468668  0.91524865  1
  Te  Te165  1  0.57408801  0.39932181  0.22500862  1
  Te  Te166  1  0.57774933  0.40551553  0.56731278  1
  Te  Te167  1  0.58586233  0.41226682  0.92032693  1
  Te  Te168  1  0.57575529  0.73896879  0.24760991  1
  Te  Te169  1  0.57826346  0.74889917  0.57615222  1
  Te  Te170  1  0.58366787  0.74218588  0.91269850  1
  Te  Te171  1  0.91106958  0.12300183  0.24569810  1
  Te  Te172  1  0.92300787  0.07300730  0.59193094  1
  Te  Te173  1  0.90295650  0.11680135  0.93984706  1
  Te  Te174  1  0.89009155  0.40950945  0.24525729  1
  Te  Te175  1  0.91854080  0.43139435  0.58684229  1
  Te  Te176  1  0.90984229  0.39982138  0.93371263  1
  Te  Te177  1  0.93435879  0.74150078  0.24644823  1
  Te  Te178  1  0.90087569  0.76337938  0.55855739  1
  Te  Te179  1  0.91484370  0.74401388  0.93683646  1
