# generated using pymatgen
data_In2Te3
_symmetry_space_group_name_H-M   'P 1'
_cell_length_a   18.95490343
_cell_length_b   18.97930355
_cell_length_c   18.96281551
_cell_angle_alpha   90.11935828
_cell_angle_beta   90.20060114
_cell_angle_gamma   89.85492350
_symmetry_Int_Tables_number   1
_chemical_formula_structural   In2Te3
_chemical_formula_sum   'In72 Te108'
_cell_volume   6821.81094426
_cell_formula_units_Z   36
loop_
 _symmetry_equiv_pos_site_id
 _symmetry_equiv_pos_as_xyz
  1  'x, y, z'
loop_
 _atom_site_type_symbol
 _atom_site_label
 _atom_site_symmetry_multiplicity
 _atom_site_fract_x
 _atom_site_fract_y
 _atom_site_fract_z
 _atom_site_occupancy
  In  In0  1  -0.00337728  0.51957528  0.83572798  1
  In  In1  1  0.49966948  0.32599184  0.49058044  1
  In  In2  1  0.32220970  0.00664234  0.64886973  1
  In  In3  1  0.33112769  0.17950530  0.51665313  1
  In  In4  1  0.66642085  0.82233141  0.83954963  1
  In  In5  1  0.15050200  0.32814760  0.81013537  1
  In  In6  1  0.01478146  -0.01836266  -0.00240711  1
  In  In7  1  0.50224606  0.81670980  0.32293977  1
  In  In8  1  0.79668919  0.15265814  0.36424347  1
  In  In9  1  0.18107099  0.34886047  0.16353820  1
  In  In10  1  0.48534325  0.65717525  0.49482305  1
  In  In11  1  0.81843455  0.49957396  0.00396848  1
  In  In12  1  0.16911656  0.50519395  0.00626225  1
  In  In13  1  0.83336252  0.18430614  -0.03188322  1
  In  In14  1  0.29687927  0.48173482  0.54141754  1
  In  In15  1  0.00442831  -0.00272548  0.33472006  1
  In  In16  1  -0.00210990  0.65474901  0.32187385  1
  In  In17  1  0.28548036  0.50321453  0.79684172  1
  In  In18  1  0.50703991  0.33169692  0.16096359  1
  In  In19  1  0.52709660  0.00278445  0.53118731  1
  In  In20  1  0.14976520  0.47102482  0.36703009  1
  In  In21  1  0.66551048  0.65919637  0.00885622  1
  In  In22  1  0.51077381  0.50109796  0.32855410  1
  In  In23  1  0.85540716  0.83946678  0.65164087  1
  In  In24  1  0.36855706  0.34718350  0.32379947  1
  In  In25  1  0.53407727  0.17317680  0.67857993  1
  In  In26  1  0.83310442  0.66311661  0.16183189  1
  In  In27  1  0.50753976  0.14102260  -0.00564536  1
  In  In28  1  -0.00187933  0.84561408  0.49056630  1
  In  In29  1  0.34507687  0.81231170  0.16160933  1
  In  In30  1  0.86337719  0.50484275  0.65275882  1
  In  In31  1  0.34889006  -0.02387396  0.01683582  1
  In  In32  1  0.49807524  0.51589396  0.00374049  1
  In  In33  1  0.66219928  0.83778534  0.15980393  1
  In  In34  1  0.52382526  0.16116234  0.33037038  1
  In  In35  1  -0.00863209  0.01175516  0.67025696  1
  In  In36  1  0.82953379  0.35600780  0.16686124  1
  In  In37  1  -0.00792894  0.50237587  0.16639263  1
  In  In38  1  0.66622083  -0.00969082  0.00647141  1
  In  In39  1  0.66826308  0.65059364  0.66031689  1
  In  In40  1  0.66255792  0.47792418  0.85266196  1
  In  In41  1  0.00962122  0.19162223  0.15973976  1
  In  In42  1  0.83676737  0.34007543  0.79905063  1
  In  In43  1  0.00596110  0.18615589  0.52975191  1
  In  In44  1  0.49146900  -0.00941550  0.85747766  1
  In  In45  1  0.16589266  0.82944636  0.68015261  1
  In  In46  1  0.33969859  -0.00191201  0.35053552  1
  In  In47  1  0.18670587  -0.00364454  0.18183161  1
  In  In48  1  0.14880482  -0.00565030  0.82044248  1
  In  In49  1  0.47636424  0.82457353  0.68939770  1
  In  In50  1  0.83120215  0.83464748  0.33422011  1
  In  In51  1  0.15464125  0.65152979  0.56826979  1
  In  In52  1  0.33526269  0.64114332  0.34023888  1
  In  In53  1  0.35079304  0.32419356  -0.00534983  1
  In  In54  1  0.68075197  0.82881216  0.49492734  1
  In  In55  1  0.15341296  0.68231421  0.13840049  1
  In  In56  1  0.17344273  0.85376998  0.33721198  1
  In  In57  1  0.84042808  -0.00397856  0.16966772  1
  In  In58  1  0.47815442  0.49048019  0.66280893  1
  In  In59  1  0.32177212  0.15428883  0.82401293  1
  In  In60  1  0.16134559  0.18494176  -0.01755325  1
  In  In61  1  0.65840089  0.16732247  0.16898886  1
  In  In62  1  0.47960205  0.66317878  0.84473678  1
  In  In63  1  0.83969149  0.51313419  0.34369794  1
  In  In64  1  0.31264193  0.68591651  -0.00873766  1
  In  In65  1  0.66197747  0.03178793  0.66861766  1
  In  In66  1  0.16117592  0.18456742  0.35750359  1
  In  In67  1  0.82603533  -0.00626618  0.80978302  1
  In  In68  1  -0.02435199  0.18147288  0.80287744  1
  In  In69  1  0.81028552  0.30619684  0.52045234  1
  In  In70  1  0.86607509  0.69821603  0.85380581  1
  In  In71  1  0.66396838  0.49490688  0.50038421  1
  Te  Te72  1  0.09399188  0.08626946  0.08846545  1
  Te  Te73  1  0.07751995  0.08543975  0.43294592  1
  Te  Te74  1  0.09097172  0.10679946  0.73785741  1
  Te  Te75  1  0.07353740  0.41030415  0.07569683  1
  Te  Te76  1  0.06744388  0.40139922  0.46596148  1
  Te  Te77  1  0.06789291  0.42928387  0.73628920  1
  Te  Te78  1  0.03846891  0.73233246  0.06527343  1
  Te  Te79  1  0.08264376  0.75345403  0.40456801  1
  Te  Te80  1  0.11123070  0.72489887  0.77023319  1
  Te  Te81  1  0.41313065  0.08425668  0.08906889  1
  Te  Te82  1  0.43241382  0.08990994  0.43813304  1
  Te  Te83  1  0.43135721  0.07632820  0.73810917  1
  Te  Te84  1  0.40793566  0.42355975  0.09276035  1
  Te  Te85  1  0.41390157  0.44381248  0.44001358  1
  Te  Te86  1  0.39726365  0.41532794  0.75792576  1
  Te  Te87  1  0.42471188  0.72115466  0.07926884  1
  Te  Te88  1  0.39939699  0.75523534  0.41724712  1
  Te  Te89  1  0.38621792  0.73193922  0.75522099  1
  Te  Te90  1  0.76498312  0.09394914  0.07214283  1
  Te  Te91  1  0.70412483  0.07024148  0.43671685  1
  Te  Te92  1  0.78072725  0.10631672  0.72338073  1
  Te  Te93  1  0.72990800  0.40422622  0.06944093  1
  Te  Te94  1  0.75679640  0.40841601  0.41979641  1
  Te  Te95  1  0.74729233  0.44388614  0.73212107  1
  Te  Te96  1  0.75920814  0.76014509  0.07060102  1
  Te  Te97  1  0.76462855  0.73688091  0.41939035  1
  Te  Te98  1  0.75359203  0.75201047  0.73732947  1
  Te  Te99  1  0.08754868  0.27487293  0.25941759  1
  Te  Te100  1  0.11677406  0.28534987  0.55646509  1
  Te  Te101  1  0.05636102  0.26171542  0.90940702  1
  Te  Te102  1  0.10209415  0.57141206  0.24575673  1
  Te  Te103  1  0.09102715  0.52893271  0.61781444  1
  Te  Te104  1  0.09818924  0.59928780  0.91424952  1
  Te  Te105  1  0.07495412  0.90878464  0.23425556  1
  Te  Te106  1  0.08299126  0.92290162  0.58987310  1
  Te  Te107  1  0.10531030  0.89549679  0.91952852  1
  Te  Te108  1  0.42221220  0.23448707  0.24049949  1
  Te  Te109  1  0.42897928  0.25650629  0.60424604  1
  Te  Te110  1  0.42657750  0.23276329  0.89994094  1
  Te  Te111  1  0.43333930  0.59264350  0.24468868  1
  Te  Te112  1  0.39141059  0.59370788  0.59432846  1
  Te  Te113  1  0.37923679  0.56575151  0.90664915  1
  Te  Te114  1  0.41486239  0.91695995  0.24736054  1
  Te  Te115  1  0.41718375  0.91023050  0.57862756  1
  Te  Te116  1  0.40178641  0.88994612  0.91117860  1
  Te  Te117  1  0.76182910  0.24309211  0.24890517  1
  Te  Te118  1  0.74199460  0.24926219  0.63998702  1
  Te  Te119  1  0.74110923  0.26299600  0.88450253  1
  Te  Te120  1  0.75522494  0.56370156  0.23416873  1
  Te  Te121  1  0.76649171  0.58718103  0.56584684  1
  Te  Te122  1  0.75519275  0.59903960  0.89537996  1
  Te  Te123  1  0.73939830  0.92772208  0.25723046  1
  Te  Te124  1  0.74586670  0.92500017  0.59226721  1
  Te  Te125  1  0.76164148  0.90989390  0.91787976  1
  Te  Te126  1  0.25712720  0.24336185  0.08492402  1
  Te  Te127  1  0.27015205  0.27388760  0.41412809  1
  Te  Te128  1  0.25365604  0.25146172  0.73414840  1
  Te  Te129  1  0.25963003  0.58490017  0.09627160  1
  Te  Te130  1  0.22854827  0.58103512  0.43870186  1
  Te  Te131  1  0.19891592  0.59488557  0.71139503  1
  Te  Te132  1  0.24101462  0.89345771  0.08458987  1
  Te  Te133  1  0.23928675  0.93789361  0.43653583  1
  Te  Te134  1  0.26451698  0.91940225  0.75741859  1
  Te  Te135  1  0.58955920  0.25018255  0.06276637  1
  Te  Te136  1  0.59490406  0.27965601  0.38664694  1
  Te  Te137  1  0.63134940  0.26040421  0.74707590  1
  Te  Te138  1  0.60834566  0.55516637  0.09383749  1
  Te  Te139  1  0.59619197  0.59736297  0.41145025  1
  Te  Te140  1  0.57387070  0.57979514  0.75583984  1
  Te  Te141  1  0.56615332  0.91578086  0.07925845  1
  Te  Te142  1  0.57687139  0.91068347  0.42110937  1
  Te  Te143  1  0.58624062  0.91558419  0.74906682  1
  Te  Te144  1  0.91109582  0.26547176  0.07281085  1
  Te  Te145  1  0.90717852  0.23677211  0.42097175  1
  Te  Te146  1  0.94156240  0.28816752  0.70740181  1
  Te  Te147  1  0.92605467  0.59027311  0.06210520  1
  Te  Te148  1  0.94455216  0.57177068  0.42839174  1
  Te  Te149  1  0.92572808  0.61584291  0.74167704  1
  Te  Te150  1  0.91714315  0.90938287  0.07995020  1
  Te  Te151  1  0.89742325  0.93831414  0.42354434  1
  Te  Te152  1  0.93761615  0.90298188  0.76259957  1
  Te  Te153  1  0.25408506  0.09736762  0.27012841  1
  Te  Te154  1  0.22977949  0.09694737  0.58105179  1
  Te  Te155  1  0.24580255  0.07215909  0.92503584  1
  Te  Te156  1  0.25884821  0.43259369  0.26322771  1
  Te  Te157  1  0.23745227  0.36808862  0.61254822  1
  Te  Te158  1  0.23906757  0.39926981  0.91843981  1
  Te  Te159  1  0.24526251  0.74386579  0.25576042  1
  Te  Te160  1  0.24128380  0.76748608  0.57015936  1
  Te  Te161  1  0.20481720  0.71867300  0.89584413  1
  Te  Te162  1  0.58575097  0.06403748  0.24039559  1
  Te  Te163  1  0.61394241  0.12884754  0.54741697  1
  Te  Te164  1  0.60828643  0.07894208  0.89695095  1
  Te  Te165  1  0.59256192  0.39403353  0.26621569  1
  Te  Te166  1  0.58325081  0.40624329  0.59125977  1
  Te  Te167  1  0.54898608  0.41187251  0.91292665  1
  Te  Te168  1  0.60000256  0.73955754  0.24822471  1
  Te  Te169  1  0.57433540  0.74681137  0.58761177  1
  Te  Te170  1  0.57057893  0.75040810  0.93012341  1
  Te  Te171  1  0.92821135  0.09603456  0.24607514  1
  Te  Te172  1  0.90549448  0.09280909  0.58303315  1
  Te  Te173  1  0.92507809  0.07581230  0.90671222  1
  Te  Te174  1  0.92841122  0.41177880  0.26779909  1
  Te  Te175  1  0.92021607  0.40011757  0.56320983  1
  Te  Te176  1  0.90729222  0.42216626  0.90892327  1
  Te  Te177  1  0.92219270  0.75779400  0.24088295  1
  Te  Te178  1  0.93385740  0.74449661  0.57398842  1
  Te  Te179  1  0.95419919  0.77558033  0.94104755  1
