# generated using pymatgen
data_In2Te3
_symmetry_space_group_name_H-M   'P 1'
_cell_length_a   19.04089488
_cell_length_b   19.00716227
_cell_length_c   18.99274561
_cell_angle_alpha   90.03568996
_cell_angle_beta   89.97770183
_cell_angle_gamma   90.00452640
_symmetry_Int_Tables_number   1
_chemical_formula_structural   In2Te3
_chemical_formula_sum   'In72 Te108'
_cell_volume   6873.72685703
_cell_formula_units_Z   36
loop_
 _symmetry_equiv_pos_site_id
 _symmetry_equiv_pos_as_xyz
  1  'x, y, z'
loop_
 _atom_site_type_symbol
 _atom_site_label
 _atom_site_symmetry_multiplicity
 _atom_site_fract_x
 _atom_site_fract_y
 _atom_site_fract_z
 _atom_site_occupancy
  In  In0  1  0.33493706  0.64945860  -0.00026583  1
  In  In1  1  0.49164934  0.51256195  0.33611906  1
  In  In2  1  -0.02535646  0.15308314  0.50050171  1
  In  In3  1  0.63914856  0.48304412  0.85404587  1
  In  In4  1  0.30709818  0.14485609  0.17416622  1
  In  In5  1  0.32184148  0.36445688  0.29785601  1
  In  In6  1  0.51107183  0.50823349  0.68522708  1
  In  In7  1  0.68092929  0.02868900  0.35773952  1
  In  In8  1  0.83649697  0.84867486  0.32748073  1
  In  In9  1  0.84100963  0.47127593  0.02564275  1
  In  In10  1  0.29078690  0.85650531  0.49036987  1
  In  In11  1  0.33721313  0.67396422  0.34621864  1
  In  In12  1  0.00266156  0.50058088  0.18119122  1
  In  In13  1  0.64799021  0.80065980  0.81355288  1
  In  In14  1  0.51448121  -0.01208151  0.17687764  1
  In  In15  1  0.48841561  0.83085635  0.65630448  1
  In  In16  1  0.13950254  -0.00671192  0.47731563  1
  In  In17  1  0.50654261  -0.02257073  0.83275441  1
  In  In18  1  0.68116310  0.50580845  0.17147634  1
  In  In19  1  -0.00349780  0.31275025  0.32879993  1
  In  In20  1  0.18625175  0.34430702  0.13914488  1
  In  In21  1  0.16221828  0.82034159  0.66013875  1
  In  In22  1  0.14692214  0.31574100  0.47735400  1
  In  In23  1  0.66914630  0.17510664  0.80998316  1
  In  In24  1  0.20577109  0.62778038  0.85826419  1
  In  In25  1  0.84066752  0.66622382  0.51467878  1
  In  In26  1  0.33794471  0.17476182  0.45370235  1
  In  In27  1  0.83202803  0.65024088  0.84530063  1
  In  In28  1  0.82888325  0.50887326  0.67272310  1
  In  In29  1  0.17112450  -0.02700318  0.83387217  1
  In  In30  1  0.51627002  0.03126169  0.50388596  1
  In  In31  1  0.30888949  0.01694815  0.65610642  1
  In  In32  1  0.51729723  0.17530279  0.66138042  1
  In  In33  1  -0.00003404  0.65332393  0.65746145  1
  In  In34  1  0.18045783  0.80792251  0.01777859  1
  In  In35  1  0.83832554  0.00200574  0.14414328  1
  In  In36  1  0.82695729  0.17034927  -0.01751455  1
  In  In37  1  0.18604122  0.44549411  0.85647135  1
  In  In38  1  0.34945178  0.35275778  0.67840344  1
  In  In39  1  0.49615937  0.17905061  0.31158514  1
  In  In40  1  0.01041240  0.80898692  0.84547021  1
  In  In41  1  0.36906301  0.17603629  0.85246900  1
  In  In42  1  0.15312041  0.83077254  0.30374122  1
  In  In43  1  0.32529041  0.50363929  0.52898200  1
  In  In44  1  0.82466802  0.32416288  0.83805568  1
  In  In45  1  0.15699601  0.15667561  -0.00006506  1
  In  In46  1  0.68625230  0.85281119  0.51534859  1
  In  In47  1  0.49987133  0.34536253  0.51839355  1
  In  In48  1  0.33224221  0.64796276  0.68798049  1
  In  In49  1  0.34778499  0.81943970  0.15401262  1
  In  In50  1  0.00943044  0.65296633  -0.00560002  1
  In  In51  1  0.51490142  0.39525806  0.10466744  1
  In  In52  1  0.66090196  -0.00356374  -0.00133121  1
  In  In53  1  0.66878621  0.32622742  0.34208951  1
  In  In54  1  0.66700804  0.67214973  0.01598860  1
  In  In55  1  0.51426164  0.68825022  0.47435055  1
  In  In56  1  0.00928667  0.16649621  0.81155533  1
  In  In57  1  -0.00449927  0.30987034  -0.00527817  1
  In  In58  1  -0.00092232  0.16240001  0.16006983  1
  In  In59  1  0.17920837  0.18619703  0.66781049  1
  In  In60  1  -0.01894713  0.69649020  0.31387903  1
  In  In61  1  0.66142049  0.65977424  0.32263419  1
  In  In62  1  0.82096516  0.16961678  0.67170295  1
  In  In63  1  0.34475174  -0.01668272  0.00041872  1
  In  In64  1  0.51360177  0.19218573  0.01794241  1
  In  In65  1  0.15384809  0.66822981  0.46903494  1
  In  In66  1  0.81805773  0.48510953  0.34156048  1
  In  In67  1  0.83768969  0.84901331  0.67977174  1
  In  In68  1  0.85060436  -0.02251396  0.89043479  1
  In  In69  1  -0.01997968  0.47104794  0.49874161  1
  In  In70  1  -0.00413130  -0.01256231  0.33124403  1
  In  In71  1  0.65445922  0.82206023  0.17004113  1
  Te  Te72  1  0.09202872  0.06994077  0.09562826  1
  Te  Te73  1  0.07308020  0.10129562  0.39649952  1
  Te  Te74  1  0.10561263  0.07428967  0.73957299  1
  Te  Te75  1  0.07055650  0.41492413  0.07287571  1
  Te  Te76  1  0.07948956  0.42204236  0.39477776  1
  Te  Te77  1  0.11990769  0.42879350  0.72864895  1
  Te  Te78  1  0.10046350  0.71183067  0.09373124  1
  Te  Te79  1  0.06688174  0.77660211  0.41573927  1
  Te  Te80  1  0.09923355  0.72289261  0.75842997  1
  Te  Te81  1  0.42534381  0.08096915  0.08423407  1
  Te  Te82  1  0.42390605  0.06980251  0.38887250  1
  Te  Te83  1  0.41979681  0.07579729  0.74203648  1
  Te  Te84  1  0.37637641  0.45104034  0.09912502  1
  Te  Te85  1  0.40290365  0.41260739  0.42301971  1
  Te  Te86  1  0.40617161  0.44993126  0.77524812  1
  Te  Te87  1  0.43068849  0.72046111  0.08379202  1
  Te  Te88  1  0.40820597  0.78288918  0.42293543  1
  Te  Te89  1  0.42537448  0.73965050  0.75143119  1
  Te  Te90  1  0.73675022  0.09672698  0.08074134  1
  Te  Te91  1  0.75222239  0.13014625  0.44217253  1
  Te  Te92  1  0.77627792  0.07667837  0.78438057  1
  Te  Te93  1  0.75302402  0.39305023  0.11226737  1
  Te  Te94  1  0.74047273  0.41140829  0.43925699  1
  Te  Te95  1  0.73855741  0.41843935  0.75920031  1
  Te  Te96  1  0.75793711  0.75831145  0.09056492  1
  Te  Te97  1  0.75171357  0.75030866  0.41543769  1
  Te  Te98  1  0.76188590  0.73245405  0.74007012  1
  Te  Te99  1  0.09470650  0.25726042  0.22829950  1
  Te  Te100  1  0.06894502  0.24608469  0.58517052  1
  Te  Te101  1  0.09871121  0.25379346  0.89887087  1
  Te  Te102  1  0.07840412  0.61016116  0.24513449  1
  Te  Te103  1  0.08069615  0.57174680  0.55993103  1
  Te  Te104  1  0.09031287  0.55170966  0.91852632  1
  Te  Te105  1  0.05337897  0.90373609  0.22255656  1
  Te  Te106  1  0.08218150  0.91862989  0.58842357  1
  Te  Te107  1  0.08915828  0.90133505  0.93704013  1
  Te  Te108  1  0.39866021  0.25513548  0.22617089  1
  Te  Te109  1  0.40098182  0.23585118  0.58043180  1
  Te  Te110  1  0.44637016  0.28046952  0.92052606  1
  Te  Te111  1  0.41938208  0.60211221  0.24780573  1
  Te  Te112  1  0.43565717  0.59577428  0.57397330  1
  Te  Te113  1  0.37468838  0.55833134  0.88638701  1
  Te  Te114  1  0.42215490  0.90295862  0.25025137  1
  Te  Te115  1  0.40570476  0.93564869  0.56972673  1
  Te  Te116  1  0.42103023  0.89364499  0.91469832  1
  Te  Te117  1  0.77500851  0.22510488  0.32106831  1
  Te  Te118  1  0.72127515  0.21054816  0.57207616  1
  Te  Te119  1  0.72092195  0.26189757  0.92669763  1
  Te  Te120  1  0.77532272  0.59715400  0.24769972  1
  Te  Te121  1  0.74160356  0.59103017  0.58868964  1
  Te  Te122  1  0.75269553  0.55862276  0.93554134  1
  Te  Te123  1  0.73730346  0.93441181  0.24755180  1
  Te  Te124  1  0.78427528  0.94216652  0.57786715  1
  Te  Te125  1  0.72431414  0.89397796  0.90773091  1
  Te  Te126  1  0.26567017  0.24141700  0.06051795  1
  Te  Te127  1  0.24123757  0.25773591  0.37441362  1
  Te  Te128  1  0.27112529  0.25587330  0.76649035  1
  Te  Te129  1  0.25492132  0.54577123  0.07422225  1
  Te  Te130  1  0.25162780  0.56690833  0.41303247  1
  Te  Te131  1  0.21919690  0.54666520  0.72576678  1
  Te  Te132  1  0.24738481  0.92001521  0.09523239  1
  Te  Te133  1  0.24454517  0.94199956  0.37038730  1
  Te  Te134  1  0.26468086  0.89911906  0.74022110  1
  Te  Te135  1  0.58854974  0.26817620  0.11701420  1
  Te  Te136  1  0.56752502  0.24563198  0.42659325  1
  Te  Te137  1  0.57089579  0.27076782  0.75751872  1
  Te  Te138  1  0.58256896  0.59099248  0.10525661  1
  Te  Te139  1  0.59727721  0.57009994  0.42711520  1
  Te  Te140  1  0.58492310  0.59755271  0.77668387  1
  Te  Te141  1  0.56956383  0.89856692  0.06790481  1
  Te  Te142  1  0.59073270  0.92586739  0.42308564  1
  Te  Te143  1  0.59459488  0.91528527  0.72758936  1
  Te  Te144  1  0.89664179  0.25058721  0.09167162  1
  Te  Te145  1  0.89824796  0.25932537  0.42687333  1
  Te  Te146  1  0.92382374  0.26648412  0.74076619  1
  Te  Te147  1  0.91386684  0.58536919  0.09195233  1
  Te  Te148  1  0.92067736  0.58703480  0.41132762  1
  Te  Te149  1  0.93308180  0.57127197  0.76452296  1
  Te  Te150  1  0.89830593  0.93820690  0.02845830  1
  Te  Te151  1  0.89743518  0.93579717  0.42784592  1
  Te  Te152  1  0.93492211  0.91679332  0.77336402  1
  Te  Te153  1  0.24093165  0.06507550  0.27338370  1
  Te  Te154  1  0.23823933  0.09634915  0.54755573  1
  Te  Te155  1  0.25987388  0.07623338  0.90409304  1
  Te  Te156  1  0.22653686  0.45384202  0.23114535  1
  Te  Te157  1  0.24239748  0.38739129  0.57489586  1
  Te  Te158  1  0.29468562  0.44062145  0.96162893  1
  Te  Te159  1  0.24901056  0.73565923  0.23934057  1
  Te  Te160  1  0.25638021  0.72925700  0.57413350  1
  Te  Te161  1  0.26611065  0.75634013  0.90658455  1
  Te  Te162  1  0.60074025  0.09324519  0.24497637  1
  Te  Te163  1  0.61657037  0.08323661  0.60014551  1
  Te  Te164  1  0.57601187  0.08882382  0.90975964  1
  Te  Te165  1  0.57330789  0.41501531  0.25496759  1
  Te  Te166  1  0.59061279  0.40934280  0.61125718  1
  Te  Te167  1  0.55754104  0.42398077  0.96223851  1
  Te  Te168  1  0.56946741  0.76003913  0.27169667  1
  Te  Te169  1  0.59633024  0.75161672  0.58416937  1
  Te  Te170  1  0.57550077  0.71052830  0.90527177  1
  Te  Te171  1  0.90774978  0.08394924  0.25121867  1
  Te  Te172  1  0.91758113  0.07643663  0.61093438  1
  Te  Te173  1  0.94527207  0.09351684  0.92645292  1
  Te  Te174  1  0.90612509  0.40450076  0.24856613  1
  Te  Te175  1  0.88693047  0.40379289  0.58709397  1
  Te  Te176  1  0.92229923  0.41273460  0.91149363  1
  Te  Te177  1  0.92132698  0.79317390  0.21930005  1
  Te  Te178  1  0.92956057  0.76458424  0.58641877  1
  Te  Te179  1  0.90557873  0.74672805  0.93489155  1
