# generated using pymatgen
data_In2Te3
_symmetry_space_group_name_H-M   'P 1'
_cell_length_a   18.77344277
_cell_length_b   18.78017763
_cell_length_c   18.77920801
_cell_angle_alpha   89.96282889
_cell_angle_beta   89.99429651
_cell_angle_gamma   89.96725328
_symmetry_Int_Tables_number   1
_chemical_formula_structural   In2Te3
_chemical_formula_sum   'In72 Te108'
_cell_volume   6620.95638202
_cell_formula_units_Z   36
loop_
 _symmetry_equiv_pos_site_id
 _symmetry_equiv_pos_as_xyz
  1  'x, y, z'
loop_
 _atom_site_type_symbol
 _atom_site_label
 _atom_site_symmetry_multiplicity
 _atom_site_fract_x
 _atom_site_fract_y
 _atom_site_fract_z
 _atom_site_occupancy
  In  In0  1  0.01493159  0.35276346  0.67799909  1
  In  In1  1  0.67613987  -0.00234800  0.34685358  1
  In  In2  1  0.69567892  0.65428248  -0.03025822  1
  In  In3  1  0.83771653  0.18707237  0.66058849  1
  In  In4  1  0.50654112  -0.02258123  0.82050886  1
  In  In5  1  -0.00175621  0.65757317  0.67948657  1
  In  In6  1  0.69561269  0.02087131  0.02248193  1
  In  In7  1  0.15767394  0.66531314  0.82552466  1
  In  In8  1  0.30759167  0.51298516  0.17133437  1
  In  In9  1  0.32883109  -0.01709663  0.67582910  1
  In  In10  1  0.67795682  0.32093488  0.33605572  1
  In  In11  1  0.85396529  -0.00528038  0.85103317  1
  In  In12  1  0.50299084  -0.01914929  0.19605988  1
  In  In13  1  0.69888254  0.49105739  0.16987533  1
  In  In14  1  0.72363473  0.18032926  0.17204520  1
  In  In15  1  0.50342336  0.66770246  0.48074264  1
  In  In16  1  0.48428862  0.49503938  0.36275409  1
  In  In17  1  0.85630762  0.48702769  0.67493754  1
  In  In18  1  0.14213551  0.33041224  0.17090835  1
  In  In19  1  0.13464828  0.01053373  0.50432816  1
  In  In20  1  0.84782055  0.82880013  -0.00976222  1
  In  In21  1  0.30694108  0.00160871  -0.00552337  1
  In  In22  1  0.16652920  -0.01458581  0.83141858  1
  In  In23  1  0.00278894  -0.01324897  0.67615505  1
  In  In24  1  0.50431831  0.16780749  0.00861106  1
  In  In25  1  0.16943322  0.33407304  0.50391569  1
  In  In26  1  0.30847679  0.67056815  0.67379213  1
  In  In27  1  -0.02122192  0.48365139  0.15091838  1
  In  In28  1  0.66901016  0.83579621  0.17264259  1
  In  In29  1  0.48509130  0.51070694  -0.00872925  1
  In  In30  1  0.01533862  0.82295718  0.16955953  1
  In  In31  1  0.30272710  0.35974468  -0.01844735  1
  In  In32  1  0.67649992  -0.00387481  0.65797778  1
  In  In33  1  0.50944142  0.15485180  0.33645665  1
  In  In34  1  0.32021716  0.17931629  0.15861623  1
  In  In35  1  0.49182048  0.82102415  0.66094604  1
  In  In36  1  0.32980451  0.18441515  0.49223442  1
  In  In37  1  0.83954786  0.67160143  0.50276766  1
  In  In38  1  0.16629502  0.17528233  0.68765334  1
  In  In39  1  0.48872299  0.16609129  0.63203669  1
  In  In40  1  0.15882313  0.67004164  0.14391655  1
  In  In41  1  -0.00324970  0.66313123  0.33747057  1
  In  In42  1  0.71241094  0.68742185  0.70175680  1
  In  In43  1  0.68976014  0.51087763  0.82921799  1
  In  In44  1  0.84357679  0.50415490  0.32425147  1
  In  In45  1  0.49759045  0.48555051  0.66815819  1
  In  In46  1  0.32622988  -0.00396475  0.32185172  1
  In  In47  1  0.16905918  -0.00677822  0.16766027  1
  In  In48  1  0.30617366  0.17323620  0.81806218  1
  In  In49  1  0.66952207  0.19010121  0.83716231  1
  In  In50  1  0.50331530  0.31619839  0.17159906  1
  In  In51  1  0.64926446  0.50308511  0.50295531  1
  In  In52  1  0.84871180  0.84405579  0.33565170  1
  In  In53  1  0.14744129  0.47113748  0.34019943  1
  In  In54  1  -0.00228504  0.65643982  -0.00112828  1
  In  In55  1  0.48860010  0.65979575  0.85011655  1
  In  In56  1  0.82137520  -0.00548465  0.48794244  1
  In  In57  1  0.34236334  0.67451816  0.33891467  1
  In  In58  1  0.52753472  0.68460590  0.16448779  1
  In  In59  1  0.15587607  0.66679028  0.52211920  1
  In  In60  1  0.15715357  0.83633125  0.33756384  1
  In  In61  1  0.32059033  0.49256102  0.50478631  1
  In  In62  1  0.49037770  0.81938024  -0.00748278  1
  In  In63  1  -0.01760189  0.18088420  0.16316274  1
  In  In64  1  0.85139832  0.34359338  0.84870432  1
  In  In65  1  -0.02553844  0.18392048  0.46768587  1
  In  In66  1  0.66366298  0.84215422  0.49990918  1
  In  In67  1  0.70310666  0.36207142  -0.01081619  1
  In  In68  1  0.32693844  0.65889660  -0.01637586  1
  In  In69  1  0.49513637  0.32270297  0.81031690  1
  In  In70  1  0.68450012  0.16784533  0.50869536  1
  In  In71  1  0.01431548  -0.00015070  -0.00342825  1
  Te  Te72  1  0.08990546  0.09547512  0.08798512  1
  Te  Te73  1  0.06324659  0.08696703  0.39896810  1
  Te  Te74  1  0.07038708  0.08775879  0.76787032  1
  Te  Te75  1  0.09014518  0.42738137  0.06922573  1
  Te  Te76  1  0.05668800  0.40541606  0.43537493  1
  Te  Te77  1  0.09051329  0.42400178  0.78372553  1
  Te  Te78  1  0.09158195  0.76871659  0.04895605  1
  Te  Te79  1  0.06742160  0.75763016  0.43329243  1
  Te  Te80  1  0.09381905  0.76278637  0.73033277  1
  Te  Te81  1  0.41438231  0.07497344  0.09270638  1
  Te  Te82  1  0.41256912  0.07511992  0.42173636  1
  Te  Te83  1  0.42527379  0.09338398  0.75837976  1
  Te  Te84  1  0.41309423  0.40947986  0.08817112  1
  Te  Te85  1  0.40209854  0.39429672  0.42949765  1
  Te  Te86  1  0.39680390  0.41553418  0.75185258  1
  Te  Te87  1  0.40539001  0.73965937  0.09031777  1
  Te  Te88  1  0.40765386  0.76912414  0.43124061  1
  Te  Te89  1  0.40244244  0.75249203  0.76410016  1
  Te  Te90  1  0.81318388  0.09004030  0.08930005  1
  Te  Te91  1  0.76905014  0.10716593  0.39684658  1
  Te  Te92  1  0.75474594  0.08565693  0.75342712  1
  Te  Te93  1  0.79895416  0.41220289  0.09164768  1
  Te  Te94  1  0.75177271  0.42463365  0.42074219  1
  Te  Te95  1  0.74701222  0.39887431  0.74668093  1
  Te  Te96  1  0.75161354  0.74774413  0.07921947  1
  Te  Te97  1  0.75021527  0.75322188  0.40933377  1
  Te  Te98  1  0.80762847  0.76043199  0.78640761  1
  Te  Te99  1  0.06925992  0.24471009  0.26695512  1
  Te  Te100  1  0.07138287  0.23243897  0.58269301  1
  Te  Te101  1  0.01718481  0.25752708  0.94915609  1
  Te  Te102  1  0.08457913  0.57903195  0.24244203  1
  Te  Te103  1  0.08100528  0.56256947  0.59483755  1
  Te  Te104  1  0.07400059  0.56762183  0.90505938  1
  Te  Te105  1  0.06469008  0.93267169  0.26272171  1
  Te  Te106  1  0.09928229  0.90213862  0.60084214  1
  Te  Te107  1  0.07677911  0.89728797  0.91006790  1
  Te  Te108  1  0.40705337  0.24638697  0.26603474  1
  Te  Te109  1  0.38990153  0.26984134  0.59722984  1
  Te  Te110  1  0.40674661  0.25048551  0.92455678  1
  Te  Te111  1  0.42684480  0.57995891  0.23971162  1
  Te  Te112  1  0.41584740  0.59082104  0.58246570  1
  Te  Te113  1  0.38348966  0.55362223  0.88553309  1
  Te  Te114  1  0.40133457  0.89013939  0.24917270  1
  Te  Te115  1  0.42815377  0.92770785  0.58208607  1
  Te  Te116  1  0.40094221  0.91185375  0.90839396  1
  Te  Te117  1  0.79942351  0.28631792  0.24905711  1
  Te  Te118  1  0.76007164  0.27680275  0.57361536  1
  Te  Te119  1  0.77287390  0.23651906  0.93559012  1
  Te  Te120  1  0.75417766  0.59889690  0.25283384  1
  Te  Te121  1  0.74863080  0.57922978  0.59662035  1
  Te  Te122  1  0.79786978  0.55909966  0.91766647  1
  Te  Te123  1  0.76477025  0.93263033  0.24127612  1
  Te  Te124  1  0.77176159  0.89528173  0.59397532  1
  Te  Te125  1  0.74104815  0.91730317  0.92107705  1
  Te  Te126  1  0.22829831  0.25503386  0.06427090  1
  Te  Te127  1  0.22752287  0.24177451  0.40372792  1
  Te  Te128  1  0.22193313  0.28737261  0.77082031  1
  Te  Te129  1  0.22731544  0.56593089  0.05525553  1
  Te  Te130  1  0.23874915  0.58261934  0.40529299  1
  Te  Te131  1  0.21836254  0.56459870  0.72730507  1
  Te  Te132  1  0.25212932  0.90201814  0.08735680  1
  Te  Te133  1  0.24057979  0.92544000  0.42780802  1
  Te  Te134  1  0.23276330  0.88896889  0.73758941  1
  Te  Te135  1  0.60942047  0.25957639  0.07729673  1
  Te  Te136  1  0.57761898  0.25366982  0.42917889  1
  Te  Te137  1  0.59142111  0.24557416  0.71975539  1
  Te  Te138  1  0.59730328  0.57791725  0.07324532  1
  Te  Te139  1  0.59914752  0.59279411  0.38891394  1
  Te  Te140  1  0.58336970  0.58755356  0.75031732  1
  Te  Te141  1  0.57710318  0.92084024  0.07197231  1
  Te  Te142  1  0.57169083  0.91612667  0.41005767  1
  Te  Te143  1  0.60432253  0.89107061  0.74336304  1
  Te  Te144  1  0.93201698  0.28876219  0.06845723  1
  Te  Te145  1  0.89386397  0.26616098  0.37474589  1
  Te  Te146  1  0.93369841  0.24863960  0.76034591  1
  Te  Te147  1  0.89968605  0.59289935  0.09041173  1
  Te  Te148  1  0.93020538  0.56877034  0.43611065  1
  Te  Te149  1  0.91890329  0.57277730  0.77724724  1
  Te  Te150  1  0.92299700  0.91540873  0.08924758  1
  Te  Te151  1  0.93512206  0.92596170  0.42228405  1
  Te  Te152  1  0.90989108  0.89596240  0.75371514  1
  Te  Te153  1  0.23527313  0.09945345  0.25701244  1
  Te  Te154  1  0.24845392  0.08582843  0.59298119  1
  Te  Te155  1  0.21940975  0.10151577  0.92100738  1
  Te  Te156  1  0.25592567  0.40143950  0.25779109  1
  Te  Te157  1  0.21645155  0.44118663  0.59973569  1
  Te  Te158  1  0.19961777  0.42376375  0.89632276  1
  Te  Te159  1  0.24234599  0.74764694  0.24618243  1
  Te  Te160  1  0.26658083  0.75671305  0.56072375  1
  Te  Te161  1  0.24603017  0.75453583  0.90775187  1
  Te  Te162  1  0.60182876  0.09653726  0.22906528  1
  Te  Te163  1  0.58275782  0.06619222  0.56087438  1
  Te  Te164  1  0.58705225  0.07814801  0.91062669  1
  Te  Te165  1  0.58342863  0.41735868  0.25436229  1
  Te  Te166  1  0.57411197  0.39991711  0.57615156  1
  Te  Te167  1  0.57876627  0.41506806  0.90952174  1
  Te  Te168  1  0.57902141  0.77205183  0.27141967  1
  Te  Te169  1  0.59678629  0.73186068  0.58669998  1
  Te  Te170  1  0.59698007  0.75300590  0.90468317  1
  Te  Te171  1  0.88555969  0.08831888  0.22847859  1
  Te  Te172  1  0.91400222  0.07901281  0.58336387  1
  Te  Te173  1  0.93349141  0.10039370  0.91856921  1
  Te  Te174  1  0.94310340  0.40236999  0.27264242  1
  Te  Te175  1  0.92086811  0.40047598  0.57369144  1
  Te  Te176  1  0.96006546  0.39629569  0.94195535  1
  Te  Te177  1  0.90858325  0.73987180  0.23951905  1
  Te  Te178  1  0.92124021  0.75339233  0.59235483  1
  Te  Te179  1  0.92053269  0.73855781  0.89399349  1
