# generated using pymatgen
data_In2Te3
_symmetry_space_group_name_H-M   'P 1'
_cell_length_a   18.97925087
_cell_length_b   18.96902177
_cell_length_c   18.98538251
_cell_angle_alpha   90.05926170
_cell_angle_beta   89.86591193
_cell_angle_gamma   90.19645171
_symmetry_Int_Tables_number   1
_chemical_formula_structural   In2Te3
_chemical_formula_sum   'In72 Te108'
_cell_volume   6835.01358646
_cell_formula_units_Z   36
loop_
 _symmetry_equiv_pos_site_id
 _symmetry_equiv_pos_as_xyz
  1  'x, y, z'
loop_
 _atom_site_type_symbol
 _atom_site_label
 _atom_site_symmetry_multiplicity
 _atom_site_fract_x
 _atom_site_fract_y
 _atom_site_fract_z
 _atom_site_occupancy
  In  In0  1  0.35191411  0.34147635  0.33855108  1
  In  In1  1  0.82892142  0.64810995  0.86722286  1
  In  In2  1  -0.00374657  0.65515785  0.33893479  1
  In  In3  1  0.52734235  -0.00119341  0.85124691  1
  In  In4  1  0.85069363  0.18094689  0.68159156  1
  In  In5  1  0.31497181  0.83073646  0.50320875  1
  In  In6  1  0.14773888  0.67373975  0.50872421  1
  In  In7  1  0.35143844  0.46537040  0.13918691  1
  In  In8  1  0.17356877  0.16510411  0.68310820  1
  In  In9  1  -0.00061302  0.64237790  0.01798554  1
  In  In10  1  0.50165321  -0.01927762  0.47937473  1
  In  In11  1  0.19027397  0.84000247  0.31778802  1
  In  In12  1  0.50176150  0.17754549  0.64134292  1
  In  In13  1  0.82071972  0.80730345  0.64193621  1
  In  In14  1  -0.02377911  0.84610924  0.50170162  1
  In  In15  1  0.17375704  0.47779284  0.35325724  1
  In  In16  1  0.04039862  0.03026495  0.65296091  1
  In  In17  1  0.82590432  0.81088606  0.33834915  1
  In  In18  1  0.14997098  0.66640050  0.17398041  1
  In  In19  1  0.67213984  0.82168677  0.82175655  1
  In  In20  1  -0.00620296  0.51195759  0.48459253  1
  In  In21  1  0.66981618  0.50053188  0.19972094  1
  In  In22  1  0.37812872  0.61084088  0.33527039  1
  In  In23  1  0.49997030  0.66065684  0.49544300  1
  In  In24  1  -0.01445526  0.34766806  0.31024690  1
  In  In25  1  0.35667983  0.02491931  0.64663475  1
  In  In26  1  0.49637403  0.83327739  -0.02286383  1
  In  In27  1  0.67100436  0.61411273  0.01142080  1
  In  In28  1  0.01174574  0.83665565  0.16756345  1
  In  In29  1  0.35211955  0.50550155  0.51119102  1
  In  In30  1  0.80558677  0.35866321  0.48199587  1
  In  In31  1  0.82750547  0.19788122  0.29271640  1
  In  In32  1  0.63505540  0.18199747  0.85657540  1
  In  In33  1  0.50506634  0.64604026  0.83220705  1
  In  In34  1  0.51272927  0.17741867  0.33970105  1
  In  In35  1  0.16343603  0.31679453  0.85139313  1
  In  In36  1  0.01025670  0.17509041  0.49173814  1
  In  In37  1  0.34768893  0.50016951  0.82651264  1
  In  In38  1  0.49126044  0.35025707  0.82046589  1
  In  In39  1  0.00793678  0.48198032  0.87915328  1
  In  In40  1  0.66508495  0.37517180  0.64164897  1
  In  In41  1  0.00239929  0.34742846  0.69043315  1
  In  In42  1  0.19001281  0.81034794  0.69879162  1
  In  In43  1  0.22828490  0.00984386  0.14672390  1
  In  In44  1  -0.02416277  0.67190405  0.67457464  1
  In  In45  1  0.35606163  0.01919308  0.30803330  1
  In  In46  1  0.64976839  -0.01758394  0.32541180  1
  In  In47  1  0.82261379  -0.00806768  0.48557720  1
  In  In48  1  0.46171433  0.01606995  0.14461889  1
  In  In49  1  0.16193015  0.00690079  0.81836555  1
  In  In50  1  0.00166142  0.02266796  -0.00941466  1
  In  In51  1  0.67853892  -0.01055561  0.66875039  1
  In  In52  1  0.81255257  0.83203607  0.01399419  1
  In  In53  1  0.14777697  0.00077488  0.51793369  1
  In  In54  1  0.65983560  0.18675146  0.47386208  1
  In  In55  1  0.18225126  0.19118825  0.02410656  1
  In  In56  1  0.61716263  0.58844441  0.63311131  1
  In  In57  1  0.27740035  0.32090228  0.53159732  1
  In  In58  1  0.81939256  0.51165041  0.66008113  1
  In  In59  1  0.35052422  0.83591784  0.14577268  1
  In  In60  1  -0.01134826  0.85882716  0.82122471  1
  In  In61  1  0.16694254  0.47978019  0.00679823  1
  In  In62  1  0.66175728  0.19239605  0.16323162  1
  In  In63  1  0.63706708  0.35492906  0.01535313  1
  In  In64  1  -0.02368208  0.20361509  0.14176321  1
  In  In65  1  0.81980371  0.01361298  0.18023441  1
  In  In66  1  0.33214999  0.65732539  -0.01951651  1
  In  In67  1  0.85750073  0.02357827  0.83320851  1
  In  In68  1  0.33280040  0.18134678  0.84260055  1
  In  In69  1  0.64564907  0.76011744  0.18527013  1
  In  In70  1  -0.04509259  0.43156532  0.11063538  1
  In  In71  1  0.66697592  -0.00848135  0.02542407  1
  Te  Te72  1  0.08694986  0.09271003  0.09301762  1
  Te  Te73  1  0.08075011  0.07617128  0.41202954  1
  Te  Te74  1  0.06427407  0.11469569  0.77646277  1
  Te  Te75  1  0.09934516  0.38674023  0.10011894  1
  Te  Te76  1  0.07156649  0.39523055  0.42744907  1
  Te  Te77  1  0.10154317  0.42966486  0.77019263  1
  Te  Te78  1  0.09124939  0.75579163  0.06727586  1
  Te  Te79  1  0.08414802  0.77159563  0.40409595  1
  Te  Te80  1  0.07303937  0.74336690  0.76896199  1
  Te  Te81  1  0.36402087  0.11656661  0.10043424  1
  Te  Te82  1  0.41807125  0.09314600  0.42498156  1
  Te  Te83  1  0.43687034  0.09337526  0.75687690  1
  Te  Te84  1  0.41609837  0.36409001  0.05170943  1
  Te  Te85  1  0.42081216  0.47121163  0.38403427  1
  Te  Te86  1  0.42978660  0.43878681  0.71926779  1
  Te  Te87  1  0.43072873  0.73291439  0.06923149  1
  Te  Te88  1  0.39933756  0.74456978  0.41427483  1
  Te  Te89  1  0.39694502  0.73894225  0.78711727  1
  Te  Te90  1  0.75513896  0.10453395  0.08021186  1
  Te  Te91  1  0.74600166  0.08361956  0.39059082  1
  Te  Te92  1  0.73722838  0.09571877  0.76112934  1
  Te  Te93  1  0.74260435  0.39821209  0.11465149  1
  Te  Te94  1  0.69525580  0.43012513  0.41338735  1
  Te  Te95  1  0.76744396  0.40253820  0.74314796  1
  Te  Te96  1  0.75781386  0.71598672  0.09075877  1
  Te  Te97  1  0.72567418  0.72062666  0.39763491  1
  Te  Te98  1  0.75942194  0.72151810  0.75016279  1
  Te  Te99  1  0.07672204  0.26302396  0.23228962  1
  Te  Te100  1  0.08190749  0.25340040  0.59748997  1
  Te  Te101  1  0.07699353  0.27733387  0.96526596  1
  Te  Te102  1  0.08396782  0.56162293  0.25818241  1
  Te  Te103  1  0.07102563  0.57974686  0.59894132  1
  Te  Te104  1  0.10490454  0.59168991  0.92342618  1
  Te  Te105  1  0.11306921  0.93008614  0.22673034  1
  Te  Te106  1  0.08246408  0.88529598  0.60460378  1
  Te  Te107  1  0.08763318  0.91995600  0.91801365  1
  Te  Te108  1  0.44294029  0.26651624  0.24745571  1
  Te  Te109  1  0.41600941  0.27582909  0.57162290  1
  Te  Te110  1  0.43496192  0.25436555  0.92012878  1
  Te  Te111  1  0.44319038  0.56414875  0.20621059  1
  Te  Te112  1  0.43999073  0.57606199  0.60838636  1
  Te  Te113  1  0.43714030  0.55836059  0.93613045  1
  Te  Te114  1  0.43785216  0.90804843  0.24838197  1
  Te  Te115  1  0.42189590  0.90368586  0.58427333  1
  Te  Te116  1  0.41376003  0.94181117  0.92468055  1
  Te  Te117  1  0.70346081  0.27914208  0.28075406  1
  Te  Te118  1  0.75559421  0.24361422  0.57807047  1
  Te  Te119  1  0.72338974  0.26808165  0.93111165  1
  Te  Te120  1  0.71862927  0.62273339  0.27602254  1
  Te  Te121  1  0.74519036  0.58574380  0.56089297  1
  Te  Te122  1  0.77817251  0.53732602  0.94714651  1
  Te  Te123  1  0.74257366  0.89541209  0.23634793  1
  Te  Te124  1  0.73075237  0.89529195  0.55833179  1
  Te  Te125  1  0.74852707  0.92765397  0.90676805  1
  Te  Te126  1  0.30200692  0.26011198  0.07897954  1
  Te  Te127  1  0.24775899  0.25835844  0.40421020  1
  Te  Te128  1  0.26483637  0.27016097  0.74213729  1
  Te  Te129  1  0.25023043  0.58023119  0.09257827  1
  Te  Te130  1  0.23780901  0.60366568  0.40854936  1
  Te  Te131  1  0.28191680  0.63084817  0.79677704  1
  Te  Te132  1  0.26486334  0.90621856  0.05125172  1
  Te  Te133  1  0.25699075  0.93847715  0.41269801  1
  Te  Te134  1  0.26618631  0.93547455  0.73618518  1
  Te  Te135  1  0.54882210  0.27031724  0.10618473  1
  Te  Te136  1  0.54221878  0.27603090  0.45358736  1
  Te  Te137  1  0.59229731  0.26344238  0.72731738  1
  Te  Te138  1  0.57067127  0.54556411  0.09646473  1
  Te  Te139  1  0.59230522  0.62185872  0.38046068  1
  Te  Te140  1  0.60850926  0.55354116  0.77797114  1
  Te  Te141  1  0.59522712  0.87668671  0.08967589  1
  Te  Te142  1  0.58342312  0.88271693  0.40883355  1
  Te  Te143  1  0.57451950  0.90393690  0.74127557  1
  Te  Te144  1  0.87038860  0.30034598  0.10070829  1
  Te  Te145  1  0.90011736  0.25022844  0.41572437  1
  Te  Te146  1  0.91231724  0.27094467  0.77801496  1
  Te  Te147  1  0.91163991  0.57484804  0.11079056  1
  Te  Te148  1  0.89511952  0.55423477  0.38286962  1
  Te  Te149  1  0.92360362  0.56611495  0.77228727  1
  Te  Te150  1  0.91150771  0.92637671  0.08419072  1
  Te  Te151  1  0.91882054  0.92568380  0.38828087  1
  Te  Te152  1  0.88809261  0.91749278  0.72671147  1
  Te  Te153  1  0.26259393  0.11346987  0.24589528  1
  Te  Te154  1  0.25143555  0.10026723  0.57029665  1
  Te  Te155  1  0.23755408  0.09277390  0.91755287  1
  Te  Te156  1  0.25402226  0.41134705  0.24317415  1
  Te  Te157  1  0.23624097  0.45103589  0.58130260  1
  Te  Te158  1  0.26495852  0.40787256  0.91773317  1
  Te  Te159  1  0.26757147  0.74064380  0.23563056  1
  Te  Te160  1  0.26128703  0.72306649  0.59783949  1
  Te  Te161  1  0.28254596  0.76402195  0.89034440  1
  Te  Te162  1  0.57702117  0.07512291  0.22812673  1
  Te  Te163  1  0.59799131  0.07483042  0.56969553  1
  Te  Te164  1  0.57171848  0.09186223  0.96283717  1
  Te  Te165  1  0.60253812  0.39866975  0.28685544  1
  Te  Te166  1  0.58894745  0.41846811  0.52527337  1
  Te  Te167  1  0.59344753  0.43099165  0.89198182  1
  Te  Te168  1  0.53321710  0.69936835  0.26074077  1
  Te  Te169  1  0.57595283  0.72628302  0.60363909  1
  Te  Te170  1  0.60601179  0.73127985  0.92370239  1
  Te  Te171  1  0.92801749  0.09650511  0.24415714  1
  Te  Te172  1  0.90893895  0.07372467  0.58142378  1
  Te  Te173  1  0.90512871  0.11645645  0.93470981  1
  Te  Te174  1  0.89044739  0.44315335  0.25660928  1
  Te  Te175  1  0.91520470  0.41017388  0.57858620  1
  Te  Te176  1  0.92203893  0.39958706  0.96448744  1
  Te  Te177  1  0.91942529  0.74080187  0.23941614  1
  Te  Te178  1  0.90470681  0.72171466  0.54856291  1
  Te  Te179  1  0.91260457  0.76494409  0.92042094  1
