# generated using pymatgen
data_In2Te3
_symmetry_space_group_name_H-M   'P 1'
_cell_length_a   19.03420169
_cell_length_b   19.00513099
_cell_length_c   18.96860936
_cell_angle_alpha   90.17667579
_cell_angle_beta   89.99657453
_cell_angle_gamma   89.97805770
_symmetry_Int_Tables_number   1
_chemical_formula_structural   In2Te3
_chemical_formula_sum   'In72 Te108'
_cell_volume   6861.81380638
_cell_formula_units_Z   36
loop_
 _symmetry_equiv_pos_site_id
 _symmetry_equiv_pos_as_xyz
  1  'x, y, z'
loop_
 _atom_site_type_symbol
 _atom_site_label
 _atom_site_symmetry_multiplicity
 _atom_site_fract_x
 _atom_site_fract_y
 _atom_site_fract_z
 _atom_site_occupancy
  In  In0  1  0.02035240  0.35131235  0.32442346  1
  In  In1  1  0.50868709  0.32372453  0.52220587  1
  In  In2  1  0.51190440  0.66353622  0.50996385  1
  In  In3  1  0.00965337  0.17344767  0.82412392  1
  In  In4  1  0.69594310  0.31962030  0.72590839  1
  In  In5  1  0.17901458  0.32624311  0.87531351  1
  In  In6  1  0.49654213  0.79332404  -0.00648960  1
  In  In7  1  0.69573500  0.47457229  0.85075089  1
  In  In8  1  0.82511916  0.02528679  0.50504104  1
  In  In9  1  0.48591267  0.15070044  0.31247292  1
  In  In10  1  0.02563998  0.81222816  0.47901981  1
  In  In11  1  0.31468105  0.20154334  0.48841617  1
  In  In12  1  0.29929513  0.39151431  0.33633016  1
  In  In13  1  0.83605840  0.33676531  0.52055228  1
  In  In14  1  0.67168204  0.19453386  0.14277656  1
  In  In15  1  0.67935977  0.84612814  0.81421769  1
  In  In16  1  0.66233727  0.66764606  0.01027201  1
  In  In17  1  0.67516009  0.66468882  0.65226529  1
  In  In18  1  0.11911321  0.64660929  0.83802423  1
  In  In19  1  0.50157180  0.81196510  0.35313324  1
  In  In20  1  0.02226735  0.65122017  0.29149328  1
  In  In21  1  -0.03493085  0.87881853  0.16562387  1
  In  In22  1  0.49668057  0.50002111  0.34344506  1
  In  In23  1  -0.01945886  0.00745306  -0.02865509  1
  In  In24  1  0.84048796  0.68446578  0.49686988  1
  In  In25  1  0.19295996  0.76616630  0.07320449  1
  In  In26  1  0.86802154  0.33624474  0.85160376  1
  In  In27  1  0.81876663  0.66514128  0.18836730  1
  In  In28  1  0.12555602  0.34937798  0.14030903  1
  In  In29  1  0.15015216  -0.01566252  0.15853568  1
  In  In30  1  0.17321603  0.37839995  0.48348214  1
  In  In31  1  0.32105146  0.16466712  0.18487689  1
  In  In32  1  0.02533867  0.38004473  0.66487903  1
  In  In33  1  0.17770798  0.15733599  0.00304232  1
  In  In34  1  0.49659325  0.61635346  0.84088433  1
  In  In35  1  -0.02110508  0.17078008  0.51094255  1
  In  In36  1  0.45615018  0.37448831  0.15138525  1
  In  In37  1  -0.03092384  0.02500657  0.33667750  1
  In  In38  1  0.50343376  0.46943870  0.67336585  1
  In  In39  1  0.32915439  -0.01659395  0.31212248  1
  In  In40  1  0.48465419  0.16710857  0.00883614  1
  In  In41  1  0.00725755  0.65190330  0.00139944  1
  In  In42  1  0.49748363  -0.01958467  0.84904651  1
  In  In43  1  0.71554570  0.01435479  0.69751447  1
  In  In44  1  0.49346512  -0.02309645  0.49060740  1
  In  In45  1  0.55446287  0.14767735  0.70006436  1
  In  In46  1  0.67482117  0.31806629  0.30220892  1
  In  In47  1  0.66898123  0.83445208  0.17731993  1
  In  In48  1  0.15048858  0.17958779  0.66489549  1
  In  In49  1  0.16457813  0.00648424  0.84482775  1
  In  In50  1  0.35689709  0.01178838  0.64894996  1
  In  In51  1  0.48049682  0.82068906  0.67173353  1
  In  In52  1  0.81267817  0.85993242  0.33039790  1
  In  In53  1  0.84509247  0.48046124  0.01364093  1
  In  In54  1  0.17804029  0.80219719  0.28741795  1
  In  In55  1  0.30190880  0.83332480  0.85608919  1
  In  In56  1  0.82600345  0.18736619  0.29552899  1
  In  In57  1  0.67519020  0.64329095  0.34384950  1
  In  In58  1  0.84045585  0.48458934  0.34828372  1
  In  In59  1  0.85769796  0.83814706  0.64558555  1
  In  In60  1  0.17098774  -0.01201044  0.47262209  1
  In  In61  1  0.48310796  0.36407861  0.88283825  1
  In  In62  1  0.28362328  0.34164749  0.66905040  1
  In  In63  1  0.32211730  0.67613284  0.67534194  1
  In  In64  1  0.87319838  0.64161984  0.81649898  1
  In  In65  1  0.67798140  0.18059598  0.49896179  1
  In  In66  1  0.50980023  -0.01475514  0.15785125  1
  In  In67  1  0.49136296  0.62747704  0.16321087  1
  In  In68  1  0.31524218  0.51107178  0.86134227  1
  In  In69  1  -0.00331804  0.83617554  0.82527818  1
  In  In70  1  0.68720491  0.01737606  -0.00141483  1
  In  In71  1  0.18943445  0.83090198  0.63513673  1
  Te  Te72  1  0.06960253  0.07905960  0.07404276  1
  Te  Te73  1  0.07561274  0.09334974  0.41963798  1
  Te  Te74  1  0.07877346  0.06798049  0.73803360  1
  Te  Te75  1  0.05711518  0.43459450  0.03908182  1
  Te  Te76  1  0.08086058  0.46476167  0.40224856  1
  Te  Te77  1  0.13900073  0.40949970  0.76133276  1
  Te  Te78  1  0.04279244  0.77037835  0.09189348  1
  Te  Te79  1  0.10951618  0.71661530  0.39737175  1
  Te  Te80  1  0.10289502  0.76764863  0.74391516  1
  Te  Te81  1  0.40351745  0.07339873  0.09585939  1
  Te  Te82  1  0.39723152  0.08352713  0.41623162  1
  Te  Te83  1  0.42837865  0.08612086  0.75910114  1
  Te  Te84  1  0.37944393  0.46264191  0.06276131  1
  Te  Te85  1  0.41928400  0.40935591  0.43635784  1
  Te  Te86  1  0.39076918  0.41840848  0.76124114  1
  Te  Te87  1  0.41056517  0.72593570  0.08868496  1
  Te  Te88  1  0.41172750  0.71997558  0.42068636  1
  Te  Te89  1  0.41087212  0.74459085  0.78306244  1
  Te  Te90  1  0.77007718  0.12968769  0.05477594  1
  Te  Te91  1  0.75043344  0.09743342  0.39537692  1
  Te  Te92  1  0.75904290  0.11265721  0.79523011  1
  Te  Te93  1  0.74675640  0.37433931  0.04341509  1
  Te  Te94  1  0.73879474  0.39496545  0.41796875  1
  Te  Te95  1  0.79780097  0.43260513  0.74963341  1
  Te  Te96  1  0.76052550  0.75709118  0.08313030  1
  Te  Te97  1  0.73668824  0.76101877  0.41694424  1
  Te  Te98  1  0.77429524  0.74134130  0.74131224  1
  Te  Te99  1  0.05257609  0.25080695  0.22164341  1
  Te  Te100  1  0.08783122  0.26732595  0.55900941  1
  Te  Te101  1  0.06940201  0.24604159  0.94210084  1
  Te  Te102  1  0.10830837  0.55579914  0.21851780  1
  Te  Te103  1  0.05324324  0.52229705  0.62136102  1
  Te  Te104  1  0.11615384  0.55617533  0.96260812  1
  Te  Te105  1  0.06866486  0.91500350  0.27323867  1
  Te  Te106  1  0.08247923  0.91841783  0.57313159  1
  Te  Te107  1  0.08717030  0.90820459  0.92610187  1
  Te  Te108  1  0.40857633  0.26716579  0.25499517  1
  Te  Te109  1  0.39946060  0.25411584  0.59989641  1
  Te  Te110  1  0.39742917  0.25841635  0.93466147  1
  Te  Te111  1  0.39576639  0.57552323  0.26510127  1
  Te  Te112  1  0.43079417  0.58665730  0.61175837  1
  Te  Te113  1  0.40733796  0.58398921  0.95510908  1
  Te  Te114  1  0.42732973  0.89257853  0.24313490  1
  Te  Te115  1  0.39579116  0.88958144  0.56576245  1
  Te  Te116  1  0.40427353  0.90579261  0.94109481  1
  Te  Te117  1  0.79667568  0.30737482  0.20301043  1
  Te  Te118  1  0.76117819  0.23856936  0.60835878  1
  Te  Te119  1  0.74260756  0.25498378  0.85844929  1
  Te  Te120  1  0.74151228  0.54947844  0.24588252  1
  Te  Te121  1  0.76854313  0.58393768  0.57540349  1
  Te  Te122  1  0.76867930  0.59092652  0.92332296  1
  Te  Te123  1  0.75202999  0.94361172  0.22798257  1
  Te  Te124  1  0.74551646  0.92183892  0.58197113  1
  Te  Te125  1  0.75798590  0.92239342  0.91026551  1
  Te  Te126  1  0.24356496  0.25618943  0.09696657  1
  Te  Te127  1  0.22913109  0.26514780  0.38574880  1
  Te  Te128  1  0.24531039  0.23251187  0.76731907  1
  Te  Te129  1  0.21723759  0.63408473  0.13954155  1
  Te  Te130  1  0.23291850  0.50596783  0.41284316  1
  Te  Te131  1  0.23586555  0.58347097  0.75672582  1
  Te  Te132  1  0.25314967  0.89702542  0.10485944  1
  Te  Te133  1  0.25227164  0.88621098  0.39798909  1
  Te  Te134  1  0.26659213  0.92427989  0.73814634  1
  Te  Te135  1  0.55774469  0.27378253  0.08817617  1
  Te  Te136  1  0.57239990  0.24494679  0.40257403  1
  Te  Te137  1  0.55865204  0.27423059  0.77872987  1
  Te  Te138  1  0.59334031  0.55843769  0.07879584  1
  Te  Te139  1  0.59686960  0.55896923  0.44160406  1
  Te  Te140  1  0.60716745  0.56045692  0.74961889  1
  Te  Te141  1  0.58911847  0.90243444  0.05748034  1
  Te  Te142  1  0.58591672  0.92548280  0.39142072  1
  Te  Te143  1  0.57818682  0.92941424  0.72994232  1
  Te  Te144  1  0.85566516  0.27743016  0.05830400  1
  Te  Te145  1  0.90718691  0.25760725  0.40936661  1
  Te  Te146  1  0.94108751  0.27213545  0.73426683  1
  Te  Te147  1  0.91380362  0.58458456  0.10154041  1
  Te  Te148  1  0.92155538  0.60174331  0.39904263  1
  Te  Te149  1  0.99825619  0.58746309  0.76081928  1
  Te  Te150  1  0.88464045  0.93617525  0.05876095  1
  Te  Te151  1  0.91518066  0.91510059  0.43531870  1
  Te  Te152  1  0.90891533  0.92587188  0.74986221  1
  Te  Te153  1  0.22364218  0.07708204  0.25867912  1
  Te  Te154  1  0.24288898  0.08758831  0.57447042  1
  Te  Te155  1  0.26632581  0.07214845  0.92411577  1
  Te  Te156  1  0.21858493  0.44000676  0.21693849  1
  Te  Te157  1  0.26454518  0.45194747  0.57499021  1
  Te  Te158  1  0.26993056  0.40959454  0.96347492  1
  Te  Te159  1  0.28078938  0.69962815  0.26312323  1
  Te  Te160  1  0.22866110  0.70773180  0.56709114  1
  Te  Te161  1  0.22413862  0.72953289  0.92657959  1
  Te  Te162  1  0.59426146  0.09149155  0.22559047  1
  Te  Te163  1  0.57462437  0.08861076  0.56307525  1
  Te  Te164  1  0.57879583  0.08764555  0.91918861  1
  Te  Te165  1  0.57317072  0.41522084  0.24373643  1
  Te  Te166  1  0.61194658  0.39232227  0.60538805  1
  Te  Te167  1  0.58724364  0.44630252  0.94861349  1
  Te  Te168  1  0.58942893  0.72489944  0.24672418  1
  Te  Te169  1  0.59268582  0.76961819  0.58170580  1
  Te  Te170  1  0.59692876  0.73984296  0.88579311  1
  Te  Te171  1  0.92345429  0.10393042  0.22323845  1
  Te  Te172  1  0.90979936  0.08611534  0.60687810  1
  Te  Te173  1  0.89797910  0.09926634  0.88756959  1
  Te  Te174  1  0.92578205  0.42887481  0.24167713  1
  Te  Te175  1  0.93497270  0.44259902  0.55669208  1
  Te  Te176  1  0.95293509  0.44105199  0.91722112  1
  Te  Te177  1  0.90972682  0.76189173  0.26497135  1
  Te  Te178  1  0.95289469  0.73485852  0.58741469  1
  Te  Te179  1  0.91728731  0.74544317  0.91666486  1
