# generated using pymatgen
data_In2Te3
_symmetry_space_group_name_H-M   'P 1'
_cell_length_a   18.77362324
_cell_length_b   18.77210719
_cell_length_c   18.77306990
_cell_angle_alpha   90.00343074
_cell_angle_beta   89.95838277
_cell_angle_gamma   89.98038186
_symmetry_Int_Tables_number   1
_chemical_formula_structural   In2Te3
_chemical_formula_sum   'In72 Te108'
_cell_volume   6616.01193141
_cell_formula_units_Z   36
loop_
 _symmetry_equiv_pos_site_id
 _symmetry_equiv_pos_as_xyz
  1  'x, y, z'
loop_
 _atom_site_type_symbol
 _atom_site_label
 _atom_site_symmetry_multiplicity
 _atom_site_fract_x
 _atom_site_fract_y
 _atom_site_fract_z
 _atom_site_occupancy
  In  In0  1  0.67329445  0.18213278  0.20029369  1
  In  In1  1  0.83999533  0.33629855  0.49099650  1
  In  In2  1  0.32563296  0.34385435  0.00556574  1
  In  In3  1  0.16823739  0.17400369  0.65829969  1
  In  In4  1  0.83634669  0.48328057  0.65618893  1
  In  In5  1  0.32824271  0.16616871  0.49315703  1
  In  In6  1  0.85274739  0.83391291  -0.00495578  1
  In  In7  1  0.17526778  0.49570163  0.33897009  1
  In  In8  1  0.83915687  0.85720573  0.67094295  1
  In  In9  1  0.83193632  0.16318951  0.01603773  1
  In  In10  1  0.63491025  0.83370396  0.83308117  1
  In  In11  1  0.85183555  0.65785889  0.16661513  1
  In  In12  1  0.00910882  0.32830902  0.34717358  1
  In  In13  1  0.00668794  0.16634957  0.50441906  1
  In  In14  1  0.01212377  0.82909479  0.13578590  1
  In  In15  1  0.31687627  0.54662375  0.14704485  1
  In  In16  1  0.32443085  0.31631145  0.33780608  1
  In  In17  1  0.02258359  0.66118124  0.66667107  1
  In  In18  1  0.49683438  0.32828803  0.81733129  1
  In  In19  1  0.51472306  0.33605592  0.17667412  1
  In  In20  1  0.65936973  -0.00957757  0.68341808  1
  In  In21  1  0.83461479  0.68379550  0.84672198  1
  In  In22  1  0.33334180  0.52142637  0.51565662  1
  In  In23  1  0.88305130  0.30303289  0.79965451  1
  In  In24  1  0.66882527  0.33825981  0.64978282  1
  In  In25  1  0.19001742  0.80742414  -0.02019809  1
  In  In26  1  0.02002105  0.84994994  0.51284829  1
  In  In27  1  0.18093839  0.82754857  0.33992602  1
  In  In28  1  0.17441333  -0.00205793  0.16700763  1
  In  In29  1  0.65944962  0.85425837  0.16218746  1
  In  In30  1  0.48965416  0.14476138  0.00241424  1
  In  In31  1  0.83171110  0.66051385  0.49059303  1
  In  In32  1  -0.00782641  0.16141361  0.17505361  1
  In  In33  1  0.32512104  0.13028448  0.82242098  1
  In  In34  1  0.65964186  0.52265432  0.80189188  1
  In  In35  1  0.84745414  -0.00311884  0.82788169  1
  In  In36  1  0.83605921  0.48895145  0.02317758  1
  In  In37  1  0.47669619  0.67438140  0.50137586  1
  In  In38  1  0.50047057  0.50166086  0.31708505  1
  In  In39  1  0.00490396  0.66710373  0.33905964  1
  In  In40  1  0.49177399  0.52574398  -0.01010657  1
  In  In41  1  0.66257565  0.79286755  0.50141554  1
  In  In42  1  -0.00128397  -0.00642787  -0.00174677  1
  In  In43  1  0.32749299  0.82808380  0.17176755  1
  In  In44  1  0.68191607  0.34762660  0.00213289  1
  In  In45  1  0.48824956  0.66042647  0.14950495  1
  In  In46  1  0.64703339  0.00205212  0.00825115  1
  In  In47  1  0.66951526  0.17899547  0.49900179  1
  In  In48  1  0.17240065  0.49969806  0.66783678  1
  In  In49  1  0.64557660  0.65343543  0.66271669  1
  In  In50  1  0.34118111  -0.01404621  0.67186515  1
  In  In51  1  -0.00625384  0.02175976  0.34211240  1
  In  In52  1  0.00670263  0.32960553  -0.01078054  1
  In  In53  1  0.17599859  0.82122739  0.65823631  1
  In  In54  1  0.02692029  0.52585879  0.84707998  1
  In  In55  1  0.65982862  0.66109789  0.34364290  1
  In  In56  1  0.47478903  0.82537226  0.34902003  1
  In  In57  1  0.64287285  0.66908716  0.00193539  1
  In  In58  1  0.15028500  0.33414464  0.17207018  1
  In  In59  1  0.33030476  -0.01136338  0.34322898  1
  In  In60  1  0.84598147  0.01823801  0.50227307  1
  In  In61  1  0.66174323  0.15389124  0.84492766  1
  In  In62  1  0.34319413  0.34325636  0.65495822  1
  In  In63  1  0.14662506  0.33653266  0.83447446  1
  In  In64  1  -0.00445991  0.51059745  0.16146912  1
  In  In65  1  0.48000222  -0.01147588  0.51533496  1
  In  In66  1  0.82287284  0.49310585  0.34777473  1
  In  In67  1  0.16467062  0.00929019  0.83517872  1
  In  In68  1  0.31814865  0.51821174  0.81868619  1
  In  In69  1  0.66094517  0.00240668  0.32094451  1
  In  In70  1  0.51031122  0.32954956  0.50379767  1
  In  In71  1  0.33642323  0.16345437  0.15561065  1
  Te  Te72  1  0.08673583  0.08802762  0.07979807  1
  Te  Te73  1  0.09739880  0.07329204  0.43184736  1
  Te  Te74  1  0.07716074  0.10655440  0.75925937  1
  Te  Te75  1  0.08954678  0.42984830  0.07051375  1
  Te  Te76  1  0.08313128  0.42515097  0.42995973  1
  Te  Te77  1  0.06182066  0.42144633  0.74203742  1
  Te  Te78  1  0.11567562  0.73219286  0.08822512  1
  Te  Te79  1  0.09576976  0.74135255  0.43708125  1
  Te  Te80  1  0.10539320  0.73775784  0.76173794  1
  Te  Te81  1  0.40238927  0.05452224  0.07891008  1
  Te  Te82  1  0.42941838  0.08619713  0.40991691  1
  Te  Te83  1  0.43407597  0.08230964  0.73722650  1
  Te  Te84  1  0.42113894  0.42677629  0.09217971  1
  Te  Te85  1  0.40963764  0.41837788  0.41539714  1
  Te  Te86  1  0.42661993  0.43865101  0.73958824  1
  Te  Te87  1  0.41039036  0.75586553  0.07007289  1
  Te  Te88  1  0.37013040  0.74621945  0.42126733  1
  Te  Te89  1  0.38434855  0.79302560  0.76903084  1
  Te  Te90  1  0.74130085  0.07732782  0.10030639  1
  Te  Te91  1  0.75409846  0.09229212  0.40536367  1
  Te  Te92  1  0.75916133  0.08926267  0.74429911  1
  Te  Te93  1  0.75350710  0.40670548  0.12111070  1
  Te  Te94  1  0.72864204  0.40956422  0.42542984  1
  Te  Te95  1  0.75160367  0.40698319  0.76289538  1
  Te  Te96  1  0.75318037  0.74573668  0.08024380  1
  Te  Te97  1  0.76652188  0.75880487  0.39388870  1
  Te  Te98  1  0.74273333  0.75330672  0.74520053  1
  Te  Te99  1  0.09492961  0.22942870  0.26687820  1
  Te  Te100  1  0.07754469  0.26993281  0.58807403  1
  Te  Te101  1  0.08709787  0.22937001  0.91681363  1
  Te  Te102  1  0.09581400  0.58984411  0.24368210  1
  Te  Te103  1  0.09700463  0.58214578  0.56817608  1
  Te  Te104  1  0.13052456  0.59588909  0.92278950  1
  Te  Te105  1  0.07960818  0.91294225  0.25154854  1
  Te  Te106  1  0.08254698  0.93094817  0.61797448  1
  Te  Te107  1  0.08611855  0.90285305  0.91493099  1
  Te  Te108  1  0.42648850  0.23804709  0.25482982  1
  Te  Te109  1  0.42615951  0.23395474  0.58997868  1
  Te  Te110  1  0.41016619  0.24994816  0.91677316  1
  Te  Te111  1  0.40062346  0.60352602  0.26188174  1
  Te  Te112  1  0.40397806  0.60704824  0.61338332  1
  Te  Te113  1  0.38379835  0.60409144  0.92556903  1
  Te  Te114  1  0.42638165  0.92382844  0.24364953  1
  Te  Te115  1  0.38802587  0.88036514  0.57151017  1
  Te  Te116  1  0.42771426  0.87558863  0.88012278  1
  Te  Te117  1  0.76178752  0.29313708  0.23141393  1
  Te  Te118  1  0.77158845  0.24198822  0.59299149  1
  Te  Te119  1  0.76196909  0.25263302  0.90944116  1
  Te  Te120  1  0.74726618  0.58068197  0.24660403  1
  Te  Te121  1  0.74101785  0.57086413  0.57415644  1
  Te  Te122  1  0.74526958  0.57741104  0.92562633  1
  Te  Te123  1  0.75773992  0.91135062  0.25437703  1
  Te  Te124  1  0.74024270  0.91479099  0.56822819  1
  Te  Te125  1  0.74545488  0.91604466  0.91340287  1
  Te  Te126  1  0.23307976  0.24576223  0.07622566  1
  Te  Te127  1  0.22704714  0.25012715  0.42591026  1
  Te  Te128  1  0.26134694  0.26217854  0.75744471  1
  Te  Te129  1  0.22304819  0.60609962  0.04975249  1
  Te  Te130  1  0.25250286  0.59666230  0.41649489  1
  Te  Te131  1  0.23909335  0.61446772  0.73668942  1
  Te  Te132  1  0.25558898  0.91721987  0.06712044  1
  Te  Te133  1  0.23769411  0.92281972  0.43791302  1
  Te  Te134  1  0.25831541  0.90592267  0.77259588  1
  Te  Te135  1  0.58587043  0.24432482  0.06776929  1
  Te  Te136  1  0.58471933  0.25172797  0.40204784  1
  Te  Te137  1  0.58931490  0.23832876  0.73858211  1
  Te  Te138  1  0.59416052  0.56103420  0.09926352  1
  Te  Te139  1  0.57249786  0.57569993  0.43262417  1
  Te  Te140  1  0.55048527  0.61572749  0.77080785  1
  Te  Te141  1  0.55619381  0.90304611  0.07005291  1
  Te  Te142  1  0.58186664  0.90617176  0.42413715  1
  Te  Te143  1  0.54689108  0.90880540  0.73842030  1
  Te  Te144  1  0.91452480  0.26607037  0.09316607  1
  Te  Te145  1  0.90733932  0.23065336  0.40384405  1
  Te  Te146  1  0.96141441  0.21023342  0.71507988  1
  Te  Te147  1  0.93620925  0.60189049  0.05251148  1
  Te  Te148  1  0.93266618  0.56543223  0.42830177  1
  Te  Te149  1  0.90560818  0.58622063  0.75011728  1
  Te  Te150  1  0.90309839  0.93218838  0.09993088  1
  Te  Te151  1  0.91717520  0.91133444  0.41954757  1
  Te  Te152  1  0.94532863  0.91092976  0.75704270  1
  Te  Te153  1  0.24964792  0.09063831  0.26111926  1
  Te  Te154  1  0.24768438  0.06990958  0.58155044  1
  Te  Te155  1  0.25397092  0.07287826  0.93641686  1
  Te  Te156  1  0.26600656  0.41593953  0.23327563  1
  Te  Te157  1  0.24180605  0.40713885  0.56469221  1
  Te  Te158  1  0.23674835  0.42972501  0.91685078  1
  Te  Te159  1  0.24345722  0.73159303  0.24651458  1
  Te  Te160  1  0.28162165  0.76646005  0.56701849  1
  Te  Te161  1  0.30088235  0.74895045  0.89503959  1
  Te  Te162  1  0.57355392  0.07825736  0.22945324  1
  Te  Te163  1  0.58609758  0.07847775  0.58082656  1
  Te  Te164  1  0.55674590  0.05629397  0.89630483  1
  Te  Te165  1  0.60378977  0.40158847  0.27683237  1
  Te  Te166  1  0.57095417  0.43193056  0.59258177  1
  Te  Te167  1  0.57970553  0.42063433  0.91146184  1
  Te  Te168  1  0.57538147  0.74838940  0.25094901  1
  Te  Te169  1  0.55542095  0.76299548  0.60245509  1
  Te  Te170  1  0.54644171  0.75594322  0.92688289  1
  Te  Te171  1  0.89420465  0.08212636  0.25121629  1
  Te  Te172  1  0.93029183  0.08206654  0.60554153  1
  Te  Te173  1  0.92434635  0.09759974  0.91373658  1
  Te  Te174  1  0.92210346  0.41750471  0.25656691  1
  Te  Te175  1  0.93592950  0.40174235  0.58456737  1
  Te  Te176  1  0.91415369  0.42297502  0.90741902  1
  Te  Te177  1  0.92683921  0.76154838  0.24815872  1
  Te  Te178  1  0.91177304  0.74867828  0.58667413  1
  Te  Te179  1  0.94573061  0.75290227  0.91423291  1
