# generated using pymatgen
data_In2Te3
_symmetry_space_group_name_H-M   'P 1'
_cell_length_a   18.78557426
_cell_length_b   18.77834602
_cell_length_c   18.78145797
_cell_angle_alpha   90.03046415
_cell_angle_beta   89.93542791
_cell_angle_gamma   90.03626650
_symmetry_Int_Tables_number   1
_chemical_formula_structural   In2Te3
_chemical_formula_sum   'In72 Te108'
_cell_volume   6625.37846089
_cell_formula_units_Z   36
loop_
 _symmetry_equiv_pos_site_id
 _symmetry_equiv_pos_as_xyz
  1  'x, y, z'
loop_
 _atom_site_type_symbol
 _atom_site_label
 _atom_site_symmetry_multiplicity
 _atom_site_fract_x
 _atom_site_fract_y
 _atom_site_fract_z
 _atom_site_occupancy
  In  In0  1  0.51996366  0.49466198  -0.00228141  1
  In  In1  1  0.67310566  -0.00336386  0.00304908  1
  In  In2  1  0.51003004  0.00718658  0.16386318  1
  In  In3  1  0.83767078  0.83342270  0.35140059  1
  In  In4  1  0.83378367  0.49284187  0.34136891  1
  In  In5  1  0.82793364  0.67004534  0.16443478  1
  In  In6  1  0.67717274  0.82845511  0.16600197  1
  In  In7  1  0.17397629  0.67791468  0.48977411  1
  In  In8  1  0.67627464  0.16350042  0.50600599  1
  In  In9  1  0.34115532  -0.01392409  -0.02711341  1
  In  In10  1  0.14517547  0.85821793  -0.03862527  1
  In  In11  1  0.35150049  0.51343724  0.18355454  1
  In  In12  1  0.16432647  0.64719737  0.18331773  1
  In  In13  1  -0.01873262  0.17982338  0.83735281  1
  In  In14  1  0.50086263  0.63399874  0.48874514  1
  In  In15  1  0.15680160  0.15140734  -0.00673970  1
  In  In16  1  0.30625964  0.86109423  0.80480248  1
  In  In17  1  0.31712459  0.18387993  0.51020828  1
  In  In18  1  0.31960917  0.83224026  0.51551024  1
  In  In19  1  0.35461529  0.68792108  0.00366665  1
  In  In20  1  0.84287001  0.00573676  0.48101734  1
  In  In21  1  0.16700035  0.50705714  0.34828121  1
  In  In22  1  -0.00651117  0.32753144  0.34443122  1
  In  In23  1  0.51908757  0.17292699  0.02227904  1
  In  In24  1  0.65651073  0.35572219  0.66357148  1
  In  In25  1  0.84959132  0.00135741  0.80055011  1
  In  In26  1  0.82405959  0.33613570  0.83167478  1
  In  In27  1  0.00792666  0.83791291  0.17061905  1
  In  In28  1  0.33423993  0.34299203  -0.00263496  1
  In  In29  1  0.50407248  0.67575329  0.81123827  1
  In  In30  1  0.03037102  -0.00606093  0.64182632  1
  In  In31  1  0.32319372  -0.01193151  0.34873343  1
  In  In32  1  0.85003217  0.82042287  0.00915821  1
  In  In33  1  0.83472000  0.66204760  0.52222647  1
  In  In34  1  0.85762794  0.01514521  0.20365496  1
  In  In35  1  0.35028167  0.81181538  0.13286499  1
  In  In36  1  -0.01733381  0.48602084  0.51007884  1
  In  In37  1  0.00130697  0.66257734  0.67100900  1
  In  In38  1  0.15203802  0.17081161  0.64866100  1
  In  In39  1  0.66761768  0.81954312  0.83387719  1
  In  In40  1  0.00711507  0.65830180  -0.00156325  1
  In  In41  1  0.13796068  0.34267226  0.79396363  1
  In  In42  1  0.33053762  0.64248983  0.34437374  1
  In  In43  1  0.82074931  0.18561969  0.67637846  1
  In  In44  1  0.16189267  0.83557214  0.33621164  1
  In  In45  1  0.50518904  0.34295827  0.83906955  1
  In  In46  1  0.66272134  0.48552497  0.17556119  1
  In  In47  1  0.16242610  0.17459499  0.36845248  1
  In  In48  1  0.47424860  0.83488180  0.67051287  1
  In  In49  1  0.48434073  0.18130466  0.65662648  1
  In  In50  1  0.68413340  0.34123220  0.33960738  1
  In  In51  1  0.83351132  0.49607440  -0.01625711  1
  In  In52  1  0.66196729  0.63136225  0.65154467  1
  In  In53  1  0.48034157  -0.00440175  0.84673779  1
  In  In54  1  0.14736723  0.33481387  0.18443622  1
  In  In55  1  -0.00042129  0.19009330  0.51089502  1
  In  In56  1  0.67908330  0.02336635  0.67086879  1
  In  In57  1  0.65974192  0.83804378  0.49386021  1
  In  In58  1  0.51692467  0.83927047  0.33356971  1
  In  In59  1  0.14962361  0.49514952  0.00112409  1
  In  In60  1  0.48845556  0.49434093  0.65052666  1
  In  In61  1  0.14692156  0.00700502  0.15736285  1
  In  In62  1  0.84476727  0.64691003  0.83239920  1
  In  In63  1  0.17154634  0.64264231  0.81836184  1
  In  In64  1  0.49434370  0.18481263  0.34044038  1
  In  In65  1  0.83212841  0.18833922  -0.00857918  1
  In  In66  1  0.34338959  0.18785270  0.19243227  1
  In  In67  1  0.85964774  0.83287676  0.67403797  1
  In  In68  1  0.83966573  0.32308328  0.16476711  1
  In  In69  1  0.32827187  0.50921651  0.80403357  1
  In  In70  1  0.30944959  0.17002903  0.81962941  1
  In  In71  1  0.66815832  0.18880329  0.17544408  1
  Te  Te72  1  0.05331803  0.09093229  0.07979991  1
  Te  Te73  1  0.07817859  0.08207422  0.44610032  1
  Te  Te74  1  0.07536260  0.09127035  0.75274775  1
  Te  Te75  1  0.06571503  0.40969587  0.08670017  1
  Te  Te76  1  0.09205884  0.40354142  0.43408999  1
  Te  Te77  1  0.05799309  0.43228656  0.70875719  1
  Te  Te78  1  0.09863032  0.74911081  0.08496959  1
  Te  Te79  1  0.07489399  0.73320812  0.39609098  1
  Te  Te80  1  0.09030830  0.74892182  0.75443798  1
  Te  Te81  1  0.40201090  0.08474990  0.08006212  1
  Te  Te82  1  0.40880245  0.08856576  0.42371693  1
  Te  Te83  1  0.40619268  0.07830806  0.74265861  1
  Te  Te84  1  0.42703381  0.41425628  0.09272985  1
  Te  Te85  1  0.39188926  0.38998692  0.44449953  1
  Te  Te86  1  0.40610075  0.39609350  0.73818073  1
  Te  Te87  1  0.45532006  0.70865291  0.11161869  1
  Te  Te88  1  0.41349330  0.75341193  0.41932342  1
  Te  Te89  1  0.38355645  0.73770908  0.74418264  1
  Te  Te90  1  0.75515131  0.08533041  0.09620160  1
  Te  Te91  1  0.75067240  0.08739886  0.40274612  1
  Te  Te92  1  0.74116827  0.10852278  0.78083458  1
  Te  Te93  1  0.74826081  0.40654664  0.07737227  1
  Te  Te94  1  0.75243996  0.42456532  0.44564957  1
  Te  Te95  1  0.75339284  0.43344686  0.74474901  1
  Te  Te96  1  0.73680825  0.73302218  0.05948580  1
  Te  Te97  1  0.74312119  0.73358374  0.42073172  1
  Te  Te98  1  0.74994733  0.73987369  0.73022360  1
  Te  Te99  1  0.06349637  0.21961103  0.25030702  1
  Te  Te100  1  0.10494008  0.28278941  0.56234895  1
  Te  Te101  1  0.08458785  0.26232422  0.91431302  1
  Te  Te102  1  0.06744624  0.56362674  0.25359404  1
  Te  Te103  1  0.08668729  0.57973594  0.57325925  1
  Te  Te104  1  0.06376809  0.56205883  0.89404499  1
  Te  Te105  1  0.06859986  0.93777100  0.26913299  1
  Te  Te106  1  0.11812945  0.87811505  0.60825842  1
  Te  Te107  1  0.04910818  0.94554330  0.89981831  1
  Te  Te108  1  0.42916536  0.28839354  0.25569371  1
  Te  Te109  1  0.42254504  0.28220593  0.56294251  1
  Te  Te110  1  0.41149631  0.23552906  0.91678035  1
  Te  Te111  1  0.44818165  0.57418340  0.28130322  1
  Te  Te112  1  0.40352012  0.60273075  0.59563693  1
  Te  Te113  1  0.41347575  0.57403069  0.91307454  1
  Te  Te114  1  0.40729854  0.91851059  0.23970913  1
  Te  Te115  1  0.42235603  0.92534135  0.56803461  1
  Te  Te116  1  0.42286609  0.87316007  0.91516810  1
  Te  Te117  1  0.77530287  0.23692695  0.27272479  1
  Te  Te118  1  0.75831004  0.27378472  0.57253013  1
  Te  Te119  1  0.72690356  0.26338753  0.92032342  1
  Te  Te120  1  0.74447961  0.58569694  0.25964047  1
  Te  Te121  1  0.74731311  0.54650991  0.56256918  1
  Te  Te122  1  0.74024046  0.59197074  0.91931580  1
  Te  Te123  1  0.75075567  0.92284902  0.26193512  1
  Te  Te124  1  0.75330717  0.91366118  0.59185124  1
  Te  Te125  1  0.76513677  0.91519006  0.90823469  1
  Te  Te126  1  0.24559333  0.25087136  0.08400863  1
  Te  Te127  1  0.26614607  0.27690171  0.40275031  1
  Te  Te128  1  0.25148971  0.26955074  0.72201293  1
  Te  Te129  1  0.25692926  0.57811346  0.07443637  1
  Te  Te130  1  0.27412556  0.55554987  0.45767655  1
  Te  Te131  1  0.22527856  0.55490784  0.70990992  1
  Te  Te132  1  0.24569736  0.91816793  0.07987687  1
  Te  Te133  1  0.22094881  0.92768630  0.44225380  1
  Te  Te134  1  0.22877602  0.93769153  0.70291263  1
  Te  Te135  1  0.57663789  0.27976944  0.10416820  1
  Te  Te136  1  0.58682423  0.26324409  0.43219585  1
  Te  Te137  1  0.58564742  0.24764790  0.74832340  1
  Te  Te138  1  0.58267683  0.58506375  0.09753051  1
  Te  Te139  1  0.57287087  0.54756418  0.39509760  1
  Te  Te140  1  0.58503555  0.55880949  0.76051389  1
  Te  Te141  1  0.57419821  0.90402455  0.07354666  1
  Te  Te142  1  0.58122860  0.93866678  0.42072587  1
  Te  Te143  1  0.58693480  0.92160666  0.74927404  1
  Te  Te144  1  0.93493706  0.25227089  0.07564622  1
  Te  Te145  1  0.89602652  0.25883794  0.43199905  1
  Te  Te146  1  0.93790437  0.27092635  0.72265830  1
  Te  Te147  1  0.91922497  0.57454485  0.08876319  1
  Te  Te148  1  0.92285387  0.59081181  0.41754217  1
  Te  Te149  1  0.90384206  0.56204992  0.72593626  1
  Te  Te150  1  0.91984230  0.92897886  0.08669516  1
  Te  Te151  1  0.94041571  0.91056604  0.42637897  1
  Te  Te152  1  0.96228557  0.90535866  0.76190468  1
  Te  Te153  1  0.24626233  0.08597319  0.25511299  1
  Te  Te154  1  0.25555731  0.07595309  0.59616451  1
  Te  Te155  1  0.23296056  0.06168117  0.89571210  1
  Te  Te156  1  0.25352888  0.41972691  0.25542154  1
  Te  Te157  1  0.30061958  0.43019553  0.54936264  1
  Te  Te158  1  0.24195614  0.41456847  0.89969172  1
  Te  Te159  1  0.26173789  0.75154981  0.25175359  1
  Te  Te160  1  0.22981150  0.75360823  0.60717599  1
  Te  Te161  1  0.24333231  0.74992279  0.91392303  1
  Te  Te162  1  0.58900200  0.08861148  0.26193326  1
  Te  Te163  1  0.57112696  0.07907780  0.58025347  1
  Te  Te164  1  0.58446805  0.08532594  0.91521292  1
  Te  Te165  1  0.57308826  0.42531195  0.28218994  1
  Te  Te166  1  0.57882578  0.42484001  0.55624091  1
  Te  Te167  1  0.61088274  0.40691725  0.91903026  1
  Te  Te168  1  0.59965227  0.74376966  0.25904472  1
  Te  Te169  1  0.57737149  0.74341478  0.58718165  1
  Te  Te170  1  0.57899795  0.74002328  0.92027386  1
  Te  Te171  1  0.95746295  0.10238628  0.26503010  1
  Te  Te172  1  0.90435709  0.07730524  0.60360053  1
  Te  Te173  1  0.91094650  0.07388855  0.92222547  1
  Te  Te174  1  0.92637746  0.42123362  0.24417981  1
  Te  Te175  1  0.93276444  0.40279948  0.62422085  1
  Te  Te176  1  0.92642060  0.40653183  0.91188100  1
  Te  Te177  1  0.92299899  0.74542987  0.25634701  1
  Te  Te178  1  0.94042496  0.76315094  0.56698961  1
  Te  Te179  1  0.93327655  0.75093693  0.90232523  1
