# generated using pymatgen
data_In2Te3
_symmetry_space_group_name_H-M   'P 1'
_cell_length_a   18.75349251
_cell_length_b   18.76072535
_cell_length_c   18.76658472
_cell_angle_alpha   90.00430559
_cell_angle_beta   89.98968758
_cell_angle_gamma   89.97192312
_symmetry_Int_Tables_number   1
_chemical_formula_structural   In2Te3
_chemical_formula_sum   'In72 Te108'
_cell_volume   6602.63011461
_cell_formula_units_Z   36
loop_
 _symmetry_equiv_pos_site_id
 _symmetry_equiv_pos_as_xyz
  1  'x, y, z'
loop_
 _atom_site_type_symbol
 _atom_site_label
 _atom_site_symmetry_multiplicity
 _atom_site_fract_x
 _atom_site_fract_y
 _atom_site_fract_z
 _atom_site_occupancy
  In  In0  1  0.52332514  0.86574976  0.03202002  1
  In  In1  1  -0.00023650  0.83795682  0.49950137  1
  In  In2  1  0.29714400  0.82590050  0.49146036  1
  In  In3  1  0.84872248  0.68223512  0.83506615  1
  In  In4  1  0.32271507  -0.00868083  0.00162611  1
  In  In5  1  0.31302993  0.80837290  0.19690849  1
  In  In6  1  0.33016178  0.52518275  0.82698933  1
  In  In7  1  0.49891920  0.66606726  0.15802039  1
  In  In8  1  0.49367465  0.34812475  0.16767398  1
  In  In9  1  0.32850427  0.00753510  0.68036188  1
  In  In10  1  0.67284854  0.65338951  0.01886323  1
  In  In11  1  -0.01080133  0.31931676  -0.00228909  1
  In  In12  1  0.69897466  0.65359952  0.31364013  1
  In  In13  1  -0.00714350  0.51170663  0.17747743  1
  In  In14  1  0.85846000  0.51663607  0.00020456  1
  In  In15  1  0.66259755  0.15260981  0.83158154  1
  In  In16  1  0.50007543  0.67466876  0.49862918  1
  In  In17  1  0.51412663  0.48395174  0.66147131  1
  In  In18  1  0.85200360  0.65542765  0.50138477  1
  In  In19  1  0.86936088  -0.03943941  0.81558449  1
  In  In20  1  0.51530010  0.83688419  0.67880482  1
  In  In21  1  0.49545222  0.65783663  0.83203695  1
  In  In22  1  0.52589825  0.31397905  0.84514610  1
  In  In23  1  0.68365511  0.33966038  0.35261525  1
  In  In24  1  0.84716206  0.36116531  0.49767137  1
  In  In25  1  0.32373748  0.15447750  0.84682392  1
  In  In26  1  -0.00222328  0.67303496  0.33137300  1
  In  In27  1  0.02616170  -0.01207772  -0.00578090  1
  In  In28  1  0.84696817  0.00901115  0.16745325  1
  In  In29  1  0.01757542  0.67840361  0.02834748  1
  In  In30  1  0.30878330  0.37035040  0.64499662  1
  In  In31  1  0.51000886  0.15646482  -0.00784945  1
  In  In32  1  0.31688231  0.66070287  0.65538548  1
  In  In33  1  0.49592000  0.50368605  0.34114714  1
  In  In34  1  0.83053668  0.81531059  0.00928775  1
  In  In35  1  0.84523945  0.82534628  0.32662362  1
  In  In36  1  0.70024874  0.36249643  0.69630992  1
  In  In37  1  0.31331354  0.82230556  0.86707552  1
  In  In38  1  0.83203423  -0.03510667  0.51430484  1
  In  In39  1  0.66472289  0.82569094  0.83492551  1
  In  In40  1  0.50102819  -0.00684908  0.50253989  1
  In  In41  1  0.68476704  0.35379365  0.00564791  1
  In  In42  1  0.16005680  0.68091433  0.81882729  1
  In  In43  1  0.15325853  0.32650511  0.83741030  1
  In  In44  1  0.50567183  0.13563786  0.63876614  1
  In  In45  1  0.85953781  0.35156310  0.15611667  1
  In  In46  1  0.31431737  0.67816450  -0.02224418  1
  In  In47  1  -0.00488956  0.16499816  0.82457380  1
  In  In48  1  0.65094817  0.16373563  0.50463916  1
  In  In49  1  0.00125646  0.33295302  0.64490026  1
  In  In50  1  0.15548475  0.14566214  0.67407111  1
  In  In51  1  0.68140585  0.00648154  0.33319584  1
  In  In52  1  0.16372731  0.83636965  0.66056534  1
  In  In53  1  0.17120037  0.32180550  0.17061156  1
  In  In54  1  0.28329457  0.52992728  0.46806777  1
  In  In55  1  0.32865932  0.17185450  0.14554574  1
  In  In56  1  0.32307672  0.49853658  0.17213006  1
  In  In57  1  0.18031602  0.51148417  0.00401518  1
  In  In58  1  0.66563679  0.14759266  0.18195869  1
  In  In59  1  0.81942792  0.17244854  0.01029103  1
  In  In60  1  0.31600753  0.16817708  0.49215998  1
  In  In61  1  0.15637059  0.17403621  0.32907450  1
  In  In62  1  0.51473891  0.32733301  0.50589342  1
  In  In63  1  0.49994512  0.83368739  0.33695359  1
  In  In64  1  0.68127073  0.66213814  0.66708488  1
  In  In65  1  0.86018905  0.16171355  0.32152466  1
  In  In66  1  -0.01190963  0.14785765  0.49311925  1
  In  In67  1  0.13684277  -0.01715433  0.18621257  1
  In  In68  1  0.32962808  0.34074974  0.32044250  1
  In  In69  1  0.83746588  0.15887923  0.65689768  1
  In  In70  1  -0.02714087  0.50591264  0.81282273  1
  In  In71  1  0.33507753  -0.01946194  0.34176093  1
  Te  Te72  1  0.09043028  0.08354189  0.08779387  1
  Te  Te73  1  0.09504363  0.07538370  0.42104218  1
  Te  Te74  1  0.06602666  0.05740426  0.75160214  1
  Te  Te75  1  0.07264522  0.42246656  0.07345814  1
  Te  Te76  1  0.06429296  0.45531404  0.45469235  1
  Te  Te77  1  0.08185161  0.42030566  0.74317807  1
  Te  Te78  1  0.11762538  0.76946495  0.08795940  1
  Te  Te79  1  0.09405725  0.75404981  0.41630711  1
  Te  Te80  1  0.05853645  0.75844673  0.74015092  1
  Te  Te81  1  0.42490309  0.06980600  0.08551291  1
  Te  Te82  1  0.41982382  0.08831753  0.41326853  1
  Te  Te83  1  0.43121224  0.08248669  0.76393053  1
  Te  Te84  1  0.39829680  0.41399224  0.07718703  1
  Te  Te85  1  0.40909926  0.41471084  0.43308719  1
  Te  Te86  1  0.41359931  0.41369062  0.75378398  1
  Te  Te87  1  0.40884274  0.76055557  0.07565485  1
  Te  Te88  1  0.39878836  0.74423953  0.40929188  1
  Te  Te89  1  0.39879984  0.74824585  0.75117635  1
  Te  Te90  1  0.72980077  0.06294603  0.07013132  1
  Te  Te91  1  0.77025748  0.09451384  0.42621481  1
  Te  Te92  1  0.76845937  0.06935564  0.75877029  1
  Te  Te93  1  0.75291801  0.45248800  0.10544887  1
  Te  Te94  1  0.76725786  0.44838981  0.40599175  1
  Te  Te95  1  0.79940415  0.43831374  0.77087714  1
  Te  Te96  1  0.73962649  0.75104129  0.10670997  1
  Te  Te97  1  0.75562234  0.74942850  0.42146943  1
  Te  Te98  1  0.76528862  0.76937298  0.73661543  1
  Te  Te99  1  0.06509190  0.26603554  0.25546246  1
  Te  Te100  1  0.09117645  0.23729008  0.56960756  1
  Te  Te101  1  0.08881321  0.22487973  0.93041972  1
  Te  Te102  1  0.09766073  0.59311130  0.24722333  1
  Te  Te103  1  0.06736133  0.56051200  0.55213946  1
  Te  Te104  1  0.07643882  0.57913931  0.91279513  1
  Te  Te105  1  0.03056010  0.91635510  0.26759698  1
  Te  Te106  1  0.08687428  0.93130402  0.57701000  1
  Te  Te107  1  0.11430395  0.92615863  0.89377006  1
  Te  Te108  1  0.42001362  0.24161064  0.24906175  1
  Te  Te109  1  0.40673839  0.24700687  0.58935726  1
  Te  Te110  1  0.41074793  0.25298129  0.92603901  1
  Te  Te111  1  0.40615125  0.59468607  0.25858416  1
  Te  Te112  1  0.41571208  0.57272357  0.57867153  1
  Te  Te113  1  0.42249857  0.57484189  0.93799726  1
  Te  Te114  1  0.41982844  0.91299083  0.23435187  1
  Te  Te115  1  0.40266568  0.90221471  0.58526926  1
  Te  Te116  1  0.42483626  0.91242054  0.91924447  1
  Te  Te117  1  0.75914406  0.25457079  0.24142587  1
  Te  Te118  1  0.75350766  0.25719455  0.57373764  1
  Te  Te119  1  0.74904049  0.25587700  0.90412828  1
  Te  Te120  1  0.76624489  0.56489944  0.21830520  1
  Te  Te121  1  0.75653496  0.57069209  0.58000585  1
  Te  Te122  1  0.75547911  0.58438477  0.90969663  1
  Te  Te123  1  0.75156324  0.91001462  0.23722326  1
  Te  Te124  1  0.72666857  0.92139550  0.60474166  1
  Te  Te125  1  0.76158778  0.91361199  0.91539207  1
  Te  Te126  1  0.24792948  0.26158040  0.06103914  1
  Te  Te127  1  0.23426365  0.27352212  0.41993649  1
  Te  Te128  1  0.25055904  0.24965210  0.73938116  1
  Te  Te129  1  0.24492219  0.61064136  0.09894900  1
  Te  Te130  1  0.21581029  0.61718420  0.36866987  1
  Te  Te131  1  0.22112535  0.56922866  0.73067874  1
  Te  Te132  1  0.24050662  0.90795872  0.10272203  1
  Te  Te133  1  0.21734849  0.91460976  0.40174702  1
  Te  Te134  1  0.24059656  0.91878551  0.76887231  1
  Te  Te135  1  0.59389739  0.25230813  0.08401702  1
  Te  Te136  1  0.57435149  0.23884792  0.39583822  1
  Te  Te137  1  0.58782842  0.24518806  0.72286388  1
  Te  Te138  1  0.57295189  0.56372666  0.08142391  1
  Te  Te139  1  0.59578791  0.58868318  0.41788850  1
  Te  Te140  1  0.59572847  0.56988248  0.75831516  1
  Te  Te141  1  0.61476254  0.94507675  0.11319943  1
  Te  Te142  1  0.60110453  0.90892349  0.42261343  1
  Te  Te143  1  0.57830465  0.93104054  0.77255434  1
  Te  Te144  1  0.92897039  0.22554338  0.10211542  1
  Te  Te145  1  0.93112465  0.26491746  0.41133433  1
  Te  Te146  1  0.90876571  0.26227651  0.74498584  1
  Te  Te147  1  0.90121762  0.61617465  0.10819805  1
  Te  Te148  1  0.92586400  0.56409885  0.40596269  1
  Te  Te149  1  0.90933465  0.60383591  0.72338428  1
  Te  Te150  1  0.92819342  0.90978774  0.08264191  1
  Te  Te151  1  0.92958013  0.93599594  0.39210261  1
  Te  Te152  1  0.94224595  0.86828353  0.72394795  1
  Te  Te153  1  0.25505961  0.08422938  0.24925468  1
  Te  Te154  1  0.23871748  0.06318991  0.57090132  1
  Te  Te155  1  0.22578723  0.06812082  0.91730645  1
  Te  Te156  1  0.22034673  0.43176939  0.26491481  1
  Te  Te157  1  0.20109293  0.44111128  0.56134093  1
  Te  Te158  1  0.25411945  0.41760246  0.90839988  1
  Te  Te159  1  0.21122398  0.75613257  0.29290121  1
  Te  Te160  1  0.21111530  0.72181931  0.56654672  1
  Te  Te161  1  0.18513974  0.77355970  0.94814030  1
  Te  Te162  1  0.56812742  0.06150201  0.25245939  1
  Te  Te163  1  0.62355406  0.04087682  0.59728783  1
  Te  Te164  1  0.58524150  0.05626539  0.91294872  1
  Te  Te165  1  0.59259891  0.42316213  0.25542148  1
  Te  Te166  1  0.61644889  0.41869436  0.57090645  1
  Te  Te167  1  0.58878559  0.42517697  0.91764310  1
  Te  Te168  1  0.59042035  0.74805671  0.24876443  1
  Te  Te169  1  0.59834298  0.75912216  0.57813298  1
  Te  Te170  1  0.57116598  0.74810574  0.93037938  1
  Te  Te171  1  0.95691644  0.07215227  0.25006375  1
  Te  Te172  1  0.92871564  0.05206422  0.59757282  1
  Te  Te173  1  0.90732373  0.08006768  0.92204771  1
  Te  Te174  1  0.92372067  0.41889920  0.27117595  1
  Te  Te175  1  0.93929243  0.45470289  0.57701788  1
  Te  Te176  1  0.89997917  0.40130160  0.90519294  1
  Te  Te177  1  0.94056579  0.76629200  0.22760635  1
  Te  Te178  1  0.91092363  0.76136242  0.59273484  1
  Te  Te179  1  0.94527078  0.76235077  0.92187405  1
