# generated using pymatgen
data_In2Te3
_symmetry_space_group_name_H-M   'P 1'
_cell_length_a   19.00685142
_cell_length_b   18.98210970
_cell_length_c   18.95898158
_cell_angle_alpha   89.79398363
_cell_angle_beta   90.05560118
_cell_angle_gamma   90.14268606
_symmetry_Int_Tables_number   1
_chemical_formula_structural   In2Te3
_chemical_formula_sum   'In72 Te108'
_cell_volume   6840.14500520
_cell_formula_units_Z   36
loop_
 _symmetry_equiv_pos_site_id
 _symmetry_equiv_pos_as_xyz
  1  'x, y, z'
loop_
 _atom_site_type_symbol
 _atom_site_label
 _atom_site_symmetry_multiplicity
 _atom_site_fract_x
 _atom_site_fract_y
 _atom_site_fract_z
 _atom_site_occupancy
  In  In0  1  0.00084395  0.32526529  0.36126015  1
  In  In1  1  0.13951565  0.15681876  0.36268455  1
  In  In2  1  0.47467624  -0.02856036  0.45734192  1
  In  In3  1  0.84923127  0.67429815  0.51469834  1
  In  In4  1  0.16249876  0.15192774  -0.01477083  1
  In  In5  1  0.15640015  0.82972448  0.01697851  1
  In  In6  1  0.48479847  0.69876928  0.13780527  1
  In  In7  1  0.66615392  0.82600086  0.13810056  1
  In  In8  1  0.33080528  0.15974082  0.50658557  1
  In  In9  1  0.67168320  -0.02175484  0.31293388  1
  In  In10  1  0.30444405  0.00858951  0.66832882  1
  In  In11  1  0.86544389  0.12807779  0.31387134  1
  In  In12  1  0.67174221  0.49551549  0.49667517  1
  In  In13  1  0.68135349  0.80785687  0.52042574  1
  In  In14  1  0.30186167  0.69274111  0.33183416  1
  In  In15  1  0.67280544  0.34149827  -0.01670143  1
  In  In16  1  0.66186297  0.18312283  0.49845072  1
  In  In17  1  0.83316357  0.51049025  0.34443941  1
  In  In18  1  0.04736277  0.67087972  0.34051922  1
  In  In19  1  0.82459156  0.34721157  0.14634331  1
  In  In20  1  0.31064640  0.19190534  0.79563202  1
  In  In21  1  0.00084197  0.52034260  0.17990650  1
  In  In22  1  0.65026307  0.00073824  0.67540007  1
  In  In23  1  -0.05823427  0.70028870  0.70257751  1
  In  In24  1  -0.00679756  0.32704977  0.00496395  1
  In  In25  1  0.16040599  0.68968224  0.85882385  1
  In  In26  1  0.35890851  0.32082721  0.33910339  1
  In  In27  1  0.36158065  0.65497983  0.66592599  1
  In  In28  1  0.00113335  0.84395599  0.18739547  1
  In  In29  1  0.13802028  -0.00055779  0.16526758  1
  In  In30  1  0.50180803  0.51246261  0.00978087  1
  In  In31  1  0.00856326  0.35327252  0.68221442  1
  In  In32  1  0.31642723  0.83123515  0.49359014  1
  In  In33  1  0.01985226  0.47863835  0.51419304  1
  In  In34  1  0.82801384  0.00888035  0.81510224  1
  In  In35  1  0.30809266  0.13435727  0.14316831  1
  In  In36  1  0.49201950  0.33289444  0.15552831  1
  In  In37  1  0.81854901  0.00887793  0.51655275  1
  In  In38  1  0.47262728  0.81721906  0.31538906  1
  In  In39  1  0.50871674  0.66800331  0.85236440  1
  In  In40  1  -0.00653560  0.16365263  0.53909587  1
  In  In41  1  0.83891321  0.32806483  0.84491559  1
  In  In42  1  -0.00090035  0.85795531  0.83649544  1
  In  In43  1  0.81284820  0.67187798  0.17334307  1
  In  In44  1  0.27629345  -0.08860641  0.30497247  1
  In  In45  1  0.16746653  0.49865284  0.67186270  1
  In  In46  1  0.68888530  0.13920309  0.14802163  1
  In  In47  1  0.49996436  -0.01669987  0.83186592  1
  In  In48  1  0.50693496  0.82915210  0.66759485  1
  In  In49  1  -0.00971626  -0.00761451  0.00351810  1
  In  In50  1  0.82392250  0.83403874  0.33689686  1
  In  In51  1  0.34694644  -0.01946993  -0.02704214  1
  In  In52  1  0.16960135  0.32006540  0.18562762  1
  In  In53  1  0.68310376  -0.00896297  -0.01168086  1
  In  In54  1  0.68045476  0.35644299  0.30700652  1
  In  In55  1  0.52533877  0.17045903  0.66648843  1
  In  In56  1  0.49158551  0.35646511  0.80996551  1
  In  In57  1  0.33423874  0.49477560  0.82821606  1
  In  In58  1  0.69206725  0.32310909  0.66792739  1
  In  In59  1  0.67303103  0.67836064  0.72305729  1
  In  In60  1  0.80571440  0.53865048  -0.02634223  1
  In  In61  1  0.03229056  0.15333650  0.80337840  1
  In  In62  1  0.15977141  0.68102154  0.51360305  1
  In  In63  1  -0.00224231  0.72254489  0.01739787  1
  In  In64  1  0.84965885  0.50263798  0.68364102  1
  In  In65  1  0.35174094  0.50417990  0.15695443  1
  In  In66  1  0.49362841  0.17567731  -0.02864187  1
  In  In67  1  0.14358170  0.91568704  0.68773144  1
  In  In68  1  0.48816126  0.49514841  0.33896365  1
  In  In69  1  0.18323548  0.50268909  -0.00299089  1
  In  In70  1  0.53399046  0.16544907  0.31277895  1
  In  In71  1  0.48491927  0.35508273  0.50476807  1
  Te  Te72  1  0.06042195  0.10116646  0.08472066  1
  Te  Te73  1  0.07132716  0.06621676  0.45756976  1
  Te  Te74  1  0.11760044  0.06419006  0.72215060  1
  Te  Te75  1  0.08008260  0.41176145  0.09924652  1
  Te  Te76  1  0.10348497  0.41633400  0.41132372  1
  Te  Te77  1  0.06902888  0.45165348  0.77493215  1
  Te  Te78  1  0.10172681  0.74382607  0.13199657  1
  Te  Te79  1  0.09442466  0.78041421  0.42504498  1
  Te  Te80  1  0.08454970  0.76478112  0.75115923  1
  Te  Te81  1  0.42362526  0.07731709  0.06328923  1
  Te  Te82  1  0.42507161  0.09935470  0.39845787  1
  Te  Te83  1  0.42488699  0.08736236  0.74623567  1
  Te  Te84  1  0.40435212  0.40312242  0.05628776  1
  Te  Te85  1  0.38142542  0.43917809  0.43402147  1
  Te  Te86  1  0.39381578  0.41883629  0.71195956  1
  Te  Te87  1  0.40495776  0.77257434  0.03970535  1
  Te  Te88  1  0.41609968  0.73898630  0.43059359  1
  Te  Te89  1  0.41718592  0.75567214  0.76460730  1
  Te  Te90  1  0.78302114  0.05786099  0.07450393  1
  Te  Te91  1  0.73488393  0.08550294  0.39941590  1
  Te  Te92  1  0.74202669  0.09999344  0.73318561  1
  Te  Te93  1  0.73489856  0.44544268  0.07449365  1
  Te  Te94  1  0.76401656  0.39906689  0.42535229  1
  Te  Te95  1  0.74965710  0.42280850  0.76573564  1
  Te  Te96  1  0.75508587  0.74159164  0.05566328  1
  Te  Te97  1  0.74835255  0.72593759  0.41268269  1
  Te  Te98  1  0.80495526  0.73554665  0.75837669  1
  Te  Te99  1  0.06465296  0.23569384  0.25555498  1
  Te  Te100  1  0.08886811  0.27270424  0.58301703  1
  Te  Te101  1  0.08403011  0.25494821  0.90711332  1
  Te  Te102  1  0.10710177  0.55462243  0.27523468  1
  Te  Te103  1  0.07030537  0.59240276  0.59909960  1
  Te  Te104  1  0.07959086  0.60496805  0.95382982  1
  Te  Te105  1  0.06962936  0.93510764  0.28357964  1
  Te  Te106  1  0.12645000  0.92246845  0.54154703  1
  Te  Te107  1  0.10044594  0.93255684  0.92002581  1
  Te  Te108  1  0.41041380  0.22655756  0.22706901  1
  Te  Te109  1  0.41904380  0.25008780  0.59189463  1
  Te  Te110  1  0.40093519  0.26658342  0.89361322  1
  Te  Te111  1  0.41925115  0.60346042  0.24912214  1
  Te  Te112  1  0.39465928  0.52885405  0.60356935  1
  Te  Te113  1  0.40152711  0.58852471  0.92672337  1
  Te  Te114  1  0.40606459  0.92080709  0.23956372  1
  Te  Te115  1  0.41555685  0.92476888  0.58895278  1
  Te  Te116  1  0.45631115  0.88066656  0.93691477  1
  Te  Te117  1  0.75475233  0.24051566  0.24512753  1
  Te  Te118  1  0.76335324  0.21236434  0.60069212  1
  Te  Te119  1  0.76180283  0.23864013  0.93288028  1
  Te  Te120  1  0.73912628  0.57108328  0.25127645  1
  Te  Te121  1  0.75668028  0.58212583  0.59255821  1
  Te  Te122  1  0.73086072  0.61729130  0.86757212  1
  Te  Te123  1  0.76649348  0.91054475  0.21881740  1
  Te  Te124  1  0.75015362  0.90649929  0.60890424  1
  Te  Te125  1  0.74960798  0.90783518  0.88752369  1
  Te  Te126  1  0.24321327  0.25009145  0.07249452  1
  Te  Te127  1  0.24895699  0.25143600  0.41709664  1
  Te  Te128  1  0.21072689  0.26392846  0.71470009  1
  Te  Te129  1  0.25017232  0.58737881  0.09442850  1
  Te  Te130  1  0.24409227  0.59814140  0.42588511  1
  Te  Te131  1  0.24252229  0.60329843  0.76224697  1
  Te  Te132  1  0.24517116  0.93681201  0.07931818  1
  Te  Te133  1  0.24592489  0.95418769  0.44523645  1
  Te  Te134  1  0.26703549  0.90708895  0.76633005  1
  Te  Te135  1  0.58958973  0.24492507  0.08053785  1
  Te  Te136  1  0.57821511  0.28086558  0.40340703  1
  Te  Te137  1  0.59666088  0.25609728  0.76764197  1
  Te  Te138  1  0.59031975  0.61617553  0.07034945  1
  Te  Te139  1  0.57746068  0.57653520  0.42058075  1
  Te  Te140  1  0.56499499  0.58345209  0.74581609  1
  Te  Te141  1  0.57797185  0.91237101  0.05794127  1
  Te  Te142  1  0.59887829  0.89552974  0.41994360  1
  Te  Te143  1  0.60237009  0.88898526  0.76922716  1
  Te  Te144  1  0.89773130  0.24182224  0.07774173  1
  Te  Te145  1  0.90746648  0.22180753  0.42273291  1
  Te  Te146  1  0.92393732  0.24705026  0.74916598  1
  Te  Te147  1  0.91021446  0.59071069  0.08055375  1
  Te  Te148  1  0.93887547  0.58337076  0.42446329  1
  Te  Te149  1  0.94933263  0.56786789  0.77134344  1
  Te  Te150  1  0.92867631  0.86764011  0.05973030  1
  Te  Te151  1  0.89643854  0.92202278  0.42800717  1
  Te  Te152  1  0.92948600  0.93753189  0.73123953  1
  Te  Te153  1  0.23155426  0.08223535  0.26118915  1
  Te  Te154  1  0.22584863  0.12034314  0.60731823  1
  Te  Te155  1  0.26549959  0.08696206  0.89671991  1
  Te  Te156  1  0.27371407  0.40900086  0.24959598  1
  Te  Te157  1  0.21546048  0.37491946  0.60599430  1
  Te  Te158  1  0.23312136  0.41197999  0.89488080  1
  Te  Te159  1  0.23825748  0.78460901  0.23805676  1
  Te  Te160  1  0.25878306  0.75067760  0.60580996  1
  Te  Te161  1  0.26275925  0.75181075  0.94835623  1
  Te  Te162  1  0.58053469  0.05678951  0.22040400  1
  Te  Te163  1  0.57460382  0.07248549  0.55689246  1
  Te  Te164  1  0.58837138  0.08405263  0.90263641  1
  Te  Te165  1  0.57572119  0.43370884  0.22952855  1
  Te  Te166  1  0.59176571  0.41133736  0.59529412  1
  Te  Te167  1  0.58032974  0.43395203  0.90671056  1
  Te  Te168  1  0.58572592  0.75064354  0.24545237  1
  Te  Te169  1  0.58309087  0.72243305  0.59541929  1
  Te  Te170  1  0.62495696  0.70486120  0.94067356  1
  Te  Te171  1  0.94363117  0.02269948  0.25473136  1
  Te  Te172  1  0.92515554  0.05191019  0.61308076  1
  Te  Te173  1  0.93304349  0.08458353  0.89765341  1
  Te  Te174  1  0.91650435  0.41017854  0.25543977  1
  Te  Te175  1  0.90488190  0.40630724  0.58067085  1
  Te  Te176  1  0.90703051  0.43061546  0.93309613  1
  Te  Te177  1  0.92178775  0.73244821  0.26458984  1
  Te  Te178  1  0.92956742  0.77726880  0.57834980  1
  Te  Te179  1  0.91499270  0.75192117  0.89873255  1
