# generated using pymatgen
data_In2Te3
_symmetry_space_group_name_H-M   'P 1'
_cell_length_a   18.86359486
_cell_length_b   18.87612856
_cell_length_c   18.83597849
_cell_angle_alpha   90.12981240
_cell_angle_beta   90.08349982
_cell_angle_gamma   89.81003645
_symmetry_Int_Tables_number   1
_chemical_formula_structural   In2Te3
_chemical_formula_sum   'In72 Te108'
_cell_volume   6706.89665551
_cell_formula_units_Z   36
loop_
 _symmetry_equiv_pos_site_id
 _symmetry_equiv_pos_as_xyz
  1  'x, y, z'
loop_
 _atom_site_type_symbol
 _atom_site_label
 _atom_site_symmetry_multiplicity
 _atom_site_fract_x
 _atom_site_fract_y
 _atom_site_fract_z
 _atom_site_occupancy
  In  In0  1  0.51643942  0.15544330  0.67130330  1
  In  In1  1  0.47852203  0.63837780  0.16073230  1
  In  In2  1  0.84188881  0.84643139  0.66981237  1
  In  In3  1  0.50592139  0.36118431  0.17860401  1
  In  In4  1  0.84080695  0.32375311  0.17023688  1
  In  In5  1  0.16505593  0.00942782  0.16687639  1
  In  In6  1  0.32171560  -0.00687144  0.35707801  1
  In  In7  1  0.85719231  0.66670542  0.16597581  1
  In  In8  1  0.19613305  0.68373791  0.51982897  1
  In  In9  1  0.66901070  0.32099609  -0.01096875  1
  In  In10  1  0.65780278  0.16602782  0.50993888  1
  In  In11  1  0.82918172  0.31285821  0.82572268  1
  In  In12  1  0.33156850  0.32578157  0.66961602  1
  In  In13  1  0.02797889  0.83864359  0.16244504  1
  In  In14  1  0.16295206  0.67688864  0.81603562  1
  In  In15  1  0.47132816  0.86754068  0.63695270  1
  In  In16  1  0.00156108  0.15983790  0.84477267  1
  In  In17  1  0.16708616  0.65846084  0.17137205  1
  In  In18  1  0.26965950  -0.01692347  -0.03088538  1
  In  In19  1  0.67480772  0.49603067  0.17811539  1
  In  In20  1  0.17054109  0.00607413  0.51325904  1
  In  In21  1  0.49800546  -0.00175282  0.82821140  1
  In  In22  1  0.66264246  0.33946975  0.65393345  1
  In  In23  1  0.15598085  0.18821888  0.32053140  1
  In  In24  1  0.67387785  0.00137354  0.00703900  1
  In  In25  1  0.32995095  0.65670905  0.32669298  1
  In  In26  1  0.50795472  0.16998694  -0.02527739  1
  In  In27  1  0.86376451  0.84335237  -0.00110026  1
  In  In28  1  0.31305998  0.16267461  0.49314575  1
  In  In29  1  -0.02602451  0.48697691  0.51017368  1
  In  In30  1  0.33328644  0.48934160  0.83371088  1
  In  In31  1  -0.00498387  0.47973985  0.80195370  1
  In  In32  1  0.69150324  0.17815887  0.16610465  1
  In  In33  1  0.66638247  0.84460745  0.20208099  1
  In  In34  1  0.49391957  0.66235459  0.79911750  1
  In  In35  1  0.31870533  0.34035738  -0.00009794  1
  In  In36  1  0.17172826  0.49121576  0.67249191  1
  In  In37  1  0.64997136  0.83012554  0.82430505  1
  In  In38  1  0.48761862  0.33492462  0.83791622  1
  In  In39  1  0.70331092  0.65131380  0.00939484  1
  In  In40  1  0.03237223  0.86461634  0.85280658  1
  In  In41  1  0.69517042  -0.00632978  0.35610308  1
  In  In42  1  0.82788463  0.04617846  0.79597333  1
  In  In43  1  0.66890822  0.64018930  0.64568030  1
  In  In44  1  0.84834075  0.84388748  0.31531383  1
  In  In45  1  0.31963216  0.51039974  0.17575151  1
  In  In46  1  0.16068319  0.51041235  0.32766571  1
  In  In47  1  0.01654848  0.36581569  0.02052227  1
  In  In48  1  0.64360950  0.65036406  0.36728732  1
  In  In49  1  0.83922204  0.48311193  0.33296699  1
  In  In50  1  0.48775087  0.79831514  0.01661506  1
  In  In51  1  0.34811025  0.17738029  0.14101942  1
  In  In52  1  -0.00581972  0.66460143  0.67644555  1
  In  In53  1  0.83327465  0.64822702  0.84100797  1
  In  In54  1  0.47333620  0.35936448  0.47720703  1
  In  In55  1  0.17589111  0.16859782  -0.01383270  1
  In  In56  1  -0.00868559  0.01458258  0.31951925  1
  In  In57  1  0.47515870  0.63022790  0.53441944  1
  In  In58  1  0.50637877  0.18137312  0.33079301  1
  In  In59  1  0.82147539  0.65499673  0.49292638  1
  In  In60  1  0.31801610  0.65773141  -0.01335681  1
  In  In61  1  0.03928055  0.83803927  0.49958711  1
  In  In62  1  0.48644799  0.82379791  0.35025667  1
  In  In63  1  0.01013864  0.17451727  0.16876647  1
  In  In64  1  0.15205191  0.16522080  0.67281865  1
  In  In65  1  0.84666815  0.31336128  0.50505901  1
  In  In66  1  0.31802394  0.86936828  0.80020270  1
  In  In67  1  0.48483420  0.00743386  0.18045529  1
  In  In68  1  0.87182271  0.04538295  0.51955571  1
  In  In69  1  0.15893628  0.32620060  0.51402456  1
  In  In70  1  0.67767525  0.84395731  0.52117715  1
  In  In71  1  0.00591032  0.63466183  0.00454204  1
  Te  Te72  1  0.07922348  0.08286840  0.06614880  1
  Te  Te73  1  0.08736340  0.08995264  0.41276267  1
  Te  Te74  1  0.10738101  0.07255734  0.78146302  1
  Te  Te75  1  0.09595947  0.46099725  0.10126602  1
  Te  Te76  1  0.07817264  0.41840520  0.42337341  1
  Te  Te77  1  0.08295571  0.38516506  0.72648337  1
  Te  Te78  1  0.09496443  0.74131862  0.06408307  1
  Te  Te79  1  0.09947564  0.73165961  0.41791205  1
  Te  Te80  1  0.07857802  0.77541439  0.73479371  1
  Te  Te81  1  0.41916937  0.06990036  0.05746740  1
  Te  Te82  1  0.42438354  0.08714619  0.41820772  1
  Te  Te83  1  0.41116787  0.08658367  0.74908945  1
  Te  Te84  1  0.41147304  0.43088177  0.08067762  1
  Te  Te85  1  0.39566973  0.45530565  0.39709367  1
  Te  Te86  1  0.42957845  0.42790697  0.73067410  1
  Te  Te87  1  0.37829595  0.73732063  0.10364809  1
  Te  Te88  1  0.40798590  0.72970701  0.43830052  1
  Te  Te89  1  0.40557049  0.76439637  0.72789373  1
  Te  Te90  1  0.76626976  0.10143129  0.06450921  1
  Te  Te91  1  0.77069864  0.10619992  0.42176000  1
  Te  Te92  1  0.72380158  0.10647882  0.71271322  1
  Te  Te93  1  0.75386334  0.41074836  0.07994234  1
  Te  Te94  1  0.76201130  0.42147143  0.44330203  1
  Te  Te95  1  0.73397087  0.40910387  0.76393699  1
  Te  Te96  1  0.75626814  0.76947666  0.09458331  1
  Te  Te97  1  0.74597244  0.76747259  0.40468885  1
  Te  Te98  1  0.75044035  0.74640989  0.74114930  1
  Te  Te99  1  0.06596343  0.28501681  0.25269895  1
  Te  Te100  1  0.05668092  0.22073267  0.55928599  1
  Te  Te101  1  0.08167436  0.26725697  0.91971225  1
  Te  Te102  1  0.06444483  0.55953373  0.21908681  1
  Te  Te103  1  0.08248600  0.58272994  0.58243947  1
  Te  Te104  1  0.08291819  0.57064212  0.88951282  1
  Te  Te105  1  0.10072401  0.92001895  0.27194151  1
  Te  Te106  1  0.06611654  0.94323415  0.59878383  1
  Te  Te107  1  0.13066217  0.91615381  0.94831794  1
  Te  Te108  1  0.40911992  0.26587540  0.25006688  1
  Te  Te109  1  0.42141757  0.24455944  0.57420741  1
  Te  Te110  1  0.39108200  0.24066049  0.90736725  1
  Te  Te111  1  0.44031602  0.55188326  0.28181587  1
  Te  Te112  1  0.38595241  0.56920775  0.63249600  1
  Te  Te113  1  0.42625078  0.58204897  0.91184319  1
  Te  Te114  1  0.39987502  0.90594752  0.25464788  1
  Te  Te115  1  0.38309916  0.91736381  0.53158457  1
  Te  Te116  1  0.42648172  0.89443890  0.91325009  1
  Te  Te117  1  0.74778511  0.26457328  0.26947491  1
  Te  Te118  1  0.75590700  0.21947798  0.61376372  1
  Te  Te119  1  0.75761097  0.22444968  0.92226928  1
  Te  Te120  1  0.75106049  0.60466433  0.25899166  1
  Te  Te121  1  0.75335847  0.54610253  0.56487578  1
  Te  Te122  1  0.74200654  0.55423764  0.90591168  1
  Te  Te123  1  0.77363685  0.94755037  0.23208794  1
  Te  Te124  1  0.76639068  0.94836183  0.58598214  1
  Te  Te125  1  0.75060221  0.90580460  0.91026955  1
  Te  Te126  1  0.22965386  0.26106073  0.09598875  1
  Te  Te127  1  0.25337683  0.27009371  0.40535705  1
  Te  Te128  1  0.21544317  0.27831184  0.74893671  1
  Te  Te129  1  0.22898596  0.55947793  0.06023310  1
  Te  Te130  1  0.25775582  0.57153995  0.43128008  1
  Te  Te131  1  0.26703123  0.59799916  0.73383581  1
  Te  Te132  1  0.24797641  0.90961394  0.09328647  1
  Te  Te133  1  0.25305754  0.89517112  0.44668945  1
  Te  Te134  1  0.21042738  0.90501797  0.70425736  1
  Te  Te135  1  0.56720392  0.23982367  0.09736390  1
  Te  Te136  1  0.58916449  0.26878276  0.42220836  1
  Te  Te137  1  0.58949535  0.25312650  0.76057809  1
  Te  Te138  1  0.58797782  0.57442119  0.07937036  1
  Te  Te139  1  0.57643357  0.55162311  0.45524868  1
  Te  Te140  1  0.59618811  0.56894813  0.75141697  1
  Te  Te141  1  0.57493030  0.90814269  0.08902694  1
  Te  Te142  1  0.58261843  0.91745888  0.42379208  1
  Te  Te143  1  0.58515714  0.92416483  0.72551364  1
  Te  Te144  1  0.92613035  0.25222300  0.06643087  1
  Te  Te145  1  0.95120107  0.22606050  0.44712818  1
  Te  Te146  1  0.92537494  0.23476764  0.73668712  1
  Te  Te147  1  0.89700993  0.56233656  0.07065576  1
  Te  Te148  1  0.92462777  0.58864556  0.40345812  1
  Te  Te149  1  0.89249448  0.56579762  0.72626637  1
  Te  Te150  1  0.93532965  0.92922541  0.09267344  1
  Te  Te151  1  0.91785363  0.92182659  0.42711071  1
  Te  Te152  1  0.92758151  0.93256888  0.75991543  1
  Te  Te153  1  0.26601764  0.09504988  0.24915137  1
  Te  Te154  1  0.26499840  0.08115376  0.60974575  1
  Te  Te155  1  0.24415655  0.09281357  0.87463293  1
  Te  Te156  1  0.24349209  0.41303208  0.25323363  1
  Te  Te157  1  0.26305106  0.42122695  0.57105462  1
  Te  Te158  1  0.23152908  0.41516228  0.90694585  1
  Te  Te159  1  0.22835378  0.74822013  0.27125291  1
  Te  Te160  1  0.24826631  0.78425559  0.61560065  1
  Te  Te161  1  0.25739016  0.76302207  0.89760340  1
  Te  Te162  1  0.59495177  0.07510164  0.26012803  1
  Te  Te163  1  0.57292668  0.06316285  0.57067273  1
  Te  Te164  1  0.60515510  0.08274428  0.89740354  1
  Te  Te165  1  0.60532172  0.41070787  0.27494976  1
  Te  Te166  1  0.56843647  0.42514492  0.57362548  1
  Te  Te167  1  0.56480627  0.41047430  0.93767126  1
  Te  Te168  1  0.56824894  0.73586211  0.24751338  1
  Te  Te169  1  0.57757980  0.74783806  0.58321978  1
  Te  Te170  1  0.58999990  0.73147828  0.92337373  1
  Te  Te171  1  0.90506356  0.11012539  0.25035104  1
  Te  Te172  1  0.93959373  0.12417185  0.62587454  1
  Te  Te173  1  0.90818710  0.06897839  0.91595923  1
  Te  Te174  1  0.93555948  0.39805187  0.25956090  1
  Te  Te175  1  0.91755116  0.39396987  0.60802729  1
  Te  Te176  1  0.91774248  0.41157039  0.91197461  1
  Te  Te177  1  0.94878890  0.74673932  0.25719307  1
  Te  Te178  1  0.91326489  0.75203398  0.57108610  1
  Te  Te179  1  0.93460835  0.74533169  0.90377722  1
