# generated using pymatgen
data_In2Te3
_symmetry_space_group_name_H-M   'P 1'
_cell_length_a   18.87001448
_cell_length_b   18.88147479
_cell_length_c   18.88067267
_cell_angle_alpha   89.95979085
_cell_angle_beta   90.04335149
_cell_angle_gamma   89.93456042
_symmetry_Int_Tables_number   1
_chemical_formula_structural   In2Te3
_chemical_formula_sum   'In72 Te108'
_cell_volume   6727.05680072
_cell_formula_units_Z   36
loop_
 _symmetry_equiv_pos_site_id
 _symmetry_equiv_pos_as_xyz
  1  'x, y, z'
loop_
 _atom_site_type_symbol
 _atom_site_label
 _atom_site_symmetry_multiplicity
 _atom_site_fract_x
 _atom_site_fract_y
 _atom_site_fract_z
 _atom_site_occupancy
  In  In0  1  0.52685947  0.68334798  0.49636256  1
  In  In1  1  0.46609711  0.31579443  0.15032619  1
  In  In2  1  0.34685286  0.16493498  0.81761458  1
  In  In3  1  0.15158171  0.81038300  -0.00807061  1
  In  In4  1  0.16354219  0.49669318  0.69784360  1
  In  In5  1  0.81281254  0.80202105  0.02717362  1
  In  In6  1  0.66831403  0.50200278  0.50280146  1
  In  In7  1  0.32739996  0.33282888  0.66454159  1
  In  In8  1  0.82295855  0.19039494  -0.00313627  1
  In  In9  1  0.33043915  0.00483033  -0.01222188  1
  In  In10  1  0.48935083  0.30824218  0.48531031  1
  In  In11  1  0.34023538  0.15007229  0.50151228  1
  In  In12  1  0.66472745  0.33756069  0.34200441  1
  In  In13  1  0.34796893  0.85670198  0.53557802  1
  In  In14  1  0.15742410  0.83454376  0.68628056  1
  In  In15  1  -0.03149642  0.63923757  0.68993429  1
  In  In16  1  0.50587303  0.49601331  0.68255904  1
  In  In17  1  0.34641298  0.00263277  0.35449373  1
  In  In18  1  0.67661374  0.35507949  0.00095177  1
  In  In19  1  0.15963105  0.34863845  0.16579808  1
  In  In20  1  0.66959254  0.31965335  0.68534467  1
  In  In21  1  -0.04334245  0.84769047  0.85093644  1
  In  In22  1  0.16051620  0.85114408  0.30812207  1
  In  In23  1  -0.03640586  0.85247851  0.49485283  1
  In  In24  1  0.00615922  0.22355935  0.86294499  1
  In  In25  1  0.65255751  0.66994404  0.68057152  1
  In  In26  1  0.68394563  0.15363785  0.17270456  1
  In  In27  1  0.49473095  0.51113427  0.32031526  1
  In  In28  1  0.19451271  0.15681642  0.65921349  1
  In  In29  1  0.65228691  0.53555806  0.17562284  1
  In  In30  1  0.66903122  -0.01211671  0.63994803  1
  In  In31  1  0.00022643  0.14879809  0.48011577  1
  In  In32  1  0.16422831  0.30134048  0.48290385  1
  In  In33  1  0.84290532  0.01150919  0.16161535  1
  In  In34  1  0.68745225  0.81675496  0.82266592  1
  In  In35  1  0.16827777  0.01909731  0.82315620  1
  In  In36  1  0.81487468  -0.00481949  0.82020039  1
  In  In37  1  0.84878900  0.31193343  0.52772148  1
  In  In38  1  0.84866758  0.38611244  0.86975348  1
  In  In39  1  -0.01596492  0.02137743  -0.00080847  1
  In  In40  1  0.31416313  0.83043170  0.17546173  1
  In  In41  1  0.51689207  0.34569889  0.84331869  1
  In  In42  1  0.81115117  0.67271339  0.48120709  1
  In  In43  1  0.51327452  0.70169798  0.18230392  1
  In  In44  1  0.34152926  0.17512664  0.18237394  1
  In  In45  1  0.86683155  0.34673044  0.13650285  1
  In  In46  1  0.17510701  0.50268264  0.31381259  1
  In  In47  1  0.82903137  0.15227068  0.68087230  1
  In  In48  1  -0.01658613  0.64737067  0.01679192  1
  In  In49  1  0.32487446  0.65959068  0.00298456  1
  In  In50  1  0.12682386  0.01481802  0.16508224  1
  In  In51  1  0.50950436  -0.02085933  0.16065618  1
  In  In52  1  0.36071173  0.85348817  0.82921754  1
  In  In53  1  -0.01375329  0.66140042  0.31196179  1
  In  In54  1  0.49750109  0.66779925  0.86046714  1
  In  In55  1  0.82280604  0.50036505  0.30064840  1
  In  In56  1  0.82318202  0.15403247  0.33276324  1
  In  In57  1  0.00479708  0.48313414  0.50664563  1
  In  In58  1  0.16647943  0.17073923  0.31956248  1
  In  In59  1  -0.00320227  -0.00396962  0.67550660  1
  In  In60  1  0.52685099  0.82871096  -0.01664623  1
  In  In61  1  0.16248829  0.65616378  0.14720418  1
  In  In62  1  0.36231453  0.64579733  0.34358104  1
  In  In63  1  0.01736993  0.35409203  0.68543418  1
  In  In64  1  0.83802584  0.83779902  0.32151159  1
  In  In65  1  0.35187311  0.49414257  0.52343448  1
  In  In66  1  0.15030209  0.64773036  0.83020310  1
  In  In67  1  0.31231397  0.35454995  -0.01097270  1
  In  In68  1  0.16261912  0.69084336  0.50236444  1
  In  In69  1  0.66553407  -0.01602921  0.33829574  1
  In  In70  1  0.53151100  0.15399847  -0.02445088  1
  In  In71  1  0.50491044  0.84534904  0.64683298  1
  Te  Te72  1  0.08950552  0.10593038  0.05667494  1
  Te  Te73  1  0.10844957  0.07181171  0.41530398  1
  Te  Te74  1  0.07066102  0.10903774  0.74906504  1
  Te  Te75  1  0.07215852  0.40799402  0.06115286  1
  Te  Te76  1  0.08919469  0.40919652  0.40525056  1
  Te  Te77  1  0.06540594  0.44131152  0.79876820  1
  Te  Te78  1  0.06157226  0.75862984  0.09928753  1
  Te  Te79  1  0.06777225  0.75653932  0.40154788  1
  Te  Te80  1  0.05182333  0.75394097  0.76179601  1
  Te  Te81  1  0.42490504  0.08377752  0.08091315  1
  Te  Te82  1  0.45181198  0.07618547  0.43102856  1
  Te  Te83  1  0.39179717  0.05651209  0.73180459  1
  Te  Te84  1  0.42652561  0.42030140  0.05658621  1
  Te  Te85  1  0.41068652  0.41667197  0.40861002  1
  Te  Te86  1  0.40298150  0.41872423  0.76255994  1
  Te  Te87  1  0.40526626  0.77315093  0.06688279  1
  Te  Te88  1  0.41047924  0.75803647  0.43233476  1
  Te  Te89  1  0.43622401  0.75168136  0.74651408  1
  Te  Te90  1  0.74651129  0.07529895  0.05922583  1
  Te  Te91  1  0.74463163  0.07267372  0.42518835  1
  Te  Te92  1  0.71256478  0.09486384  0.76547648  1
  Te  Te93  1  0.75001282  0.44900492  0.09624927  1
  Te  Te94  1  0.76802657  0.41267151  0.42998520  1
  Te  Te95  1  0.74372922  0.42339250  0.75973545  1
  Te  Te96  1  0.76166814  0.70552592  0.12648203  1
  Te  Te97  1  0.73470032  0.78326759  0.41669890  1
  Te  Te98  1  0.77280232  0.71802152  0.75258375  1
  Te  Te99  1  0.07538553  0.25558331  0.24397152  1
  Te  Te100  1  0.06881860  0.24531272  0.58754947  1
  Te  Te101  1  0.10306109  0.30692344  0.94021819  1
  Te  Te102  1  0.06724550  0.56531461  0.22567506  1
  Te  Te103  1  0.08389815  0.58981572  0.59211401  1
  Te  Te104  1  0.10995717  0.58628701  0.96010772  1
  Te  Te105  1  0.04866933  0.91921465  0.24338515  1
  Te  Te106  1  0.08006871  0.91036718  0.57975336  1
  Te  Te107  1  0.08222639  0.92268588  0.90448280  1
  Te  Te108  1  0.44045889  0.23742631  0.27130806  1
  Te  Te109  1  0.42165524  0.23264093  0.60080179  1
  Te  Te110  1  0.42033096  0.24701863  0.92612348  1
  Te  Te111  1  0.41202792  0.58394953  0.21648754  1
  Te  Te112  1  0.43728278  0.59782930  0.59030943  1
  Te  Te113  1  0.39502884  0.57330535  0.90744316  1
  Te  Te114  1  0.41730802  0.90520741  0.25821776  1
  Te  Te115  1  0.42717543  0.97218740  0.60315362  1
  Te  Te116  1  0.44862997  0.94284851  0.91382542  1
  Te  Te117  1  0.75828490  0.26882217  0.23919892  1
  Te  Te118  1  0.73592348  0.22749885  0.58328280  1
  Te  Te119  1  0.74512159  0.26985809  0.89682009  1
  Te  Te120  1  0.74385352  0.62181041  0.26048961  1
  Te  Te121  1  0.75210278  0.58561060  0.59441228  1
  Te  Te122  1  0.79880967  0.52901984  0.86579878  1
  Te  Te123  1  0.74557681  0.91582940  0.22653045  1
  Te  Te124  1  0.78970936  0.91756335  0.59835572  1
  Te  Te125  1  0.75488198  0.90588664  0.92673520  1
  Te  Te126  1  0.25427293  0.25078052  0.08683001  1
  Te  Te127  1  0.27510058  0.24399827  0.39892735  1
  Te  Te128  1  0.23318835  0.26112527  0.75996266  1
  Te  Te129  1  0.23952718  0.55660967  0.06923136  1
  Te  Te130  1  0.24978913  0.58227031  0.43486732  1
  Te  Te131  1  0.26060622  0.59345409  0.74858383  1
  Te  Te132  1  0.23576113  0.91688751  0.07111706  1
  Te  Te133  1  0.25374188  0.89773946  0.41720219  1
  Te  Te134  1  0.26304079  0.93540475  0.73917029  1
  Te  Te135  1  0.59582530  0.24740835  0.08443781  1
  Te  Te136  1  0.60321393  0.23598285  0.42783555  1
  Te  Te137  1  0.55896541  0.24399083  0.74521677  1
  Te  Te138  1  0.56644047  0.60969120  0.08217565  1
  Te  Te139  1  0.59847312  0.58978249  0.40004821  1
  Te  Te140  1  0.59069108  0.57330635  0.77976445  1
  Te  Te141  1  0.60662011  0.89905896  0.08470586  1
  Te  Te142  1  0.58880725  0.87856454  0.41035100  1
  Te  Te143  1  0.59260620  0.91185783  0.75249900  1
  Te  Te144  1  0.93423608  0.22450005  0.08662947  1
  Te  Te145  1  0.92062843  0.25582030  0.40851108  1
  Te  Te146  1  0.90846985  0.26424869  0.74999322  1
  Te  Te147  1  0.88791365  0.54973337  0.07415015  1
  Te  Te148  1  0.91671545  0.57354145  0.41821610  1
  Te  Te149  1  0.94054053  0.54954176  0.80366341  1
  Te  Te150  1  0.91623180  0.91025980  0.07238600  1
  Te  Te151  1  0.91165038  0.94434326  0.39450419  1
  Te  Te152  1  0.88351217  0.89434844  0.71935497  1
  Te  Te153  1  0.25570096  0.05766608  0.23938060  1
  Te  Te154  1  0.22264263  0.06903694  0.54513624  1
  Te  Te155  1  0.24334634  0.10901541  0.91885858  1
  Te  Te156  1  0.26670420  0.41251649  0.24482131  1
  Te  Te157  1  0.22801991  0.41241601  0.57792638  1
  Te  Te158  1  0.21626813  0.40137242  0.88708304  1
  Te  Te159  1  0.24593021  0.72198132  0.26096586  1
  Te  Te160  1  0.25670421  0.75124636  0.60584705  1
  Te  Te161  1  0.25350044  0.76045513  0.89095677  1
  Te  Te162  1  0.57916384  0.08024515  0.25178733  1
  Te  Te163  1  0.56487348  0.03827683  0.54797233  1
  Te  Te164  1  0.62024966  0.07646115  0.89210062  1
  Te  Te165  1  0.57738924  0.41114163  0.23978279  1
  Te  Te166  1  0.57301209  0.40894278  0.57610943  1
  Te  Te167  1  0.58194689  0.44388074  0.93178070  1
  Te  Te168  1  0.56772688  0.77767980  0.29347257  1
  Te  Te169  1  0.61954804  0.77501009  0.57510417  1
  Te  Te170  1  0.62314233  0.72404985  0.92840134  1
  Te  Te171  1  0.92652267  0.10348350  0.24025356  1
  Te  Te172  1  0.90843994  0.07339418  0.57684262  1
  Te  Te173  1  0.90935282  0.09422324  0.88916822  1
  Te  Te174  1  0.93208252  0.42003475  0.24680393  1
  Te  Te175  1  0.90569725  0.42844421  0.60833505  1
  Te  Te176  1  0.93144773  0.42339866  0.99466469  1
  Te  Te177  1  0.89416860  0.73758143  0.22223850  1
  Te  Te178  1  0.92035266  0.72952178  0.57247255  1
  Te  Te179  1  0.89359856  0.72900253  0.91998365  1
