# generated using pymatgen
data_In2Te3
_symmetry_space_group_name_H-M   'P 1'
_cell_length_a   18.83228091
_cell_length_b   18.81954369
_cell_length_c   18.82407600
_cell_angle_alpha   90.00053611
_cell_angle_beta   90.02105910
_cell_angle_gamma   90.11062355
_symmetry_Int_Tables_number   1
_chemical_formula_structural   In2Te3
_chemical_formula_sum   'In72 Te108'
_cell_volume   6671.52075482
_cell_formula_units_Z   36
loop_
 _symmetry_equiv_pos_site_id
 _symmetry_equiv_pos_as_xyz
  1  'x, y, z'
loop_
 _atom_site_type_symbol
 _atom_site_label
 _atom_site_symmetry_multiplicity
 _atom_site_fract_x
 _atom_site_fract_y
 _atom_site_fract_z
 _atom_site_occupancy
  In  In0  1  0.00480453  0.17226809  0.14121703  1
  In  In1  1  0.34873419  0.18036291  0.51735712  1
  In  In2  1  0.81393623  0.33966145  0.48466804  1
  In  In3  1  0.50802616  0.66813285  0.83291661  1
  In  In4  1  0.29668514  0.85741040  0.13710202  1
  In  In5  1  0.35124448  0.50198197  0.16983548  1
  In  In6  1  0.36086974  0.16744154  0.17918867  1
  In  In7  1  0.86522149  0.53152352  0.68825093  1
  In  In8  1  0.31193533  0.20209993  0.82741556  1
  In  In9  1  0.67466257  0.50088595  0.86463170  1
  In  In10  1  0.17259399  0.34250662  0.51830903  1
  In  In11  1  0.14506286  0.67726843  0.16739170  1
  In  In12  1  0.66080113  0.34147452  0.67520322  1
  In  In13  1  0.66355188  0.14145925  0.83785045  1
  In  In14  1  0.85257484  0.00812793  0.82887820  1
  In  In15  1  0.83954693  0.82613537  0.68035810  1
  In  In16  1  0.85059086  0.37273874  0.87689957  1
  In  In17  1  0.51074886  0.81076816  0.65939914  1
  In  In18  1  0.70374841  0.32879178  0.28452253  1
  In  In19  1  0.67368595  -0.04903877  0.67159337  1
  In  In20  1  0.14221177  0.49857548  0.67017431  1
  In  In21  1  0.32531352  0.68242073  0.00700907  1
  In  In22  1  0.51086024  0.01378971  0.87404979  1
  In  In23  1  0.33453955  0.64484165  0.34461875  1
  In  In24  1  0.15308282  0.51852840  0.32603566  1
  In  In25  1  0.47441051  0.66353075  0.18010806  1
  In  In26  1  0.18123387  0.80122234  0.67091670  1
  In  In27  1  0.50509639  0.00429151  0.15687430  1
  In  In28  1  -0.00002683  -0.02068332  0.32760684  1
  In  In29  1  0.18097658  0.00123556  0.50590292  1
  In  In30  1  0.13900081  0.79867969  0.31934228  1
  In  In31  1  0.70760142  0.52501590  0.19185423  1
  In  In32  1  0.85407395  0.81223963  -0.01071142  1
  In  In33  1  -0.00050460  -0.00685390  0.67324487  1
  In  In34  1  0.33647466  0.79421363  0.46260781  1
  In  In35  1  0.67129998  0.00774522  0.01802694  1
  In  In36  1  0.84034674  0.18099540  -0.00554110  1
  In  In37  1  0.48133583  0.79863893  0.32727394  1
  In  In38  1  0.51660696  -0.01634680  0.51687593  1
  In  In39  1  0.35218272  0.84930815  0.84326761  1
  In  In40  1  0.14492467  0.49373987  -0.00509709  1
  In  In41  1  0.48974958  0.17915930  0.64388729  1
  In  In42  1  -0.00312190  0.82163892  0.47531576  1
  In  In43  1  0.83206389  0.65840715  0.48601322  1
  In  In44  1  0.66644635  0.15196370  0.46201996  1
  In  In45  1  0.18155941  0.17489601  0.33037079  1
  In  In46  1  0.33687346  0.35570138  -0.00102066  1
  In  In47  1  0.00731372  0.34667486  0.68441427  1
  In  In48  1  0.66720866  0.81704388  0.50128787  1
  In  In49  1  0.68265036  -0.00903602  0.31496997  1
  In  In50  1  -0.01472312  0.18988723  0.49007637  1
  In  In51  1  0.46915739  0.51844506  0.66473170  1
  In  In52  1  0.46156323  0.35477153  0.50271542  1
  In  In53  1  0.66215545  0.32114117  0.04127038  1
  In  In54  1  -0.00298121  0.17504690  0.84388347  1
  In  In55  1  -0.02209560  0.81562008  0.17306384  1
  In  In56  1  0.33949777  0.00363755  0.66711631  1
  In  In57  1  0.50367881  0.48747076  0.00742056  1
  In  In58  1  0.16431839  0.34415317  0.15528761  1
  In  In59  1  0.32481282  0.01589803  0.32478987  1
  In  In60  1  0.68918771  0.66726784  0.00740208  1
  In  In61  1  0.15220326  0.64886098  0.84072950  1
  In  In62  1  0.16343731  0.16493386  -0.01971368  1
  In  In63  1  0.83343007  -0.00141451  0.16714296  1
  In  In64  1  0.31682795  0.48552201  0.82822629  1
  In  In65  1  0.64948846  0.52299687  0.47391188  1
  In  In66  1  0.00323972  0.50960499  0.49747585  1
  In  In67  1  0.86638861  0.16660000  0.63859482  1
  In  In68  1  0.50696533  0.18671167  0.33695484  1
  In  In69  1  0.13934634  -0.01500187  0.86306049  1
  In  In70  1  0.68503141  0.80532006  0.84136348  1
  In  In71  1  -0.03696829  0.36614571  0.30088743  1
  Te  Te72  1  0.09086926  0.07365277  0.07237706  1
  Te  Te73  1  0.08973297  0.08516196  0.41583561  1
  Te  Te74  1  0.08499765  0.08768273  0.75595442  1
  Te  Te75  1  0.06202116  0.43549768  0.10269945  1
  Te  Te76  1  0.07400104  0.40238735  0.40929018  1
  Te  Te77  1  0.06791643  0.43686129  0.78292474  1
  Te  Te78  1  0.05529970  0.74009340  0.06454219  1
  Te  Te79  1  0.08934533  0.71567653  0.42871066  1
  Te  Te80  1  0.07174453  0.74244832  0.75367332  1
  Te  Te81  1  0.39136896  0.06166243  0.08044402  1
  Te  Te82  1  0.42163016  0.07404860  0.42952797  1
  Te  Te83  1  0.43606888  0.08227383  0.75292352  1
  Te  Te84  1  0.43858973  0.39326383  0.10820826  1
  Te  Te85  1  0.41225383  0.46305445  0.41832389  1
  Te  Te86  1  0.43443638  0.42017157  0.76882187  1
  Te  Te87  1  0.41605455  0.77280674  0.08783979  1
  Te  Te88  1  0.47013319  0.70547803  0.45592933  1
  Te  Te89  1  0.40595853  0.74221741  0.74679814  1
  Te  Te90  1  0.74795991  0.11537966  0.10201505  1
  Te  Te91  1  0.77096264  0.06831558  0.40578857  1
  Te  Te92  1  0.76318047  0.07965157  0.73041727  1
  Te  Te93  1  0.75151582  0.43931821  0.06874767  1
  Te  Te94  1  0.74495210  0.43627140  0.39156217  1
  Te  Te95  1  0.76416992  0.42536655  0.75202961  1
  Te  Te96  1  0.77196814  0.75215025  0.09598250  1
  Te  Te97  1  0.73743467  0.73519820  0.39568352  1
  Te  Te98  1  0.73482575  0.72606141  0.72578322  1
  Te  Te99  1  0.07592920  0.25954845  0.25812750  1
  Te  Te100  1  0.08090743  0.24565368  0.59471713  1
  Te  Te101  1  0.06988726  0.26870832  0.93126816  1
  Te  Te102  1  0.04979699  0.58561514  0.24013630  1
  Te  Te103  1  0.06639461  0.60068626  0.59372181  1
  Te  Te104  1  0.06487553  0.61636065  0.95913880  1
  Te  Te105  1  0.08930208  0.90771088  0.22696214  1
  Te  Te106  1  0.09130482  0.90385059  0.58261370  1
  Te  Te107  1  0.08218742  0.87714588  0.94495673  1
  Te  Te108  1  0.40593242  0.27112755  0.27395425  1
  Te  Te109  1  0.38148179  0.28946635  0.62890061  1
  Te  Te110  1  0.41251806  0.25912562  0.91749648  1
  Te  Te111  1  0.44258032  0.54762886  0.28680492  1
  Te  Te112  1  0.41399077  0.61599085  0.57173218  1
  Te  Te113  1  0.40955357  0.58131826  0.92635391  1
  Te  Te114  1  0.40925073  0.91277083  0.25015126  1
  Te  Te115  1  0.40453167  0.89775626  0.57643971  1
  Te  Te116  1  0.41745066  0.92791334  0.95056659  1
  Te  Te117  1  0.77483005  0.23146260  0.20547566  1
  Te  Te118  1  0.74381865  0.24587591  0.58359982  1
  Te  Te119  1  0.74386600  0.25661751  0.90303082  1
  Te  Te120  1  0.79240374  0.62646163  0.26075411  1
  Te  Te121  1  0.76318062  0.55646944  0.57718385  1
  Te  Te122  1  0.78109890  0.60023622  0.90653892  1
  Te  Te123  1  0.75232728  0.89149429  0.23053271  1
  Te  Te124  1  0.77132068  0.90922261  0.56491499  1
  Te  Te125  1  0.74928785  0.92659482  0.91094634  1
  Te  Te126  1  0.25806331  0.24829889  0.08381040  1
  Te  Te127  1  0.26434279  0.26581631  0.42089088  1
  Te  Te128  1  0.25406354  0.27754658  0.71814606  1
  Te  Te129  1  0.24671219  0.57765685  0.08748407  1
  Te  Te130  1  0.25052383  0.55881085  0.43258290  1
  Te  Te131  1  0.25240699  0.59004646  0.74272676  1
  Te  Te132  1  0.20073931  0.91258616  0.03908850  1
  Te  Te133  1  0.24218080  0.90663853  0.40293914  1
  Te  Te134  1  0.24111689  0.92096138  0.75065518  1
  Te  Te135  1  0.56116636  0.22576015  0.08439156  1
  Te  Te136  1  0.57998148  0.27403645  0.43705325  1
  Te  Te137  1  0.57800662  0.24184778  0.75486734  1
  Te  Te138  1  0.58030794  0.58931776  0.08948070  1
  Te  Te139  1  0.60121807  0.63612212  0.38820974  1
  Te  Te140  1  0.59000664  0.56790715  0.75647738  1
  Te  Te141  1  0.59901967  0.90752806  0.09740274  1
  Te  Te142  1  0.57733173  0.90469424  0.40347629  1
  Te  Te143  1  0.56790114  0.90746475  0.77091333  1
  Te  Te144  1  0.92450367  0.27547120  0.07189895  1
  Te  Te145  1  0.89476169  0.25514956  0.38715091  1
  Te  Te146  1  0.89993284  0.25776076  0.75846553  1
  Te  Te147  1  0.87401251  0.53595770  0.08177247  1
  Te  Te148  1  0.91497695  0.57313342  0.39494773  1
  Te  Te149  1  0.94731701  0.62780300  0.76504980  1
  Te  Te150  1  0.92294557  0.92012078  0.07270036  1
  Te  Te151  1  0.90377317  0.87958555  0.37740867  1
  Te  Te152  1  0.93919043  0.89621506  0.77467990  1
  Te  Te153  1  0.23226116  0.07979150  0.22447183  1
  Te  Te154  1  0.24421157  0.10227889  0.60053754  1
  Te  Te155  1  0.25878673  0.07869046  0.89765772  1
  Te  Te156  1  0.24935106  0.42382663  0.25387487  1
  Te  Te157  1  0.25173096  0.45083146  0.57990467  1
  Te  Te158  1  0.22193146  0.39612787  0.90646856  1
  Te  Te159  1  0.26765229  0.73976900  0.24478303  1
  Te  Te160  1  0.25554688  0.72618845  0.56681865  1
  Te  Te161  1  0.24553464  0.75804506  0.90502658  1
  Te  Te162  1  0.58818705  0.09469480  0.24996960  1
  Te  Te163  1  0.60352007  0.08060629  0.59329529  1
  Te  Te164  1  0.57259313  0.12519155  0.96641800  1
  Te  Te165  1  0.60598924  0.42815995  0.24028071  1
  Te  Te166  1  0.58093064  0.42989895  0.57945745  1
  Te  Te167  1  0.58521114  0.39200535  0.92331976  1
  Te  Te168  1  0.58905582  0.73179916  0.24762088  1
  Te  Te169  1  0.62185595  0.72388806  0.61070668  1
  Te  Te170  1  0.57771279  0.75566905  0.93533167  1
  Te  Te171  1  0.92875183  0.08657031  0.24692675  1
  Te  Te172  1  0.92808631  0.05714157  0.55416543  1
  Te  Te173  1  0.93327685  0.07243027  0.93800661  1
  Te  Te174  1  0.86790974  0.43286929  0.20523030  1
  Te  Te175  1  0.91286572  0.40861970  0.58034521  1
  Te  Te176  1  0.92715826  0.47556055  0.94718366  1
  Te  Te177  1  0.93107736  0.70004982  0.25620163  1
  Te  Te178  1  0.91963255  0.74166532  0.58199987  1
  Te  Te179  1  0.88516907  0.71789788  0.87839425  1
