# generated using pymatgen
data_In2Te3
_symmetry_space_group_name_H-M   'P 1'
_cell_length_a   18.95403699
_cell_length_b   18.97877876
_cell_length_c   18.96362503
_cell_angle_alpha   90.04274750
_cell_angle_beta   90.06338832
_cell_angle_gamma   90.01166209
_symmetry_Int_Tables_number   1
_chemical_formula_structural   In2Te3
_chemical_formula_sum   'In72 Te108'
_cell_volume   6821.67383517
_cell_formula_units_Z   36
loop_
 _symmetry_equiv_pos_site_id
 _symmetry_equiv_pos_as_xyz
  1  'x, y, z'
loop_
 _atom_site_type_symbol
 _atom_site_label
 _atom_site_symmetry_multiplicity
 _atom_site_fract_x
 _atom_site_fract_y
 _atom_site_fract_z
 _atom_site_occupancy
  In  In0  1  0.32220710  0.66505443  0.64153815  1
  In  In1  1  -0.02363201  0.48251661  0.49921841  1
  In  In2  1  0.15311996  0.49872072  0.66981422  1
  In  In3  1  0.31009028  0.02385459  0.68388810  1
  In  In4  1  0.50989257  0.00429002  0.50708666  1
  In  In5  1  0.63809703  0.32591635  0.01308328  1
  In  In6  1  0.35071440  0.16206121  0.16781151  1
  In  In7  1  0.51383193  0.67283409  0.17695806  1
  In  In8  1  0.66863646  0.82357963  0.52299982  1
  In  In9  1  0.81771514  -0.00767170  0.19441296  1
  In  In10  1  0.01930740  0.17147653  0.15149556  1
  In  In11  1  0.47432433  0.41344942  0.59621065  1
  In  In12  1  0.34381646  0.82058368  0.15810771  1
  In  In13  1  -0.01179565  0.01632572  0.35297731  1
  In  In14  1  -0.00043116  0.67145732  0.67397066  1
  In  In15  1  -0.00874512  0.65948073  0.00928213  1
  In  In16  1  0.82332590  0.33613021  0.51258084  1
  In  In17  1  0.63918170  0.18547144  0.82013530  1
  In  In18  1  0.30787080  0.32139733  -0.00706277  1
  In  In19  1  0.85051874  0.30561875  0.81321725  1
  In  In20  1  0.33342545  0.51451639  0.48326904  1
  In  In21  1  0.17975342  0.63351712  0.18591872  1
  In  In22  1  0.50716449  0.19138122  0.35083689  1
  In  In23  1  0.83553875  0.16164547  0.37115125  1
  In  In24  1  -0.01602661  0.51511892  0.84748619  1
  In  In25  1  0.70277594  0.01131399  0.66888484  1
  In  In26  1  0.15100870  0.67241777  0.82459540  1
  In  In27  1  0.68002953  0.65298517  0.66761800  1
  In  In28  1  0.31919026  0.47858629  0.16508829  1
  In  In29  1  0.35288923  -0.00735547  0.32002299  1
  In  In30  1  0.15660788  0.16937382  0.65189568  1
  In  In31  1  -0.01507031  0.82455664  0.15487261  1
  In  In32  1  0.30600965  0.18075992  0.82500274  1
  In  In33  1  0.82598530  0.66551844  0.16116359  1
  In  In34  1  0.49558770  0.49485885  0.00216285  1
  In  In35  1  0.15891252  0.01724622  0.14593055  1
  In  In36  1  0.47087368  0.24561793  0.67004419  1
  In  In37  1  0.68831080  0.69658389  0.00102120  1
  In  In38  1  0.52186721  0.82451121  0.65189065  1
  In  In39  1  -0.01637966  0.86914847  0.50696866  1
  In  In40  1  0.66050616  0.50303086  0.18431052  1
  In  In41  1  0.83055222  0.68818521  0.84191407  1
  In  In42  1  0.52341368  0.83078649  0.01808094  1
  In  In43  1  0.48028822  0.15208002  0.00515228  1
  In  In44  1  0.15803531  -0.01329631  0.84722627  1
  In  In45  1  0.49176025  0.00224558  0.84074779  1
  In  In46  1  0.18177928  0.66460547  0.47746381  1
  In  In47  1  0.55774077  -0.02334797  0.16888507  1
  In  In48  1  -0.01876919  0.01596317  0.67331248  1
  In  In49  1  0.50358041  0.63518457  0.84164691  1
  In  In50  1  0.15013472  0.85997568  0.34224621  1
  In  In51  1  0.16725132  0.82539191  -0.00960663  1
  In  In52  1  0.55942584  0.49824593  0.41755201  1
  In  In53  1  0.34976104  0.65673665  0.31154618  1
  In  In54  1  0.84306725  0.67437059  0.49795287  1
  In  In55  1  0.15894627  0.15727990  -0.02246063  1
  In  In56  1  0.33076666  0.83846683  0.49871418  1
  In  In57  1  0.69525105  0.85870188  0.84384615  1
  In  In58  1  0.34387316  0.83278396  0.82652854  1
  In  In59  1  0.14243745  0.16013576  0.36567623  1
  In  In60  1  0.03146419  0.35962507  -0.00658057  1
  In  In61  1  0.16151656  0.32848165  0.82306840  1
  In  In62  1  0.00898029  0.65923407  0.30340317  1
  In  In63  1  0.51790216  0.34320322  0.19619059  1
  In  In64  1  0.68561786  0.15613205  0.20473700  1
  In  In65  1  0.82303859  0.31781442  0.17678261  1
  In  In66  1  0.67828055  0.15257554  0.50489245  1
  In  In67  1  0.84680206  0.15871824  -0.01966857  1
  In  In68  1  0.69705972  0.48285119  0.83705705  1
  In  In69  1  0.14337074  0.32939671  0.49812320  1
  In  In70  1  -0.02148650  0.34297578  0.32548304  1
  In  In71  1  0.53487033  0.76649564  0.34205851  1
  Te  Te72  1  0.05522097  0.06794235  0.04658201  1
  Te  Te73  1  0.06828358  0.07556395  0.46177477  1
  Te  Te74  1  0.08821979  0.08813955  0.76035956  1
  Te  Te75  1  0.09996895  0.41796221  0.10882381  1
  Te  Te76  1  0.07893760  0.42930083  0.40219446  1
  Te  Te77  1  0.05911791  0.41921006  0.75518633  1
  Te  Te78  1  0.10172343  0.74290644  0.10310479  1
  Te  Te79  1  0.07216049  0.75361658  0.41733429  1
  Te  Te80  1  0.06470809  0.77118287  0.76013006  1
  Te  Te81  1  0.43150776  0.05140165  0.10598541  1
  Te  Te82  1  0.41676999  0.08646554  0.42081910  1
  Te  Te83  1  0.42252781  0.10312167  0.75123396  1
  Te  Te84  1  0.42469985  0.38460531  0.08129762  1
  Te  Te85  1  0.42550432  0.43621905  0.39962305  1
  Te  Te86  1  0.41323062  0.37184567  0.72480007  1
  Te  Te87  1  0.42302651  0.72799276  0.06777936  1
  Te  Te88  1  0.41020387  0.73025216  0.42987960  1
  Te  Te89  1  0.42487415  0.73753628  0.73876462  1
  Te  Te90  1  0.76183716  0.09428465  0.08890965  1
  Te  Te91  1  0.74657248  0.05532808  0.41789164  1
  Te  Te92  1  0.75112328  0.09259835  0.78378579  1
  Te  Te93  1  0.73602604  0.41160904  0.08959607  1
  Te  Te94  1  0.74879148  0.45653320  0.46060832  1
  Te  Te95  1  0.77213462  0.40506402  0.73571449  1
  Te  Te96  1  0.79281580  0.77623099  0.06632225  1
  Te  Te97  1  0.74035424  0.74584220  0.41902871  1
  Te  Te98  1  0.75297302  0.76674315  0.73720645  1
  Te  Te99  1  0.08469607  0.25341357  0.25912505  1
  Te  Te100  1  0.05997591  0.27036877  0.60519680  1
  Te  Te101  1  0.06211970  0.24313787  0.90066947  1
  Te  Te102  1  0.06016140  0.55080974  0.21474390  1
  Te  Te103  1  0.07886078  0.59006562  0.57006496  1
  Te  Te104  1  0.09356122  0.57893723  0.93024252  1
  Te  Te105  1  0.06724619  0.93519189  0.23789087  1
  Te  Te106  1  0.08001805  0.95043200  0.58183133  1
  Te  Te107  1  0.06307256  0.90643310  0.92589499  1
  Te  Te108  1  0.40559079  0.26520315  0.26415864  1
  Te  Te109  1  0.43286680  0.28543037  0.53208570  1
  Te  Te110  1  0.41470241  0.24908133  0.91077806  1
  Te  Te111  1  0.43373630  0.55912736  0.23460455  1
  Te  Te112  1  0.42040845  0.56081791  0.59838139  1
  Te  Te113  1  0.40374272  0.54681292  0.89973734  1
  Te  Te114  1  0.43919038  0.88943597  0.25284116  1
  Te  Te115  1  0.41213144  0.92004062  0.60119507  1
  Te  Te116  1  0.41913340  0.90846231  0.93368199  1
  Te  Te117  1  0.74594405  0.25961422  0.29513052  1
  Te  Te118  1  0.77791595  0.21792055  0.60054934  1
  Te  Te119  1  0.74209381  0.25701916  0.92395522  1
  Te  Te120  1  0.73283939  0.60578000  0.26251067  1
  Te  Te121  1  0.75910445  0.57092190  0.56955332  1
  Te  Te122  1  0.76275516  0.58412936  0.92997319  1
  Te  Te123  1  0.69142233  0.91918519  0.22468079  1
  Te  Te124  1  0.76619438  0.92216500  0.57291906  1
  Te  Te125  1  0.80588276  0.93731975  0.89959512  1
  Te  Te126  1  0.23718994  0.22704417  0.08740876  1
  Te  Te127  1  0.24079684  0.25394047  0.41724549  1
  Te  Te128  1  0.25513635  0.27388637  0.71833935  1
  Te  Te129  1  0.27104430  0.58938866  0.08242570  1
  Te  Te130  1  0.23914866  0.57141386  0.37432699  1
  Te  Te131  1  0.25061185  0.58397125  0.74736865  1
  Te  Te132  1  0.25128118  0.91601067  0.08200905  1
  Te  Te133  1  0.24913825  0.94100554  0.42284842  1
  Te  Te134  1  0.23910136  0.90584923  0.74607106  1
  Te  Te135  1  0.57773285  0.22510789  0.11014609  1
  Te  Te136  1  0.58910225  0.25969444  0.45302769  1
  Te  Te137  1  0.60351854  0.28665591  0.72188150  1
  Te  Te138  1  0.59587514  0.58971284  0.06754415  1
  Te  Te139  1  0.60601798  0.63222925  0.37155286  1
  Te  Te140  1  0.59542274  0.55763503  0.74953550  1
  Te  Te141  1  0.62996603  0.92572265  0.05009226  1
  Te  Te142  1  0.56914129  0.89328552  0.42781324  1
  Te  Te143  1  0.58615049  0.92371460  0.74875811  1
  Te  Te144  1  0.92363785  0.26156456  0.07508640  1
  Te  Te145  1  0.93129195  0.25495740  0.43964315  1
  Te  Te146  1  0.91301808  0.22149398  0.70516994  1
  Te  Te147  1  0.91141875  0.56890650  0.09058274  1
  Te  Te148  1  0.91951183  0.58358179  0.40150796  1
  Te  Te149  1  0.89765786  0.58830672  0.74742408  1
  Te  Te150  1  0.89205276  0.91866969  0.08854663  1
  Te  Te151  1  0.89360970  0.91617819  0.40121374  1
  Te  Te152  1  0.89393180  0.94419469  0.77115062  1
  Te  Te153  1  0.24439096  0.08208183  0.25415007  1
  Te  Te154  1  0.26425022  0.10621145  0.57405306  1
  Te  Te155  1  0.26647683  0.06858068  0.91905188  1
  Te  Te156  1  0.21484578  0.38689431  0.20721437  1
  Te  Te157  1  0.23834826  0.43016867  0.56696110  1
  Te  Te158  1  0.23473148  0.41827598  0.91267334  1
  Te  Te159  1  0.24835271  0.76945465  0.26813116  1
  Te  Te160  1  0.22527167  0.76575745  0.58292801  1
  Te  Te161  1  0.26186967  0.73836614  0.91076135  1
  Te  Te162  1  0.58196155  0.08033799  0.28263409  1
  Te  Te163  1  0.58405383  0.08810305  0.60727061  1
  Te  Te164  1  0.58839674  0.08263220  0.92531759  1
  Te  Te165  1  0.60833471  0.41243428  0.29288845  1
  Te  Te166  1  0.61594315  0.43445151  0.54357645  1
  Te  Te167  1  0.57805781  0.41046732  0.90450711  1
  Te  Te168  1  0.61694037  0.77238228  0.21634462  1
  Te  Te169  1  0.57465706  0.70843694  0.57394126  1
  Te  Te170  1  0.58836914  0.75211252  0.89276460  1
  Te  Te171  1  0.91703384  0.10684971  0.24459885  1
  Te  Te172  1  0.89176182  0.10981667  0.59856123  1
  Te  Te173  1  0.89524616  0.07450422  0.86704257  1
  Te  Te174  1  0.87894574  0.42596172  0.25752394  1
  Te  Te175  1  0.90142228  0.42053016  0.60854985  1
  Te  Te176  1  0.90749988  0.40698666  0.91961581  1
  Te  Te177  1  0.90329265  0.75904766  0.26171295  1
  Te  Te178  1  0.91221826  0.76911103  0.59514948  1
  Te  Te179  1  0.94242155  0.75595309  0.91012982  1
