# generated using pymatgen
data_In2Te3
_symmetry_space_group_name_H-M   'P 1'
_cell_length_a   18.98974536
_cell_length_b   19.03089357
_cell_length_c   18.96493470
_cell_angle_alpha   90.12221861
_cell_angle_beta   90.14745189
_cell_angle_gamma   90.08612696
_symmetry_Int_Tables_number   1
_chemical_formula_structural   In2Te3
_chemical_formula_sum   'In72 Te108'
_cell_volume   6853.72623013
_cell_formula_units_Z   36
loop_
 _symmetry_equiv_pos_site_id
 _symmetry_equiv_pos_as_xyz
  1  'x, y, z'
loop_
 _atom_site_type_symbol
 _atom_site_label
 _atom_site_symmetry_multiplicity
 _atom_site_fract_x
 _atom_site_fract_y
 _atom_site_fract_z
 _atom_site_occupancy
  In  In0  1  0.50263684  0.81011136  -0.00077113  1
  In  In1  1  0.13984080  0.83777060  0.66237098  1
  In  In2  1  0.49198360  0.33151486  0.80895610  1
  In  In3  1  0.33734458  0.16858443  0.18137889  1
  In  In4  1  0.53188394  0.85114844  0.34801680  1
  In  In5  1  0.02786220  0.50510502  0.49140395  1
  In  In6  1  0.52886970  0.52171146  0.09144204  1
  In  In7  1  0.67063702  -0.01540319  0.00664563  1
  In  In8  1  0.17199158  0.66848348  0.15887410  1
  In  In9  1  -0.01307914  0.82235006  0.83358565  1
  In  In10  1  0.16947526  0.16633789  0.01537042  1
  In  In11  1  0.49650007  0.47289655  0.32121900  1
  In  In12  1  0.33616924  -0.01006138  -0.00764741  1
  In  In13  1  0.48863603  0.66034174  0.51906748  1
  In  In14  1  0.00021854  0.64101914  0.66477500  1
  In  In15  1  0.34196703  0.84401616  0.14712168  1
  In  In16  1  0.66549288  0.84169160  0.19371636  1
  In  In17  1  0.33715032  0.47860902  0.47479534  1
  In  In18  1  0.51258572  0.17993250  -0.02835758  1
  In  In19  1  0.83507951  0.33841387  0.49199304  1
  In  In20  1  0.67144294  0.15833083  0.14932301  1
  In  In21  1  -0.03168229  -0.01405058  0.00090888  1
  In  In22  1  0.19100263  0.29554086  0.18915088  1
  In  In23  1  0.82362942  0.16842153  0.34904645  1
  In  In24  1  0.67506659  -0.02088274  0.64334374  1
  In  In25  1  0.16668903  0.47073286  0.32058763  1
  In  In26  1  0.67950705  0.67901992  0.65992704  1
  In  In27  1  0.66009355  0.13935237  0.81431014  1
  In  In28  1  0.33470500  0.33915243  0.64332338  1
  In  In29  1  0.15775905  0.00723918  0.83095413  1
  In  In30  1  0.51368315  0.66757801  0.84216554  1
  In  In31  1  0.00265510  0.67209029  0.32305863  1
  In  In32  1  0.82932688  0.67404615  0.84761600  1
  In  In33  1  0.30966944  0.86328480  0.50946985  1
  In  In34  1  0.02038198  0.34573606  -0.00301610  1
  In  In35  1  0.00783267  0.86706166  0.20319447  1
  In  In36  1  0.86128890  0.83391794  0.66101069  1
  In  In37  1  0.48122042  0.01438104  0.19461303  1
  In  In38  1  0.84525778  0.33897224  0.17282972  1
  In  In39  1  0.82232200  0.13447537  -0.00051567  1
  In  In40  1  0.33017366  0.68378630  0.34259500  1
  In  In41  1  0.66343626  0.49841575  0.49979553  1
  In  In42  1  0.49007720  0.48508775  0.63580540  1
  In  In43  1  0.67561637  0.69560508  0.35910563  1
  In  In44  1  0.80419972  0.48526057  0.65258058  1
  In  In45  1  0.47642333  0.16870254  0.66080223  1
  In  In46  1  0.16022079  0.50305505  -0.02652385  1
  In  In47  1  0.33191142  0.47311491  0.17979277  1
  In  In48  1  0.13078291  0.09622375  0.28148034  1
  In  In49  1  0.00024425  0.46889743  0.81790049  1
  In  In50  1  0.17172927  0.85390614  0.04448848  1
  In  In51  1  -0.02090364  0.84927783  0.46411586  1
  In  In52  1  0.15403489  0.67503323  0.50751864  1
  In  In53  1  0.82748763  0.00070524  0.83021301  1
  In  In54  1  0.16722142  0.01678019  0.50111863  1
  In  In55  1  0.51231595  0.84198849  0.67043818  1
  In  In56  1  0.16415653  0.18997618  0.62178904  1
  In  In57  1  0.17183291  0.33385467  0.81826453  1
  In  In58  1  0.49444526  0.16219651  0.35813224  1
  In  In59  1  0.68549146  0.00697929  0.37553821  1
  In  In60  1  -0.03671141  0.14496506  0.16551742  1
  In  In61  1  -0.02370168  0.18697858  0.70990598  1
  In  In62  1  -0.01446303  0.48159241  0.14035902  1
  In  In63  1  0.83821433  0.50409238  0.33892573  1
  In  In64  1  0.34144581  0.64436191  -0.03605134  1
  In  In65  1  0.68339290  0.33387858  0.01179194  1
  In  In66  1  0.66403036  0.49411298  0.82472722  1
  In  In67  1  0.66821564  0.17572327  0.51403678  1
  In  In68  1  0.31842270  0.77321946  0.83213687  1
  In  In69  1  0.82848000  0.50503333  -0.02300290  1
  In  In70  1  0.31197411  0.02139179  0.67000801  1
  In  In71  1  0.81628838  0.66889856  0.16290282  1
  Te  Te72  1  0.06613038  0.07556328  0.07833205  1
  Te  Te73  1  0.07089600  0.10220431  0.42289157  1
  Te  Te74  1  0.09930581  0.09130035  0.72270917  1
  Te  Te75  1  0.11160896  0.40319826  0.10318684  1
  Te  Te76  1  0.10130956  0.39408153  0.42707672  1
  Te  Te77  1  0.07554126  0.39028507  0.72254926  1
  Te  Te78  1  0.06783032  0.76100023  0.10307983  1
  Te  Te79  1  0.09156977  0.76396708  0.40312445  1
  Te  Te80  1  0.08092895  0.73364504  0.75559585  1
  Te  Te81  1  0.42588691  0.08710903  0.07280169  1
  Te  Te82  1  0.40005329  0.06734632  0.41371064  1
  Te  Te83  1  0.41345293  0.07867057  0.75798002  1
  Te  Te84  1  0.42456404  0.41705713  0.08200758  1
  Te  Te85  1  0.45109225  0.39284138  0.43712001  1
  Te  Te86  1  0.40076830  0.43469063  0.74569869  1
  Te  Te87  1  0.40870229  0.72771740  0.08242788  1
  Te  Te88  1  0.41483363  0.76665428  0.43733888  1
  Te  Te89  1  0.43051497  0.73265547  0.73312755  1
  Te  Te90  1  0.76585358  0.04744355  0.10903532  1
  Te  Te91  1  0.77984892  0.08267192  0.46642838  1
  Te  Te92  1  0.76188023  0.07952333  0.71991109  1
  Te  Te93  1  0.75917359  0.43589501  0.09486678  1
  Te  Te94  1  0.73548098  0.41166433  0.39883270  1
  Te  Te95  1  0.75756948  0.39611548  0.76304092  1
  Te  Te96  1  0.71923315  0.75301974  0.08396056  1
  Te  Te97  1  0.75716077  0.79863549  0.42430403  1
  Te  Te98  1  0.75910003  0.76857083  0.75196231  1
  Te  Te99  1  0.06405884  0.23420497  0.23820727  1
  Te  Te100  1  0.02753742  0.23460262  0.57028870  1
  Te  Te101  1  0.08971854  0.24347962  0.91190634  1
  Te  Te102  1  0.07943901  0.57375509  0.23725984  1
  Te  Te103  1  0.11652904  0.56559100  0.60465213  1
  Te  Te104  1  0.05207265  0.57273853  0.90777643  1
  Te  Te105  1  0.11171705  0.94444907  0.27490165  1
  Te  Te106  1  0.06396076  0.92587719  0.56828301  1
  Te  Te107  1  0.08744206  0.91418305  0.92707160  1
  Te  Te108  1  0.43799230  0.24725840  0.25158175  1
  Te  Te109  1  0.43415850  0.26870400  0.55951634  1
  Te  Te110  1  0.40957328  0.24476966  0.89300549  1
  Te  Te111  1  0.40407739  0.58109118  0.26159440  1
  Te  Te112  1  0.37870862  0.57784144  0.58112088  1
  Te  Te113  1  0.47071324  0.56923715  0.94470831  1
  Te  Te114  1  0.41196702  0.90518999  0.27003823  1
  Te  Te115  1  0.41164562  0.93110200  0.59725929  1
  Te  Te116  1  0.39937568  0.88188533  0.91148336  1
  Te  Te117  1  0.74618113  0.25107083  0.24363463  1
  Te  Te118  1  0.76910177  0.25370239  0.59714892  1
  Te  Te119  1  0.73559551  0.22489402  0.91731474  1
  Te  Te120  1  0.73834805  0.59186359  0.26673624  1
  Te  Te121  1  0.76002047  0.59951664  0.56005624  1
  Te  Te122  1  0.71607644  0.59640364  0.92559873  1
  Te  Te123  1  0.75941182  0.89471793  0.30292971  1
  Te  Te124  1  0.76881124  0.89511728  0.56162226  1
  Te  Te125  1  0.76908112  0.90970772  0.92839753  1
  Te  Te126  1  0.27692671  0.25714367  0.07057838  1
  Te  Te127  1  0.19123169  0.19212574  0.38208501  1
  Te  Te128  1  0.25636723  0.24364314  0.73076504  1
  Te  Te129  1  0.25562954  0.56919373  0.08326779  1
  Te  Te130  1  0.23037806  0.58699766  0.40407824  1
  Te  Te131  1  0.28006927  0.63028709  0.82852246  1
  Te  Te132  1  0.25125067  0.96222666  0.11460403  1
  Te  Te133  1  0.22313207  0.91875544  0.40355266  1
  Te  Te134  1  0.24174884  0.90641694  0.75416104  1
  Te  Te135  1  0.57566670  0.25604108  0.08681073  1
  Te  Te136  1  0.60546130  0.24595092  0.40249370  1
  Te  Te137  1  0.58932374  0.24431857  0.73263758  1
  Te  Te138  1  0.62660268  0.62819332  0.06620750  1
  Te  Te139  1  0.57040987  0.58629836  0.41589069  1
  Te  Te140  1  0.58566474  0.57808952  0.72427004  1
  Te  Te141  1  0.56262039  0.91614981  0.09903857  1
  Te  Te142  1  0.56906278  0.95186038  0.44669123  1
  Te  Te143  1  0.60315431  0.91847980  0.75680991  1
  Te  Te144  1  0.90958255  0.25249676  0.06575434  1
  Te  Te145  1  0.92456772  0.25789072  0.40765146  1
  Te  Te146  1  0.86149438  0.27948073  0.71948532  1
  Te  Te147  1  0.91303002  0.59224144  0.07058024  1
  Te  Te148  1  0.92347422  0.59473475  0.42514352  1
  Te  Te149  1  0.88998679  0.57626353  0.74909574  1
  Te  Te150  1  0.90411747  0.91198332  0.10880508  1
  Te  Te151  1  0.91458283  0.94059214  0.36947506  1
  Te  Te152  1  0.93746594  0.93312279  0.74594557  1
  Te  Te153  1  0.29220732  0.09519483  0.31015875  1
  Te  Te154  1  0.27603992  0.11135507  0.55391917  1
  Te  Te155  1  0.25405641  0.08939684  0.91314108  1
  Te  Te156  1  0.27849679  0.37568086  0.28399838  1
  Te  Te157  1  0.24114785  0.38577558  0.53681902  1
  Te  Te158  1  0.25521734  0.42010603  0.90356961  1
  Te  Te159  1  0.24960149  0.76493989  0.24432958  1
  Te  Te160  1  0.24827108  0.75457511  0.59551315  1
  Te  Te161  1  0.22282452  0.74693934  0.95112872  1
  Te  Te162  1  0.60695583  0.07107632  0.25654543  1
  Te  Te163  1  0.57570483  0.07962217  0.58480405  1
  Te  Te164  1  0.57709137  0.05637137  0.91135996  1
  Te  Te165  1  0.57921337  0.43942737  0.20660169  1
  Te  Te166  1  0.60410060  0.40491161  0.59474572  1
  Te  Te167  1  0.58867022  0.39656313  0.91145121  1
  Te  Te168  1  0.57118532  0.73896716  0.25572097  1
  Te  Te169  1  0.59153066  0.76068250  0.56835590  1
  Te  Te170  1  0.59334864  0.78213335  0.88720025  1
  Te  Te171  1  0.90265093  0.06304634  0.27349178  1
  Te  Te172  1  0.95074213  0.10852032  0.58964541  1
  Te  Te173  1  0.92799898  0.09337434  0.89994098  1
  Te  Te174  1  0.93675400  0.41402908  0.26783477  1
  Te  Te175  1  0.92192247  0.43201849  0.57589834  1
  Te  Te176  1  0.90585461  0.39317110  0.90968032  1
  Te  Te177  1  0.90434540  0.75654818  0.24941637  1
  Te  Te178  1  0.94001004  0.74208506  0.57104327  1
  Te  Te179  1  0.90586778  0.76062678  0.93729071  1
