# generated using pymatgen
data_In2Te3
_symmetry_space_group_name_H-M   'P 1'
_cell_length_a   18.78454268
_cell_length_b   18.78684516
_cell_length_c   18.79048624
_cell_angle_alpha   89.89720172
_cell_angle_beta   89.96977322
_cell_angle_gamma   89.96167197
_symmetry_Int_Tables_number   1
_chemical_formula_structural   In2Te3
_chemical_formula_sum   'In72 Te108'
_cell_volume   6631.19263870
_cell_formula_units_Z   36
loop_
 _symmetry_equiv_pos_site_id
 _symmetry_equiv_pos_as_xyz
  1  'x, y, z'
loop_
 _atom_site_type_symbol
 _atom_site_label
 _atom_site_symmetry_multiplicity
 _atom_site_fract_x
 _atom_site_fract_y
 _atom_site_fract_z
 _atom_site_occupancy
  In  In0  1  0.83733628  0.15380562  0.33820425  1
  In  In1  1  0.83967354  0.34853237  0.85594706  1
  In  In2  1  0.83731219  0.00832554  0.50254286  1
  In  In3  1  0.15830493  0.30660577  0.50746610  1
  In  In4  1  0.15685101  0.48741045  0.68168835  1
  In  In5  1  0.51219439  0.82244988  0.35104018  1
  In  In6  1  -0.02467179  0.02421045  0.32953125  1
  In  In7  1  -0.00850908  0.65054031  0.00146839  1
  In  In8  1  0.70002803  0.33876887  -0.00759185  1
  In  In9  1  0.67496420  0.66180625  0.65330057  1
  In  In10  1  0.12428593  0.47325292  0.00050981  1
  In  In11  1  0.33934589  0.36495961  0.34220266  1
  In  In12  1  0.15760976  0.50128369  0.31301096  1
  In  In13  1  0.52984328  0.19120607  0.32982173  1
  In  In14  1  -0.00139882  0.83669896  0.16491858  1
  In  In15  1  0.83448397  0.34845032  0.15779129  1
  In  In16  1  -0.00908836  0.81638215  0.83093372  1
  In  In17  1  0.32861384  0.66535931  -0.00270133  1
  In  In18  1  -0.02654733  0.48278675  0.50533868  1
  In  In19  1  0.32274165  0.64849399  0.66239751  1
  In  In20  1  0.00352440  0.63643295  0.34410901  1
  In  In21  1  0.84019388  0.65157182  0.15256410  1
  In  In22  1  0.35203464  0.49206554  0.48305391  1
  In  In23  1  -0.01082845  0.82369475  0.52501038  1
  In  In24  1  0.48920157  0.33862712  0.82126337  1
  In  In25  1  -0.01703744  0.65368089  0.68647306  1
  In  In26  1  0.34589480  0.16234954  0.51996661  1
  In  In27  1  0.51237871  0.00017593  0.16726066  1
  In  In28  1  -0.01933693  0.17291542  0.50800285  1
  In  In29  1  0.19020264  0.84693174  -0.00650833  1
  In  In30  1  0.33070769  0.33218528  -0.00730448  1
  In  In31  1  0.66777235  0.00134365  -0.02384753  1
  In  In32  1  0.32232342  -0.01090835  -0.00885049  1
  In  In33  1  0.84062672  0.83637920  0.00790455  1
  In  In34  1  0.34214128  0.82311480  0.48589638  1
  In  In35  1  0.16232410  0.00899588  0.84171320  1
  In  In36  1  0.16199651  0.67098531  0.19301028  1
  In  In37  1  0.52270920  0.83225410  -0.01041303  1
  In  In38  1  0.68614960  0.35879514  0.36030185  1
  In  In39  1  0.50099591  0.15729625  0.66924809  1
  In  In40  1  0.52360367  0.35114327  0.20132699  1
  In  In41  1  0.50663600  0.67553295  0.84458037  1
  In  In42  1  0.82772956  0.49905433  0.66087707  1
  In  In43  1  0.67944323  0.82559946  0.50746837  1
  In  In44  1  0.50593228  0.51781587  0.01313448  1
  In  In45  1  -0.00977261  0.00203097  0.65067298  1
  In  In46  1  0.66465289  0.64629617  0.34804977  1
  In  In47  1  -0.02376705  0.01968574  0.00564569  1
  In  In48  1  0.19409046  0.83220137  0.32952528  1
  In  In49  1  0.18137995  0.66009629  0.49929320  1
  In  In50  1  0.34019130  -0.00424631  0.34031218  1
  In  In51  1  0.83907017  0.81249490  0.67609584  1
  In  In52  1  0.69269813  0.32413871  0.63455259  1
  In  In53  1  0.31046896  0.17466530  0.15309778  1
  In  In54  1  -0.01562690  0.17782147  0.83548214  1
  In  In55  1  0.50632412  0.47672153  0.66034605  1
  In  In56  1  0.32955741  0.31334919  0.66904251  1
  In  In57  1  0.32285763  0.00807664  0.66924967  1
  In  In58  1  0.34623067  0.82843575  0.85124749  1
  In  In59  1  0.80021373  0.84289107  0.30620304  1
  In  In60  1  -0.02074059  0.32809839  0.32408884  1
  In  In61  1  0.33697389  0.51939356  0.17494759  1
  In  In62  1  0.51324104  0.16240393  -0.02489251  1
  In  In63  1  0.68965761  0.52238457  0.86327345  1
  In  In64  1  0.54107554  0.84653120  0.67182314  1
  In  In65  1  0.51806069  0.66059036  0.16824742  1
  In  In66  1  0.52809769  0.01059472  0.52669315  1
  In  In67  1  0.84430306  0.18406554  -0.00285028  1
  In  In68  1  0.13461234  0.17134286  0.33624883  1
  In  In69  1  0.65516313  0.17162226  0.16200244  1
  In  In70  1  0.15638567  0.00084102  0.13553136  1
  In  In71  1  0.15825634  0.32583301  0.82924979  1
  Te  Te72  1  0.07030019  0.10580561  0.08041809  1
  Te  Te73  1  0.07314471  0.07388257  0.43672827  1
  Te  Te74  1  0.07394833  0.08798244  0.74714222  1
  Te  Te75  1  0.05398176  0.38546741  0.09698085  1
  Te  Te76  1  0.08758241  0.41220220  0.41700782  1
  Te  Te77  1  0.05733587  0.39989149  0.74543881  1
  Te  Te78  1  0.08942082  0.75277996  0.07505955  1
  Te  Te79  1  0.08599142  0.74704065  0.41250970  1
  Te  Te80  1  0.08125425  0.75327808  0.73323799  1
  Te  Te81  1  0.42165980  0.08977327  0.08186572  1
  Te  Te82  1  0.43789831  0.08667690  0.41558330  1
  Te  Te83  1  0.41571483  0.07801070  0.75953386  1
  Te  Te84  1  0.42070679  0.41427434  0.09130190  1
  Te  Te85  1  0.46089231  0.41370264  0.41361048  1
  Te  Te86  1  0.38992026  0.42918357  0.74836568  1
  Te  Te87  1  0.42721641  0.74882703  0.07672856  1
  Te  Te88  1  0.42217798  0.72386764  0.41415334  1
  Te  Te89  1  0.42401826  0.75550712  0.73961612  1
  Te  Te90  1  0.74856630  0.09170670  0.07343989  1
  Te  Te91  1  0.73828122  0.08381793  0.42253715  1
  Te  Te92  1  0.68941265  0.04841921  0.73730661  1
  Te  Te93  1  0.73110867  0.43800908  0.09511805  1
  Te  Te94  1  0.76385210  0.44737855  0.45267709  1
  Te  Te95  1  0.73279451  0.41923808  0.75839066  1
  Te  Te96  1  0.75244529  0.75594065  0.09533396  1
  Te  Te97  1  0.76588492  0.74156293  0.41542695  1
  Te  Te98  1  0.73672738  0.74332492  0.75901988  1
  Te  Te99  1  0.08031215  0.26437546  0.23485980  1
  Te  Te100  1  0.06342043  0.25018836  0.60367017  1
  Te  Te101  1  0.06047748  0.26649947  0.92812682  1
  Te  Te102  1  0.05539150  0.56490868  0.21841389  1
  Te  Te103  1  0.07576263  0.58026329  0.57518277  1
  Te  Te104  1  0.07451070  0.57551699  0.90478184  1
  Te  Te105  1  0.08620451  0.92227632  0.25669977  1
  Te  Te106  1  0.08767153  0.90525939  0.59711217  1
  Te  Te107  1  0.06579546  0.91344158  0.93128672  1
  Te  Te108  1  0.41264177  0.24755162  0.24757802  1
  Te  Te109  1  0.43923664  0.26801053  0.57399641  1
  Te  Te110  1  0.40449860  0.23665885  0.89728265  1
  Te  Te111  1  0.44034953  0.57518910  0.26665761  1
  Te  Te112  1  0.43069568  0.58359829  0.57752695  1
  Te  Te113  1  0.41067269  0.57363132  0.90696704  1
  Te  Te114  1  0.42663986  0.90636414  0.25257037  1
  Te  Te115  1  0.42490060  0.91396611  0.58499266  1
  Te  Te116  1  0.43915517  0.93400077  0.90971509  1
  Te  Te117  1  0.74572983  0.25711028  0.24979456  1
  Te  Te118  1  0.78455721  0.23147095  0.56449013  1
  Te  Te119  1  0.74070181  0.23352280  0.89346793  1
  Te  Te120  1  0.75344105  0.57632302  0.24926650  1
  Te  Te121  1  0.73259135  0.56170846  0.55546320  1
  Te  Te122  1  0.79331073  0.59398403  0.94117446  1
  Te  Te123  1  0.73474809  0.95892408  0.25030262  1
  Te  Te124  1  0.75707329  0.91733295  0.59825381  1
  Te  Te125  1  0.75910726  0.90823338  0.90557273  1
  Te  Te126  1  0.22606010  0.25915042  0.06831351  1
  Te  Te127  1  0.25844172  0.24265604  0.40878925  1
  Te  Te128  1  0.24037366  0.23007269  0.74950711  1
  Te  Te129  1  0.23293732  0.57732652  0.07896032  1
  Te  Te130  1  0.25901610  0.58095981  0.39610335  1
  Te  Te131  1  0.23538189  0.58373576  0.76088912  1
  Te  Te132  1  0.27265103  0.90377492  0.10749354  1
  Te  Te133  1  0.24235648  0.92991342  0.43728181  1
  Te  Te134  1  0.24928759  0.91154902  0.76356413  1
  Te  Te135  1  0.57243772  0.26491334  0.07340075  1
  Te  Te136  1  0.61367000  0.25104960  0.43377557  1
  Te  Te137  1  0.58916707  0.26435727  0.73569052  1
  Te  Te138  1  0.61272543  0.59962953  0.07131054  1
  Te  Te139  1  0.55555589  0.54681026  0.38101339  1
  Te  Te140  1  0.58408135  0.57551404  0.75229649  1
  Te  Te141  1  0.60768001  0.91171664  0.08862759  1
  Te  Te142  1  0.59997589  0.92454139  0.42308925  1
  Te  Te143  1  0.60781298  0.92964734  0.77262101  1
  Te  Te144  1  0.93335135  0.29860830  0.05065377  1
  Te  Te145  1  0.88788348  0.27066564  0.43292178  1
  Te  Te146  1  0.89703786  0.26317352  0.74922293  1
  Te  Te147  1  0.89833877  0.54127487  0.06025776  1
  Te  Te148  1  0.89124098  0.55404930  0.40175349  1
  Te  Te149  1  0.91132295  0.55577575  0.77376996  1
  Te  Te150  1  0.89947724  0.93705746  0.11000795  1
  Te  Te151  1  0.91437177  0.90785243  0.41152661  1
  Te  Te152  1  0.91068506  0.92226043  0.75548669  1
  Te  Te153  1  0.24093874  0.07820731  0.25413352  1
  Te  Te154  1  0.23483432  0.09773739  0.59067340  1
  Te  Te155  1  0.23570863  0.09419782  0.93655937  1
  Te  Te156  1  0.24588102  0.40640840  0.22951773  1
  Te  Te157  1  0.24967342  0.41886556  0.57186511  1
  Te  Te158  1  0.24274375  0.42586211  0.91121354  1
  Te  Te159  1  0.27735662  0.74250985  0.24786979  1
  Te  Te160  1  0.24725165  0.76124584  0.59110795  1
  Te  Te161  1  0.23369131  0.73553237  0.89916349  1
  Te  Te162  1  0.61147839  0.06513277  0.26452763  1
  Te  Te163  1  0.62506802  0.09744139  0.60103499  1
  Te  Te164  1  0.60087731  0.09471249  0.87486811  1
  Te  Te165  1  0.62018507  0.45164608  0.25739690  1
  Te  Te166  1  0.61079189  0.42984161  0.56387519  1
  Te  Te167  1  0.57871202  0.41757260  0.91775584  1
  Te  Te168  1  0.60586093  0.75332838  0.25270782  1
  Te  Te169  1  0.57207634  0.73660036  0.56846746  1
  Te  Te170  1  0.61627941  0.75123054  0.90713182  1
  Te  Te171  1  0.92487402  0.11472974  0.22462650  1
  Te  Te172  1  0.87720796  0.10947737  0.61342243  1
  Te  Te173  1  0.88668962  0.07492426  0.89604914  1
  Te  Te174  1  0.90032916  0.43555333  0.26003513  1
  Te  Te175  1  0.92490939  0.39421073  0.61433706  1
  Te  Te176  1  0.90202773  0.47190854  0.91685025  1
  Te  Te177  1  0.92294177  0.74216088  0.25708302  1
  Te  Te178  1  0.89730212  0.71322175  0.57315526  1
  Te  Te179  1  0.89480430  0.72545389  0.90592889  1
