# generated using pymatgen
data_In2Te3
_symmetry_space_group_name_H-M   'P 1'
_cell_length_a   18.98668828
_cell_length_b   18.97630242
_cell_length_c   18.98769093
_cell_angle_alpha   89.88895660
_cell_angle_beta   89.99538283
_cell_angle_gamma   90.03924533
_symmetry_Int_Tables_number   1
_chemical_formula_structural   In2Te3
_chemical_formula_sum   'In72 Te108'
_cell_volume   6841.19623568
_cell_formula_units_Z   36
loop_
 _symmetry_equiv_pos_site_id
 _symmetry_equiv_pos_as_xyz
  1  'x, y, z'
loop_
 _atom_site_type_symbol
 _atom_site_label
 _atom_site_symmetry_multiplicity
 _atom_site_fract_x
 _atom_site_fract_y
 _atom_site_fract_z
 _atom_site_occupancy
  In  In0  1  0.64691661  0.51870643  0.51429668  1
  In  In1  1  0.32837933  0.47030175  0.20103138  1
  In  In2  1  0.15396445  0.48868812  0.34826406  1
  In  In3  1  0.34637093  0.48367802  0.81383558  1
  In  In4  1  0.48716569  0.00089683  0.82925796  1
  In  In5  1  0.30934351  0.15337892  0.84027629  1
  In  In6  1  -0.00027139  0.17725996  0.49809143  1
  In  In7  1  0.14746377  0.70861423  0.82988009  1
  In  In8  1  0.53297782  0.64107874  0.14967327  1
  In  In9  1  0.68288538  0.15993232  0.50468737  1
  In  In10  1  0.33964674  0.65128962  0.65909921  1
  In  In11  1  0.51241345  0.02161817  0.50539853  1
  In  In12  1  0.50657394  0.14264800  0.31285562  1
  In  In13  1  0.68085005  0.69282428  0.67587253  1
  In  In14  1  0.82571664  0.33662156  0.84085994  1
  In  In15  1  0.31549788  0.83593021  0.81394272  1
  In  In16  1  0.13608260  0.01118483  0.17301857  1
  In  In17  1  0.32536108  0.33816216  0.00181202  1
  In  In18  1  0.84554399  0.00996291  0.16677843  1
  In  In19  1  -0.01879753  0.53074932  0.81623092  1
  In  In20  1  0.14403729  0.66934136  0.14165361  1
  In  In21  1  0.83756028  0.51921131  -0.00616084  1
  In  In22  1  0.01152976  0.78757146  0.29906153  1
  In  In23  1  -0.02401315  0.29408677  0.01132770  1
  In  In24  1  -0.00336570  0.49047442  0.15087936  1
  In  In25  1  0.32666907  0.31315109  0.34611584  1
  In  In26  1  0.33972631  0.83206063  0.16652387  1
  In  In27  1  0.35066733  0.85219028  0.49109941  1
  In  In28  1  0.66102494  0.48366156  0.81939302  1
  In  In29  1  0.51301049  0.49399872  0.35506976  1
  In  In30  1  0.17007806  0.01040544  0.48553869  1
  In  In31  1  0.69054533  0.31300645  0.02504441  1
  In  In32  1  0.51735292  0.82331756  0.01628031  1
  In  In33  1  -0.04437778  -0.00246979  0.67489514  1
  In  In34  1  0.33103938  -0.02043476  0.32200699  1
  In  In35  1  0.83724149  0.01174719  0.48358707  1
  In  In36  1  0.67665917  0.49256352  0.18256983  1
  In  In37  1  0.70022715  -0.00747143  0.66354063  1
  In  In38  1  0.16556852  0.84043651  0.65771758  1
  In  In39  1  0.14976593  0.48944867  -0.00465760  1
  In  In40  1  0.00968559  0.30972122  0.31409901  1
  In  In41  1  -0.00848116  0.33895202  0.66068529  1
  In  In42  1  0.49897740  0.16622880  -0.00397879  1
  In  In43  1  0.49893164  0.34186921  0.51597597  1
  In  In44  1  0.52679995  0.66488473  0.86110961  1
  In  In45  1  0.84422500  0.67946345  0.50184297  1
  In  In46  1  0.49115595  0.66672519  0.49050757  1
  In  In47  1  0.30155109  0.66145505  -0.00968930  1
  In  In48  1  0.66810570  0.30285111  0.32521422  1
  In  In49  1  0.33271339  0.14665968  0.16339458  1
  In  In50  1  0.50388521  0.83614257  0.67300120  1
  In  In51  1  -0.01706018  0.83729935  0.49793401  1
  In  In52  1  -0.03659966  0.13572570  0.84971675  1
  In  In53  1  0.69884660  0.86021577  0.15277965  1
  In  In54  1  0.53353477  0.83162164  0.33682692  1
  In  In55  1  0.73194463  0.70582085  0.32345151  1
  In  In56  1  0.82818863  0.32905236  0.49442704  1
  In  In57  1  0.33475030  0.00970665  0.00044425  1
  In  In58  1  0.33731688  0.31824938  0.68808994  1
  In  In59  1  0.31556226  0.17954370  0.50914316  1
  In  In60  1  0.30145027  0.64428082  0.32163358  1
  In  In61  1  0.68012617  0.14413283  0.16663658  1
  In  In62  1  0.82509208  0.85801664  -0.02731003  1
  In  In63  1  0.68030876  0.67102937  -0.01358357  1
  In  In64  1  0.00770859  0.53189887  0.53846968  1
  In  In65  1  0.50236617  0.45545003  -0.02423330  1
  In  In66  1  0.67003637  0.16512997  0.83113050  1
  In  In67  1  0.15879474  0.33413226  0.52198892  1
  In  In68  1  0.84049325  0.50350326  0.35514702  1
  In  In69  1  -0.02128608  0.72058529  -0.02463618  1
  In  In70  1  0.13966696  0.13618601  0.00900072  1
  In  In71  1  0.16833819  0.50107689  0.67854274  1
  Te  Te72  1  0.04603277  0.02941693  0.05515709  1
  Te  Te73  1  0.06865686  0.08450949  0.40635810  1
  Te  Te74  1  0.05069575  0.04508837  0.77636143  1
  Te  Te75  1  0.08183212  0.38688834  0.08120277  1
  Te  Te76  1  0.05814739  0.40585573  0.43389822  1
  Te  Te77  1  0.07114926  0.42069866  0.76117336  1
  Te  Te78  1  0.07450723  0.78019450  0.07659590  1
  Te  Te79  1  0.07604664  0.75045878  0.42425475  1
  Te  Te80  1  0.06020724  0.81142900  0.76736468  1
  Te  Te81  1  0.43956413  0.06536668  0.09476039  1
  Te  Te82  1  0.40012774  0.08151126  0.41236005  1
  Te  Te83  1  0.41702804  0.10261624  0.75346927  1
  Te  Te84  1  0.42211428  0.40780513  0.09495163  1
  Te  Te85  1  0.40204910  0.41782127  0.42543710  1
  Te  Te86  1  0.44555158  0.39765146  0.75239501  1
  Te  Te87  1  0.41278802  0.72664040  0.08330866  1
  Te  Te88  1  0.40862854  0.74798118  0.39114813  1
  Te  Te89  1  0.42530861  0.74012131  0.76546653  1
  Te  Te90  1  0.75649376  0.07099574  0.06196301  1
  Te  Te91  1  0.74495043  0.08729983  0.39391092  1
  Te  Te92  1  0.77102520  0.08968370  0.75203440  1
  Te  Te93  1  0.77480730  0.41958942  0.09132002  1
  Te  Te94  1  0.72715102  0.41979099  0.41248818  1
  Te  Te95  1  0.78008607  0.43942429  0.74669290  1
  Te  Te96  1  0.76999230  0.75095886  0.07511686  1
  Te  Te97  1  0.75453471  0.78532911  0.44664629  1
  Te  Te98  1  0.76954784  0.78366989  0.75036034  1
  Te  Te99  1  0.04893153  0.21640530  0.20458575  1
  Te  Te100  1  0.08775797  0.23307065  0.60966503  1
  Te  Te101  1  0.07050028  0.23129685  0.91353892  1
  Te  Te102  1  0.08113627  0.57621751  0.24381520  1
  Te  Te103  1  0.10176290  0.61738431  0.61400007  1
  Te  Te104  1  0.08005404  0.59950200  0.91770740  1
  Te  Te105  1  0.05167947  0.92644690  0.26810754  1
  Te  Te106  1  0.07060546  0.93703264  0.58448545  1
  Te  Te107  1  0.04283281  0.84502786  0.91444609  1
  Te  Te108  1  0.41518757  0.24464921  0.24485513  1
  Te  Te109  1  0.42617192  0.23512145  0.59502592  1
  Te  Te110  1  0.40728386  0.24937190  0.91155982  1
  Te  Te111  1  0.42669745  0.57774104  0.25222915  1
  Te  Te112  1  0.43099152  0.56926829  0.58109556  1
  Te  Te113  1  0.41723422  0.57326366  0.92763385  1
  Te  Te114  1  0.44200801  0.91291683  0.24352588  1
  Te  Te115  1  0.42146441  0.93588000  0.59444525  1
  Te  Te116  1  0.41361927  0.89963736  0.92567114  1
  Te  Te117  1  0.76343067  0.25191047  0.22692155  1
  Te  Te118  1  0.73906291  0.26452922  0.59015718  1
  Te  Te119  1  0.77259300  0.22906703  0.93346942  1
  Te  Te120  1  0.77925619  0.58520561  0.24145161  1
  Te  Te121  1  0.75496769  0.59179678  0.59001215  1
  Te  Te122  1  0.75615081  0.58570975  0.88583191  1
  Te  Te123  1  0.78427827  0.91181455  0.26279080  1
  Te  Te124  1  0.76493780  0.90663795  0.56140891  1
  Te  Te125  1  0.79582247  0.97524886  0.87626451  1
  Te  Te126  1  0.24578885  0.22950236  0.07188742  1
  Te  Te127  1  0.21366243  0.24057135  0.41519073  1
  Te  Te128  1  0.23149977  0.25041827  0.76164450  1
  Te  Te129  1  0.25084813  0.55646405  0.09584974  1
  Te  Te130  1  0.24101818  0.57168976  0.43144084  1
  Te  Te131  1  0.25002189  0.60217582  0.77397884  1
  Te  Te132  1  0.24953486  0.93234791  0.09973775  1
  Te  Te133  1  0.23469642  0.89760229  0.40446406  1
  Te  Te134  1  0.25323255  0.93546024  0.72895214  1
  Te  Te135  1  0.57959956  0.24257156  0.09834969  1
  Te  Te136  1  0.56361512  0.23956553  0.41813103  1
  Te  Te137  1  0.59457755  0.27764553  0.77671046  1
  Te  Te138  1  0.60656904  0.54656735  0.04973860  1
  Te  Te139  1  0.60422169  0.60864182  0.39650805  1
  Te  Te140  1  0.58357026  0.59091480  0.74384187  1
  Te  Te141  1  0.60013609  0.92977407  0.07094674  1
  Te  Te142  1  0.59305975  0.92628112  0.42952539  1
  Te  Te143  1  0.59504225  0.92303354  0.75374919  1
  Te  Te144  1  0.91067191  0.22125474  0.12383363  1
  Te  Te145  1  0.90243106  0.24070434  0.39818574  1
  Te  Te146  1  0.91438677  0.24954294  0.75420920  1
  Te  Te147  1  0.93238901  0.60391529  0.07324699  1
  Te  Te148  1  0.94115146  0.59712188  0.41819219  1
  Te  Te149  1  0.95780588  0.61689428  0.69992190  1
  Te  Te150  1  0.91976328  0.91812222  0.07385707  1
  Te  Te151  1  0.95104712  0.95320150  0.40554673  1
  Te  Te152  1  0.86789814  0.90572327  0.75457927  1
  Te  Te153  1  0.23824016  0.08370953  0.26212793  1
  Te  Te154  1  0.24633598  0.07968491  0.58998763  1
  Te  Te155  1  0.22160786  0.04946431  0.91059348  1
  Te  Te156  1  0.22059941  0.38369775  0.25792542  1
  Te  Te157  1  0.26084180  0.41704291  0.59550029  1
  Te  Te158  1  0.24135587  0.41408949  0.90124122  1
  Te  Te159  1  0.23372104  0.74991331  0.23779973  1
  Te  Te160  1  0.26910416  0.75724398  0.57879961  1
  Te  Te161  1  0.23615523  0.78311972  0.93305911  1
  Te  Te162  1  0.62044982  0.05867797  0.27376135  1
  Te  Te163  1  0.59615076  0.09240054  0.60919501  1
  Te  Te164  1  0.58731544  0.07162016  0.91916552  1
  Te  Te165  1  0.57529335  0.40438878  0.25090096  1
  Te  Te166  1  0.60421279  0.40526656  0.59603476  1
  Te  Te167  1  0.60148481  0.36240571  0.90388832  1
  Te  Te168  1  0.60627744  0.75033798  0.22671823  1
  Te  Te169  1  0.58243270  0.75468743  0.57369986  1
  Te  Te170  1  0.61334100  0.78021964  0.90451392  1
  Te  Te171  1  0.93768787  0.10952132  0.23103011  1
  Te  Te172  1  0.89781031  0.10667270  0.58477952  1
  Te  Te173  1  0.88469996  0.06886119  0.95813625  1
  Te  Te174  1  0.91675251  0.41516643  0.25606080  1
  Te  Te175  1  0.90292644  0.43165632  0.58069763  1
  Te  Te176  1  0.93089618  0.41992167  0.92512940  1
  Te  Te177  1  0.86686273  0.76996182  0.28002572  1
  Te  Te178  1  0.92867556  0.74582078  0.60586642  1
  Te  Te179  1  0.86625922  0.74835469  0.87583377  1
