# generated using pymatgen
data_In2Te3
_symmetry_space_group_name_H-M   'P 1'
_cell_length_a   18.77351538
_cell_length_b   18.78312766
_cell_length_c   18.78197753
_cell_angle_alpha   89.89586932
_cell_angle_beta   90.11912539
_cell_angle_gamma   90.03443211
_symmetry_Int_Tables_number   1
_chemical_formula_structural   In2Te3
_chemical_formula_sum   'In72 Te108'
_cell_volume   6622.97470657
_cell_formula_units_Z   36
loop_
 _symmetry_equiv_pos_site_id
 _symmetry_equiv_pos_as_xyz
  1  'x, y, z'
loop_
 _atom_site_type_symbol
 _atom_site_label
 _atom_site_symmetry_multiplicity
 _atom_site_fract_x
 _atom_site_fract_y
 _atom_site_fract_z
 _atom_site_occupancy
  In  In0  1  0.33016639  0.64481679  0.66588914  1
  In  In1  1  0.34989385  -0.01695279  0.32104571  1
  In  In2  1  0.16281335  0.81347803  0.67892341  1
  In  In3  1  0.67552270  0.00062388  -0.00636224  1
  In  In4  1  0.16343271  0.50967214  0.32869306  1
  In  In5  1  0.80937079  0.17616133  0.31000516  1
  In  In6  1  0.16060676  0.35942828  0.16918237  1
  In  In7  1  0.34236854  0.34109612  0.65124601  1
  In  In8  1  -0.04164848  -0.00337796  0.33236243  1
  In  In9  1  -0.01123040  0.66539050  0.65944053  1
  In  In10  1  0.16137669  0.15441148  -0.01865903  1
  In  In11  1  -0.01150699  0.49645906  0.82786833  1
  In  In12  1  0.51967915  0.17873209  0.33087211  1
  In  In13  1  0.33227461  0.66023283  0.00895965  1
  In  In14  1  0.51295128  0.00841587  0.82886645  1
  In  In15  1  0.82232671  0.00511065  0.83076932  1
  In  In16  1  -0.00218316  0.00069981  0.70220242  1
  In  In17  1  0.52685515  0.31353963  0.78981911  1
  In  In18  1  0.17391741  0.66748867  0.83168187  1
  In  In19  1  0.16788653  0.18561717  0.34644423  1
  In  In20  1  0.81782944  0.18721506  -0.00273724  1
  In  In21  1  0.36485885  0.16033293  0.15470668  1
  In  In22  1  0.15279812  0.48551876  0.00461722  1
  In  In23  1  0.49240016  0.50169644  0.65736058  1
  In  In24  1  0.64508634  0.00630022  0.32602773  1
  In  In25  1  0.14363829  0.17325294  0.65932967  1
  In  In26  1  0.36823418  0.79892253  0.46167157  1
  In  In27  1  0.65065353  0.50802087  0.19487394  1
  In  In28  1  0.32887969  0.82969412  0.18285515  1
  In  In29  1  0.35634084  0.19325996  0.51059781  1
  In  In30  1  0.31381739  0.32815842  -0.00626250  1
  In  In31  1  0.66829295  0.33381115  -0.01968164  1
  In  In32  1  0.16018643  0.32996305  0.52106516  1
  In  In33  1  0.14453011  0.33797869  0.82229095  1
  In  In34  1  0.17503940  -0.00073813  0.15683521  1
  In  In35  1  0.65207053  0.80426465  0.17878004  1
  In  In36  1  0.67433767  0.82642608  0.50246243  1
  In  In37  1  0.82171479  -0.01660094  0.52153798  1
  In  In38  1  -0.01101717  0.34967867  0.32649824  1
  In  In39  1  0.84427151  0.64355047  0.50973362  1
  In  In40  1  0.35007926  0.52457395  0.19253842  1
  In  In41  1  0.01628495  0.17920387  0.49056516  1
  In  In42  1  0.02612876  -0.02093113  -0.01322844  1
  In  In43  1  0.68995685  0.67680919  0.65975018  1
  In  In44  1  0.16597436  0.65056620  0.50563623  1
  In  In45  1  0.49227355  0.14753066  0.00862870  1
  In  In46  1  0.50375949  0.34175446  0.17320039  1
  In  In47  1  0.67932954  0.18442822  0.51660813  1
  In  In48  1  -0.01501996  0.18429392  0.82636859  1
  In  In49  1  0.65174592  0.50811294  0.48280333  1
  In  In50  1  0.50297521  0.50845385  -0.00619118  1
  In  In51  1  0.36361935  0.48583037  0.45938464  1
  In  In52  1  0.84369851  0.50962986  -0.00629047  1
  In  In53  1  0.83688654  0.18411659  0.66396993  1
  In  In54  1  0.52964058  0.00624108  0.50236013  1
  In  In55  1  0.16914621  -0.01546534  0.51961379  1
  In  In56  1  0.50267031  0.82490442  0.00299759  1
  In  In57  1  0.82303037  0.82242199  0.34535168  1
  In  In58  1  0.33139923  0.15615254  0.84911925  1
  In  In59  1  0.83439314  0.36677664  0.51153037  1
  In  In60  1  0.16256123  0.80581675  0.32687179  1
  In  In61  1  0.35103495  -0.00845308  0.68634340  1
  In  In62  1  0.84130825  0.00916603  0.15684634  1
  In  In63  1  0.32565543  0.82927295  0.82539915  1
  In  In64  1  0.51476413  0.65714041  0.84013169  1
  In  In65  1  0.67474697  0.65861051  -0.00409550  1
  In  In66  1  0.51858963  0.84598998  0.65652759  1
  In  In67  1  -0.00547038  0.65220847  0.33570533  1
  In  In68  1  0.85323335  0.68165023  0.85742873  1
  In  In69  1  0.81650332  0.65052775  0.16286389  1
  In  In70  1  0.82486740  0.34056102  0.17414058  1
  In  In71  1  0.01424428  0.83368933  0.14379884  1
  Te  Te72  1  0.07105108  0.08637240  0.08624527  1
  Te  Te73  1  0.08525123  0.06708220  0.41202045  1
  Te  Te74  1  0.09693385  0.08928874  0.77807321  1
  Te  Te75  1  0.05227230  0.41481972  0.08697502  1
  Te  Te76  1  0.08165195  0.42140245  0.42404488  1
  Te  Te77  1  0.08366460  0.43588788  0.72804569  1
  Te  Te78  1  0.06661740  0.73985554  0.04356914  1
  Te  Te79  1  0.07105301  0.74645613  0.43250382  1
  Te  Te80  1  0.05887966  0.75606416  0.77420512  1
  Te  Te81  1  0.40571530  0.04622398  0.07326370  1
  Te  Te82  1  0.41822954  0.08518859  0.41891018  1
  Te  Te83  1  0.43045030  0.10694894  0.74175353  1
  Te  Te84  1  0.40369153  0.42271317  0.07844595  1
  Te  Te85  1  0.47026936  0.39278101  0.41187543  1
  Te  Te86  1  0.41577375  0.41819246  0.76049369  1
  Te  Te87  1  0.42780460  0.73473962  0.09956120  1
  Te  Te88  1  0.44495813  0.73168142  0.35298259  1
  Te  Te89  1  0.42417390  0.74758226  0.74216560  1
  Te  Te90  1  0.73708346  0.10013194  0.09448178  1
  Te  Te91  1  0.75060264  0.07572902  0.41927754  1
  Te  Te92  1  0.74087378  0.10351010  0.74829692  1
  Te  Te93  1  0.72811660  0.43628240  0.07713585  1
  Te  Te94  1  0.75404474  0.43065298  0.40516424  1
  Te  Te95  1  0.74417488  0.40668536  0.83577930  1
  Te  Te96  1  0.75603968  0.76112122  0.07553205  1
  Te  Te97  1  0.74247666  0.71891941  0.41890420  1
  Te  Te98  1  0.76692410  0.75466036  0.76066335  1
  Te  Te99  1  0.07704487  0.25383100  0.24591483  1
  Te  Te100  1  0.03777350  0.27878851  0.60831727  1
  Te  Te101  1  0.06956665  0.26468863  0.93163437  1
  Te  Te102  1  0.08489187  0.59276241  0.23507989  1
  Te  Te103  1  0.07330225  0.56881491  0.58546216  1
  Te  Te104  1  0.07580412  0.58513204  0.91765887  1
  Te  Te105  1  0.07609606  0.92163946  0.25824511  1
  Te  Te106  1  0.06899159  0.90515481  0.59848715  1
  Te  Te107  1  0.05610411  0.87091614  0.89114162  1
  Te  Te108  1  0.40709897  0.25833200  0.26062357  1
  Te  Te109  1  0.45571242  0.26465198  0.59291961  1
  Te  Te110  1  0.42728448  0.26018003  0.91746501  1
  Te  Te111  1  0.45326983  0.58540384  0.28310922  1
  Te  Te112  1  0.42110923  0.59304383  0.55672266  1
  Te  Te113  1  0.39979047  0.57726120  0.90070412  1
  Te  Te114  1  0.44402973  0.90405358  0.24213974  1
  Te  Te115  1  0.41002666  0.91905877  0.56669168  1
  Te  Te116  1  0.42065290  0.91529967  0.90979046  1
  Te  Te117  1  0.71687249  0.27218238  0.24997839  1
  Te  Te118  1  0.73842005  0.29323192  0.60874256  1
  Te  Te119  1  0.75392736  0.26301554  0.87321948  1
  Te  Te120  1  0.75546103  0.57618863  0.27557906  1
  Te  Te121  1  0.75280587  0.55407798  0.59477444  1
  Te  Te122  1  0.74118724  0.57045205  0.89260539  1
  Te  Te123  1  0.75239727  0.92161189  0.25049341  1
  Te  Te124  1  0.72671386  0.91412957  0.61071128  1
  Te  Te125  1  0.75541689  0.90407707  0.91770064  1
  Te  Te126  1  0.24105032  0.23884007  0.09319456  1
  Te  Te127  1  0.26431778  0.27642400  0.42104860  1
  Te  Te128  1  0.25210219  0.25095076  0.74633980  1
  Te  Te129  1  0.24135348  0.57401456  0.09520720  1
  Te  Te130  1  0.26490861  0.59543577  0.40527405  1
  Te  Te131  1  0.23148923  0.56597462  0.74009734  1
  Te  Te132  1  0.24265163  0.89545859  0.07949578  1
  Te  Te133  1  0.24930141  0.90783639  0.41140157  1
  Te  Te134  1  0.23212666  0.92883861  0.75621313  1
  Te  Te135  1  0.58206852  0.25113245  0.08065394  1
  Te  Te136  1  0.58692683  0.26717750  0.43080552  1
  Te  Te137  1  0.63024987  0.22365461  0.73420779  1
  Te  Te138  1  0.57351908  0.59788987  0.09349226  1
  Te  Te139  1  0.56179048  0.59685966  0.39862552  1
  Te  Te140  1  0.59568263  0.57964746  0.73964581  1
  Te  Te141  1  0.59038145  0.91419563  0.09054822  1
  Te  Te142  1  0.57544153  0.89760244  0.40708389  1
  Te  Te143  1  0.60251987  0.91644666  0.75484193  1
  Te  Te144  1  0.91132725  0.26273499  0.08187276  1
  Te  Te145  1  0.90196453  0.24766777  0.41516253  1
  Te  Te146  1  0.90380752  0.28565512  0.75308670  1
  Te  Te147  1  0.92715497  0.58822534  0.08769390  1
  Te  Te148  1  0.91797065  0.55485039  0.41643891  1
  Te  Te149  1  0.89292647  0.58209450  0.74521268  1
  Te  Te150  1  0.90771918  0.91301407  0.06315584  1
  Te  Te151  1  0.91880855  0.89625064  0.44016169  1
  Te  Te152  1  0.89355930  0.90611692  0.74441128  1
  Te  Te153  1  0.25234098  0.08955985  0.26053912  1
  Te  Te154  1  0.25320347  0.09565208  0.58407932  1
  Te  Te155  1  0.25811045  0.05657294  0.92934705  1
  Te  Te156  1  0.26772316  0.41633406  0.26200984  1
  Te  Te157  1  0.25948526  0.43648229  0.56827492  1
  Te  Te158  1  0.24650107  0.42525902  0.89947480  1
  Te  Te159  1  0.24440948  0.72072113  0.24045361  1
  Te  Te160  1  0.26154306  0.75982380  0.57606948  1
  Te  Te161  1  0.24413732  0.76032600  0.93391626  1
  Te  Te162  1  0.56709898  0.08403704  0.22860197  1
  Te  Te163  1  0.60063674  0.08835362  0.60092554  1
  Te  Te164  1  0.59978759  0.10471433  0.90996095  1
  Te  Te165  1  0.56207536  0.42365502  0.28708820  1
  Te  Te166  1  0.57590185  0.41303013  0.57289393  1
  Te  Te167  1  0.57757771  0.42305981  0.89244244  1
  Te  Te168  1  0.58500767  0.71521702  0.27790700  1
  Te  Te169  1  0.57413174  0.73252097  0.57296833  1
  Te  Te170  1  0.60193585  0.76191124  0.90590541  1
  Te  Te171  1  0.92552033  0.10967403  0.23551603  1
  Te  Te172  1  0.92843747  0.08276016  0.58212489  1
  Te  Te173  1  0.91828789  0.08571945  0.92548452  1
  Te  Te174  1  0.90593302  0.44198253  0.24723550  1
  Te  Te175  1  0.94217410  0.40170269  0.60595059  1
  Te  Te176  1  0.90903534  0.40180507  0.91286335  1
  Te  Te177  1  0.91619211  0.75857921  0.24350578  1
  Te  Te178  1  0.89931282  0.75784629  0.58675841  1
  Te  Te179  1  0.95100199  0.76208999  0.94422364  1
