# generated using pymatgen
data_In2Te3
_symmetry_space_group_name_H-M   'P 1'
_cell_length_a   18.95765650
_cell_length_b   18.94264887
_cell_length_c   18.94575563
_cell_angle_alpha   89.89782870
_cell_angle_beta   89.77612008
_cell_angle_gamma   89.74076686
_symmetry_Int_Tables_number   1
_chemical_formula_structural   In2Te3
_chemical_formula_sum   'In72 Te108'
_cell_volume   6803.44459981
_cell_formula_units_Z   36
loop_
 _symmetry_equiv_pos_site_id
 _symmetry_equiv_pos_as_xyz
  1  'x, y, z'
loop_
 _atom_site_type_symbol
 _atom_site_label
 _atom_site_symmetry_multiplicity
 _atom_site_fract_x
 _atom_site_fract_y
 _atom_site_fract_z
 _atom_site_occupancy
  In  In0  1  0.80048775  -0.01333851  0.20156284  1
  In  In1  1  0.82121821  0.63460258  0.82539815  1
  In  In2  1  0.34992458  0.67346503  0.03598777  1
  In  In3  1  0.85572838  0.81114467  0.68368219  1
  In  In4  1  0.17607166  0.68017801  0.16601144  1
  In  In5  1  0.33321552  0.02030479  0.31362896  1
  In  In6  1  0.81859971  0.48798087  0.64512339  1
  In  In7  1  0.50063374  0.66085766  0.82247432  1
  In  In8  1  0.51257565  0.50070556  0.33357913  1
  In  In9  1  0.02741973  0.04290744  0.01078795  1
  In  In10  1  0.83289107  0.16142626  0.67580023  1
  In  In11  1  0.86139626  0.01469376  0.82063584  1
  In  In12  1  0.00333268  0.84832037  0.17853894  1
  In  In13  1  0.66212332  0.49011165  0.85014786  1
  In  In14  1  0.02036426  0.03951859  0.64293163  1
  In  In15  1  0.79490305  0.01315796  0.45176208  1
  In  In16  1  0.08890495  0.45764603  0.01180648  1
  In  In17  1  -0.03837541  0.19635752  0.48359507  1
  In  In18  1  0.53920564  0.85658487  -0.02278085  1
  In  In19  1  0.14261326  0.48646422  0.31267190  1
  In  In20  1  0.32026195  0.34320387  0.32467608  1
  In  In21  1  0.34053698  0.15574282  0.49574711  1
  In  In22  1  -0.03639394  0.65382742  0.00410626  1
  In  In23  1  0.34540768  0.66229540  0.64058330  1
  In  In24  1  0.17666154  0.65578070  0.85576143  1
  In  In25  1  0.83106345  0.33672390  0.18480516  1
  In  In26  1  0.13652969  0.64158523  0.49747248  1
  In  In27  1  0.01919636  0.82905582  0.86414400  1
  In  In28  1  0.31434148  0.03186832  -0.02318607  1
  In  In29  1  0.51988863  0.15128543  0.66114195  1
  In  In30  1  0.49141215  0.48154654  -0.00060788  1
  In  In31  1  -0.02504663  0.65439285  0.34509492  1
  In  In32  1  0.67943209  -0.00663097  0.65934757  1
  In  In33  1  0.31484283  0.48332936  0.82550022  1
  In  In34  1  0.69017365  0.83219701  0.83268999  1
  In  In35  1  0.34891332  -0.00729351  0.65510453  1
  In  In36  1  0.14721972  0.45674442  0.70055095  1
  In  In37  1  0.82984381  0.64851839  0.16913847  1
  In  In38  1  0.16265376  0.20655330  0.68704501  1
  In  In39  1  0.52083647  0.82417596  0.35147740  1
  In  In40  1  0.01297042  0.21165123  0.85086377  1
  In  In41  1  0.20933986  0.84118527  0.66981176  1
  In  In42  1  0.52360187  0.18681476  0.35555236  1
  In  In43  1  -0.00054031  0.18982808  0.16721603  1
  In  In44  1  0.64577464  0.33762155  0.64794968  1
  In  In45  1  0.46210755  0.18183652  -0.02175167  1
  In  In46  1  0.16205835  0.85968640  0.02040978  1
  In  In47  1  0.01525464  0.00675676  0.32167840  1
  In  In48  1  0.67842108  0.82602796  0.49432227  1
  In  In49  1  0.48372822  0.33628668  0.14902471  1
  In  In50  1  0.31901259  0.82864536  0.81264347  1
  In  In51  1  0.01962849  0.63716653  0.68698043  1
  In  In52  1  0.15816186  0.01729829  0.49596081  1
  In  In53  1  0.33744563  0.83121302  0.14431025  1
  In  In54  1  0.82019847  0.83633728  0.04219852  1
  In  In55  1  0.36007938  0.84851087  0.49477461  1
  In  In56  1  0.51731978  0.66626147  0.20631072  1
  In  In57  1  0.85212957  0.34520542  0.85790434  1
  In  In58  1  0.52153038  0.00670963  0.19007062  1
  In  In59  1  0.67629075  0.02574407  0.00418360  1
  In  In60  1  0.16121944  0.34613543  0.49569572  1
  In  In61  1  0.66480010  0.30325254  -0.00703954  1
  In  In62  1  0.34383430  0.50905416  0.48775033  1
  In  In63  1  0.80716109  0.63867405  0.49566511  1
  In  In64  1  0.53114636  0.65762705  0.47955783  1
  In  In65  1  0.67781686  0.50030736  0.17673162  1
  In  In66  1  0.34729423  0.50123034  0.14951950  1
  In  In67  1  0.80464413  0.33387232  0.49419291  1
  In  In68  1  0.35981152  0.32876431  0.66879425  1
  In  In69  1  -0.01557054  0.83377318  0.49245074  1
  In  In70  1  0.32330543  0.16614677  0.14866103  1
  In  In71  1  0.49735048  0.00129111  0.83137007  1
  Te  Te72  1  0.10123708  0.08598031  0.13024052  1
  Te  Te73  1  0.07174072  0.11186779  0.41557236  1
  Te  Te74  1  0.08199537  0.10297373  0.76294244  1
  Te  Te75  1  0.04402496  0.39406889  0.14718830  1
  Te  Te76  1  0.06141871  0.39088047  0.39381801  1
  Te  Te77  1  0.06938728  0.36771887  0.78947788  1
  Te  Te78  1  0.07226560  0.74577739  0.06655452  1
  Te  Te79  1  0.07912271  0.75067410  0.40781444  1
  Te  Te80  1  0.09917831  0.75274880  0.75694288  1
  Te  Te81  1  0.42645975  0.06543344  0.08233102  1
  Te  Te82  1  0.43515929  0.07199644  0.41223778  1
  Te  Te83  1  0.40851419  0.09323867  0.75117860  1
  Te  Te84  1  0.38251414  0.38919797  0.05032006  1
  Te  Te85  1  0.42573499  0.40372575  0.41435900  1
  Te  Te86  1  0.42727952  0.43126804  0.74861492  1
  Te  Te87  1  0.46364723  0.76114808  0.08616508  1
  Te  Te88  1  0.41451506  0.73482771  0.41291920  1
  Te  Te89  1  0.42372761  0.75647774  0.72991073  1
  Te  Te90  1  0.75699268  0.09052379  0.10638567  1
  Te  Te91  1  0.73677506  0.12227117  0.36764900  1
  Te  Te92  1  0.73795883  0.08450183  0.76574778  1
  Te  Te93  1  0.73894518  0.40367005  0.07684416  1
  Te  Te94  1  0.68632196  0.41316225  0.44352839  1
  Te  Te95  1  0.74919082  0.40064484  0.75326884  1
  Te  Te96  1  0.73906942  0.72252647  0.07744081  1
  Te  Te97  1  0.78669584  0.76117573  0.41894571  1
  Te  Te98  1  0.74106900  0.72748662  0.73464288  1
  Te  Te99  1  0.05860631  0.29066688  0.26070595  1
  Te  Te100  1  0.07150646  0.25363428  0.57731733  1
  Te  Te101  1  0.10043302  0.23997746  0.96958206  1
  Te  Te102  1  0.07128680  0.59837224  0.23839510  1
  Te  Te103  1  0.07612456  0.53617175  0.58774310  1
  Te  Te104  1  0.06184448  0.57910031  0.91206722  1
  Te  Te105  1  0.10744581  0.91128667  0.25697758  1
  Te  Te106  1  0.08764818  0.90905739  0.57879234  1
  Te  Te107  1  0.10133508  0.94669074  0.91303269  1
  Te  Te108  1  0.41525769  0.23981989  0.25212292  1
  Te  Te109  1  0.43650843  0.24637233  0.56724267  1
  Te  Te110  1  0.36566972  0.23729014  0.88460354  1
  Te  Te111  1  0.40294656  0.58411088  0.26193189  1
  Te  Te112  1  0.44691588  0.56924793  0.57978352  1
  Te  Te113  1  0.40608398  0.58907609  0.92032161  1
  Te  Te114  1  0.42607618  0.90503868  0.25496278  1
  Te  Te115  1  0.45158909  0.91730579  0.58343944  1
  Te  Te116  1  0.40913313  0.90739972  0.91741302  1
  Te  Te117  1  0.74986118  0.25311160  0.28175117  1
  Te  Te118  1  0.73620487  0.22968319  0.58292372  1
  Te  Te119  1  0.76401715  0.23875800  0.90560707  1
  Te  Te120  1  0.75974681  0.57115973  0.27635572  1
  Te  Te121  1  0.71299035  0.57849209  0.59261731  1
  Te  Te122  1  0.75898982  0.56031473  0.93463708  1
  Te  Te123  1  0.71165094  0.90058460  0.28035704  1
  Te  Te124  1  0.78174453  0.90499705  0.58981640  1
  Te  Te125  1  0.76982459  0.92749417  0.91879746  1
  Te  Te126  1  0.21666127  0.23751268  0.07359838  1
  Te  Te127  1  0.24711845  0.24718274  0.41725219  1
  Te  Te128  1  0.26171511  0.27653818  0.77327724  1
  Te  Te129  1  0.23749111  0.57820989  0.07156915  1
  Te  Te130  1  0.23351449  0.57114443  0.40374717  1
  Te  Te131  1  0.24483962  0.59284961  0.73285012  1
  Te  Te132  1  0.25557901  0.94903159  0.09484563  1
  Te  Te133  1  0.25866808  0.93295958  0.41970637  1
  Te  Te134  1  0.24669198  0.95309909  0.76486111  1
  Te  Te135  1  0.56655738  0.22898644  0.08211267  1
  Te  Te136  1  0.62790812  0.26948391  0.42145797  1
  Te  Te137  1  0.57620228  0.25498522  0.74680501  1
  Te  Te138  1  0.56575154  0.56884018  0.09522633  1
  Te  Te139  1  0.61891979  0.59617445  0.37561517  1
  Te  Te140  1  0.58914729  0.57013006  0.75001345  1
  Te  Te141  1  0.60772998  0.92194799  0.09313907  1
  Te  Te142  1  0.61566388  0.92977212  0.40197224  1
  Te  Te143  1  0.58835768  0.90972368  0.75119128  1
  Te  Te144  1  0.90506590  0.26281652  0.08095237  1
  Te  Te145  1  0.87475455  0.25696277  0.37884363  1
  Te  Te146  1  0.91925845  0.26336156  0.74010484  1
  Te  Te147  1  0.90655246  0.54580230  0.08953717  1
  Te  Te148  1  0.91221004  0.55632248  0.43416489  1
  Te  Te149  1  0.91910902  0.54620991  0.75134086  1
  Te  Te150  1  0.93707499  0.92587192  0.06599552  1
  Te  Te151  1  0.91115851  0.92655745  0.39910393  1
  Te  Te152  1  0.94866379  0.91223979  0.74956755  1
  Te  Te153  1  0.23457007  0.11226222  0.25580032  1
  Te  Te154  1  0.24086162  0.09730533  0.59757674  1
  Te  Te155  1  0.22384387  0.14591390  0.94088357  1
  Te  Te156  1  0.24147254  0.41273451  0.21859308  1
  Te  Te157  1  0.26188998  0.42046065  0.58368738  1
  Te  Te158  1  0.21557085  0.44160588  0.92344306  1
  Te  Te159  1  0.26228673  0.76178753  0.24916634  1
  Te  Te160  1  0.24353492  0.74077707  0.55808677  1
  Te  Te161  1  0.25508825  0.76016262  0.93905078  1
  Te  Te162  1  0.60793512  0.10255267  0.26237148  1
  Te  Te163  1  0.59779909  0.07050161  0.56573309  1
  Te  Te164  1  0.57703721  0.09750681  0.91414061  1
  Te  Te165  1  0.58241697  0.39953923  0.24286443  1
  Te  Te166  1  0.59685323  0.44597841  0.56043740  1
  Te  Te167  1  0.56630725  0.38644285  0.91040389  1
  Te  Te168  1  0.61979963  0.75972595  0.25894641  1
  Te  Te169  1  0.57972001  0.75571824  0.57640098  1
  Te  Te170  1  0.60145395  0.73558254  0.91124157  1
  Te  Te171  1  0.91163220  0.08032214  0.24084984  1
  Te  Te172  1  0.89824762  0.07510806  0.56052514  1
  Te  Te173  1  0.91977556  0.10689635  0.92305551  1
  Te  Te174  1  0.92295296  0.44798496  0.22363335  1
  Te  Te175  1  0.91077275  0.40193137  0.56945018  1
  Te  Te176  1  0.98162303  0.39571695  0.91866839  1
  Te  Te177  1  0.90879987  0.75550247  0.24713875  1
  Te  Te178  1  0.93761872  0.72230136  0.59082461  1
  Te  Te179  1  0.89705267  0.74953981  0.90480071  1
