# generated using pymatgen
data_In2Te3
_symmetry_space_group_name_H-M   'P 1'
_cell_length_a   18.75202590
_cell_length_b   18.75762718
_cell_length_c   18.74633518
_cell_angle_alpha   89.96135223
_cell_angle_beta   90.07626107
_cell_angle_gamma   89.91292338
_symmetry_Int_Tables_number   1
_chemical_formula_structural   In2Te3
_chemical_formula_sum   'In72 Te108'
_cell_volume   6593.88678144
_cell_formula_units_Z   36
loop_
 _symmetry_equiv_pos_site_id
 _symmetry_equiv_pos_as_xyz
  1  'x, y, z'
loop_
 _atom_site_type_symbol
 _atom_site_label
 _atom_site_symmetry_multiplicity
 _atom_site_fract_x
 _atom_site_fract_y
 _atom_site_fract_z
 _atom_site_occupancy
  In  In0  1  0.65720090  0.80808894  0.84326249  1
  In  In1  1  0.00645805  0.48255015  0.50771528  1
  In  In2  1  0.00695526  0.50598028  0.16054747  1
  In  In3  1  0.19751406  0.68511443  0.50639418  1
  In  In4  1  0.16851296  0.14664553  -0.01387412  1
  In  In5  1  0.81039665  0.32368677  0.14605090  1
  In  In6  1  0.16590547  0.32488997  0.82345715  1
  In  In7  1  -0.00998485  0.17138684  0.15297415  1
  In  In8  1  0.67636520  0.83998436  0.49982263  1
  In  In9  1  0.66847489  0.16376868  0.17159749  1
  In  In10  1  0.52238061  0.32606530  0.49496420  1
  In  In11  1  0.02252233  0.84429255  0.50720432  1
  In  In12  1  0.00268033  0.83205537  0.14868084  1
  In  In13  1  0.01243880  0.14363847  0.83030372  1
  In  In14  1  0.66087477  0.16125693  0.49493000  1
  In  In15  1  0.20475873  0.71559641  0.18582071  1
  In  In16  1  0.85056977  0.14016586  0.65883747  1
  In  In17  1  0.47699658  0.82809582  0.66788427  1
  In  In18  1  0.80128846  0.67161779  0.16595826  1
  In  In19  1  0.83299016  0.82593245  0.02371229  1
  In  In20  1  0.19850717  0.53585603  0.69332165  1
  In  In21  1  0.84428414  0.83424278  0.36402479  1
  In  In22  1  0.32460552  0.13788063  0.16829623  1
  In  In23  1  0.14342204  0.34024857  0.17269408  1
  In  In24  1  0.66423876  0.00555170  0.01034992  1
  In  In25  1  0.33461936  0.84185333  0.51009213  1
  In  In26  1  0.66432944  0.32506365  0.69194147  1
  In  In27  1  0.46864899  0.50618078  0.66890625  1
  In  In28  1  0.33295472  0.33014636  0.34379724  1
  In  In29  1  0.19271825  -0.01891252  0.16496516  1
  In  In30  1  0.35302227  0.51713392  0.16849018  1
  In  In31  1  0.80900158  0.51101076  0.30905022  1
  In  In32  1  0.32990177  0.68130232  -0.01111454  1
  In  In33  1  0.81210338  0.68028294  0.50600836  1
  In  In34  1  0.65346860  0.49050426  0.83912667  1
  In  In35  1  0.66016993  0.01309312  0.32978237  1
  In  In36  1  0.02144158  0.67187620  -0.00147534  1
  In  In37  1  0.65239360  0.82139028  0.17163749  1
  In  In38  1  0.32273113  0.82606984  0.82747588  1
  In  In39  1  0.84461796  0.00573861  0.82271037  1
  In  In40  1  0.52036006  0.33262830  0.15738833  1
  In  In41  1  0.84983559  0.32997722  0.49080323  1
  In  In42  1  0.32444375  0.52600043  0.50783156  1
  In  In43  1  -0.01722848  0.29492996  0.32824608  1
  In  In44  1  0.49905042  0.82785058  -0.00387915  1
  In  In45  1  0.51272045  0.53637694  -0.00024582  1
  In  In46  1  0.16599915  0.30394673  0.51788727  1
  In  In47  1  0.47248648  0.84491424  0.32741833  1
  In  In48  1  0.33257624  0.31701411  -0.01814647  1
  In  In49  1  0.33140211  0.33161880  0.68908139  1
  In  In50  1  0.81818558  0.32154172  0.86280955  1
  In  In51  1  0.00439627  0.67609797  0.68531938  1
  In  In52  1  0.33758105  0.13797894  0.49963015  1
  In  In53  1  0.16180335  0.50600882  -0.01688879  1
  In  In54  1  0.17787805  -0.00525504  0.82133877  1
  In  In55  1  0.16759934  0.51807589  0.35961409  1
  In  In56  1  0.17557380  -0.00909349  0.50459539  1
  In  In57  1  0.48921801  0.16794002  0.00729858  1
  In  In58  1  0.82044647  0.48148910  -0.00798929  1
  In  In59  1  0.66917076  0.67191026  0.67203254  1
  In  In60  1  0.67288840  0.01289112  0.65900656  1
  In  In61  1  0.67197134  0.51520522  0.48775953  1
  In  In62  1  0.82957184  0.00213765  0.15336031  1
  In  In63  1  0.83025279  0.66379351  0.82030550  1
  In  In64  1  0.48685147  0.15104748  0.35028623  1
  In  In65  1  0.48375242  -0.00048375  0.82963299  1
  In  In66  1  0.00713907  0.01109108  0.33022067  1
  In  In67  1  0.01412436  0.32509428  0.66613581  1
  In  In68  1  0.50905916  0.51439923  0.31498447  1
  In  In69  1  0.00310616  0.66887950  0.35456981  1
  In  In70  1  0.01939209  0.85479639  0.82043680  1
  In  In71  1  0.50692920  0.16209084  0.68275399  1
  Te  Te72  1  0.08822507  0.07113291  0.09043626  1
  Te  Te73  1  0.08333422  0.08653792  0.43255702  1
  Te  Te74  1  0.08626223  0.07016928  0.72620179  1
  Te  Te75  1  0.06732437  0.40967667  0.05894812  1
  Te  Te76  1  0.08359625  0.39342210  0.40877828  1
  Te  Te77  1  0.09326215  0.43260282  0.74172539  1
  Te  Te78  1  0.11602827  0.76998181  0.06826319  1
  Te  Te79  1  0.10700045  0.76474212  0.40829007  1
  Te  Te80  1  0.10867979  0.74716726  0.76323616  1
  Te  Te81  1  0.40965645  0.06250754  0.07429092  1
  Te  Te82  1  0.40079094  0.04345765  0.40202762  1
  Te  Te83  1  0.39708051  0.08014033  0.73968125  1
  Te  Te84  1  0.41450098  0.41172022  0.07599699  1
  Te  Te85  1  0.41859076  0.42304777  0.42959761  1
  Te  Te86  1  0.42992349  0.40572899  0.76992086  1
  Te  Te87  1  0.40760773  0.75608329  0.09329936  1
  Te  Te88  1  0.42019910  0.74965576  0.42999549  1
  Te  Te89  1  0.41110553  0.72489936  0.75628516  1
  Te  Te90  1  0.76623857  0.10776004  0.06209258  1
  Te  Te91  1  0.75601791  0.07500940  0.42241721  1
  Te  Te92  1  0.74129093  0.10368296  0.76060341  1
  Te  Te93  1  0.72735027  0.43791170  0.09836477  1
  Te  Te94  1  0.74738599  0.40873249  0.40730281  1
  Te  Te95  1  0.76198719  0.42106633  0.75768857  1
  Te  Te96  1  0.71341149  0.73829052  0.05806677  1
  Te  Te97  1  0.73173292  0.73657464  0.39134578  1
  Te  Te98  1  0.76256652  0.77400255  0.73736369  1
  Te  Te99  1  0.09563237  0.22155568  0.25536636  1
  Te  Te100  1  0.08083811  0.21223122  0.59734416  1
  Te  Te101  1  0.07638123  0.25021375  0.92169922  1
  Te  Te102  1  0.09122861  0.60259198  0.24450678  1
  Te  Te103  1  0.09495872  0.58797411  0.57375248  1
  Te  Te104  1  0.08133706  0.59004112  0.89076834  1
  Te  Te105  1  0.08547431  0.90617195  0.25229623  1
  Te  Te106  1  0.09468067  0.92089415  0.61195082  1
  Te  Te107  1  0.09261660  0.92954297  0.92418923  1
  Te  Te108  1  0.41625070  0.25049106  0.24221706  1
  Te  Te109  1  0.41559486  0.25443069  0.57618725  1
  Te  Te110  1  0.41356443  0.23036446  0.89420043  1
  Te  Te111  1  0.43246488  0.62057488  0.23941799  1
  Te  Te112  1  0.41246706  0.61499770  0.58565170  1
  Te  Te113  1  0.39566294  0.57222161  0.90914585  1
  Te  Te114  1  0.38402329  0.89867862  0.20946156  1
  Te  Te115  1  0.41975082  0.93739941  0.58758215  1
  Te  Te116  1  0.39712533  0.91823885  0.92474885  1
  Te  Te117  1  0.76295718  0.23902575  0.25772710  1
  Te  Te118  1  0.74800405  0.25144030  0.58574859  1
  Te  Te119  1  0.72835075  0.24514882  0.94990172  1
  Te  Te120  1  0.69764997  0.58609866  0.23568372  1
  Te  Te121  1  0.76124875  0.57248350  0.59949044  1
  Te  Te122  1  0.74023838  0.59048868  0.91863207  1
  Te  Te123  1  0.75958959  0.90607950  0.24987664  1
  Te  Te124  1  0.76324677  0.92031840  0.58779467  1
  Te  Te125  1  0.74758465  0.91153113  0.91981647  1
  Te  Te126  1  0.24221125  0.25261230  0.08828392  1
  Te  Te127  1  0.24479649  0.22767918  0.41100055  1
  Te  Te128  1  0.23825562  0.22865483  0.73792663  1
  Te  Te129  1  0.23864882  0.58541351  0.09173126  1
  Te  Te130  1  0.27902144  0.61527753  0.39089024  1
  Te  Te131  1  0.30744995  0.60112881  0.76965612  1
  Te  Te132  1  0.29033384  0.89506144  0.09020895  1
  Te  Te133  1  0.25288572  0.91117709  0.39985487  1
  Te  Te134  1  0.24807032  0.90303600  0.72063800  1
  Te  Te135  1  0.61040470  0.25844588  0.05481952  1
  Te  Te136  1  0.59777885  0.25060860  0.38641984  1
  Te  Te137  1  0.56837534  0.25626169  0.77992531  1
  Te  Te138  1  0.59606614  0.57555665  0.11411083  1
  Te  Te139  1  0.56470633  0.59471440  0.42700414  1
  Te  Te140  1  0.57238545  0.58809429  0.75312024  1
  Te  Te141  1  0.56897494  0.92467368  0.09564488  1
  Te  Te142  1  0.57730250  0.91974878  0.41562781  1
  Te  Te143  1  0.58674432  0.91281361  0.75128204  1
  Te  Te144  1  0.91787281  0.26463311  0.06379307  1
  Te  Te145  1  0.93122135  0.21220474  0.44372901  1
  Te  Te146  1  0.91085595  0.24577995  0.75220011  1
  Te  Te147  1  0.91111748  0.59575273  0.08169312  1
  Te  Te148  1  0.90727788  0.57047906  0.42133006  1
  Te  Te149  1  0.92368731  0.57224919  0.75177481  1
  Te  Te150  1  0.93243285  0.93633310  0.06116072  1
  Te  Te151  1  0.91921289  0.93862275  0.44280414  1
  Te  Te152  1  0.92424905  0.92397346  0.72941849  1
  Te  Te153  1  0.24906116  0.06775574  0.27331010  1
  Te  Te154  1  0.25041447  0.07827405  0.60223067  1
  Te  Te155  1  0.26915411  0.08678677  0.89776599  1
  Te  Te156  1  0.24930265  0.42239031  0.25127164  1
  Te  Te157  1  0.24005761  0.42197735  0.58487293  1
  Te  Te158  1  0.25777402  0.42189200  0.89868446  1
  Te  Te159  1  0.27592216  0.80569785  0.28253665  1
  Te  Te160  1  0.24383705  0.77711777  0.61488444  1
  Te  Te161  1  0.22305384  0.74476077  0.90432483  1
  Te  Te162  1  0.55950111  0.07687632  0.23457150  1
  Te  Te163  1  0.56239367  0.07262389  0.57040273  1
  Te  Te164  1  0.58243312  0.08455422  0.90982785  1
  Te  Te165  1  0.59518060  0.40552214  0.26219327  1
  Te  Te166  1  0.58822000  0.42387255  0.59247347  1
  Te  Te167  1  0.56713200  0.41550680  0.93233252  1
  Te  Te168  1  0.55986843  0.74417452  0.25682649  1
  Te  Te169  1  0.57938147  0.75214224  0.57888952  1
  Te  Te170  1  0.55849935  0.72129784  0.91029111  1
  Te  Te171  1  0.90175413  0.09245731  0.25308889  1
  Te  Te172  1  0.92249359  0.08322563  0.54440543  1
  Te  Te173  1  0.91356983  0.08739079  0.92452373  1
  Te  Te174  1  0.92265573  0.41889093  0.25400747  1
  Te  Te175  1  0.90711431  0.41727836  0.60211931  1
  Te  Te176  1  0.92080831  0.42034915  0.90434923  1
  Te  Te177  1  0.91545089  0.74827562  0.24722869  1
  Te  Te178  1  0.92120765  0.75362754  0.58132011  1
  Te  Te179  1  0.91699756  0.75714131  0.91536122  1
