# generated using pymatgen
data_In2Te3
_symmetry_space_group_name_H-M   'P 1'
_cell_length_a   18.93316726
_cell_length_b   18.93158844
_cell_length_c   18.93068476
_cell_angle_alpha   89.87064922
_cell_angle_beta   89.89847834
_cell_angle_gamma   89.99120094
_symmetry_Int_Tables_number   1
_chemical_formula_structural   In2Te3
_chemical_formula_sum   'In72 Te108'
_cell_volume   6785.39065567
_cell_formula_units_Z   36
loop_
 _symmetry_equiv_pos_site_id
 _symmetry_equiv_pos_as_xyz
  1  'x, y, z'
loop_
 _atom_site_type_symbol
 _atom_site_label
 _atom_site_symmetry_multiplicity
 _atom_site_fract_x
 _atom_site_fract_y
 _atom_site_fract_z
 _atom_site_occupancy
  In  In0  1  0.16984109  0.65874246  0.16158011  1
  In  In1  1  0.18877647  0.32154736  0.82586130  1
  In  In2  1  0.37493389  0.83387136  0.84996888  1
  In  In3  1  0.34137271  0.12383474  0.10836557  1
  In  In4  1  0.01525212  0.65324112  0.33273012  1
  In  In5  1  0.51801932  0.33465795  0.15421652  1
  In  In6  1  0.51758933  0.51374892  0.00904748  1
  In  In7  1  -0.00005951  0.66629040  0.03209040  1
  In  In8  1  0.66295762  0.66637701  0.67758117  1
  In  In9  1  0.33260590  0.47852933  0.49825707  1
  In  In10  1  0.36673908  0.68137676  0.02044314  1
  In  In11  1  -0.00418050  0.01734119  0.66900441  1
  In  In12  1  0.00106789  0.83276695  0.14911726  1
  In  In13  1  -0.01717669  0.50614763  0.48890375  1
  In  In14  1  0.82973249  0.83586756  0.33295770  1
  In  In15  1  0.63488412  0.12930207  0.13405931  1
  In  In16  1  0.67449909  0.34437751  0.29955499  1
  In  In17  1  0.34914134  0.50063908  0.16148532  1
  In  In18  1  0.80206971  0.65042787  0.87732812  1
  In  In19  1  0.51330259  0.51838404  0.68750404  1
  In  In20  1  0.81739309  0.20040028  0.33016878  1
  In  In21  1  0.02673641  0.33462905  -0.01596751  1
  In  In22  1  0.02603098  0.85823285  0.86102635  1
  In  In23  1  0.33942613  0.84614167  0.50112580  1
  In  In24  1  0.20850641  -0.01421765  0.14207648  1
  In  In25  1  -0.01564860  0.01333565  0.32744231  1
  In  In26  1  0.47311201  0.32326690  0.85623510  1
  In  In27  1  0.84324224  0.67426760  0.47435321  1
  In  In28  1  0.58424030  0.89328569  0.87524603  1
  In  In29  1  0.22998946  0.00920815  0.86300038  1
  In  In30  1  0.51376232  0.14870635  0.66566301  1
  In  In31  1  0.65644337  0.33595425  0.68850860  1
  In  In32  1  0.50691113  0.81873604  0.30938884  1
  In  In33  1  -0.00489362  0.83651012  0.46694795  1
  In  In34  1  0.14036916  0.33339318  0.49930479  1
  In  In35  1  0.86074400  0.85482477  -0.01041489  1
  In  In36  1  0.79656450  0.14771995  0.69283552  1
  In  In37  1  0.81388323  0.34699690  0.84176163  1
  In  In38  1  -0.00179632  0.34028923  0.63461578  1
  In  In39  1  0.18445821  0.65427013  0.84744719  1
  In  In40  1  0.16691230  0.32059905  0.16364347  1
  In  In41  1  0.64993187  0.81891180  0.15165570  1
  In  In42  1  0.65869843  0.50729540  0.51131384  1
  In  In43  1  0.14914280  0.49479112  0.63594610  1
  In  In44  1  0.47517621  0.50737174  0.32430199  1
  In  In45  1  0.02442591  0.03171085  -0.00524912  1
  In  In46  1  -0.00172983  0.18147651  0.81815134  1
  In  In47  1  -0.00529652  0.51344132  0.83841068  1
  In  In48  1  0.19410762  0.84054574  0.30085028  1
  In  In49  1  0.36137299  -0.00250994  0.67331746  1
  In  In50  1  0.20123090  0.14391445  0.70075500  1
  In  In51  1  0.67076777  0.33139699  0.00386079  1
  In  In52  1  0.49877096  0.16742600  0.34468392  1
  In  In53  1  0.33474370  0.32772290  0.33173775  1
  In  In54  1  0.82069819  0.15786524  0.01211019  1
  In  In55  1  0.15008880  0.84702296  0.66268914  1
  In  In56  1  0.15804008  0.16900845  0.30322683  1
  In  In57  1  0.33624093  0.15587173  0.51535299  1
  In  In58  1  0.67568371  0.00362806  0.33935693  1
  In  In59  1  0.68466291  0.84184019  0.49952479  1
  In  In60  1  0.49805701  0.67924257  0.49860500  1
  In  In61  1  0.81251074  0.32055801  0.52688842  1
  In  In62  1  0.80970271  0.64202999  0.16362755  1
  In  In63  1  0.81096276  -0.01071383  0.81880845  1
  In  In64  1  -0.00865588  0.17684559  0.16955992  1
  In  In65  1  -0.03886224  0.68493116  0.68881024  1
  In  In66  1  -0.00507584  0.17660796  0.49645174  1
  In  In67  1  0.18628403  0.63840367  0.49808900  1
  In  In68  1  0.34619536  0.68229968  0.69532297  1
  In  In69  1  0.78707177  0.85922933  0.67020710  1
  In  In70  1  0.33336164  0.48850016  0.85092319  1
  In  In71  1  0.35918112  -0.01541827  0.33641173  1
  Te  Te72  1  0.10203738  0.09473135  0.10698752  1
  Te  Te73  1  0.08522966  0.08856666  0.41165134  1
  Te  Te74  1  0.09920067  0.05806543  0.77431050  1
  Te  Te75  1  0.08350786  0.41719539  0.08986976  1
  Te  Te76  1  0.09394453  0.44385949  0.41600807  1
  Te  Te77  1  0.07385147  0.41453755  0.75008856  1
  Te  Te78  1  0.10970379  0.76675283  0.06991830  1
  Te  Te79  1  0.10657790  0.74636973  0.41350899  1
  Te  Te80  1  0.08707219  0.74115264  0.76062478  1
  Te  Te81  1  0.46775968  0.05076388  0.07481439  1
  Te  Te82  1  0.43389325  0.06694864  0.43989385  1
  Te  Te83  1  0.42966482  0.08361999  0.77434502  1
  Te  Te84  1  0.41997108  0.40917736  0.06407337  1
  Te  Te85  1  0.43495262  0.39607527  0.42131892  1
  Te  Te86  1  0.41634402  0.41701071  0.74754118  1
  Te  Te87  1  0.44216836  0.81256997  0.04508162  1
  Te  Te88  1  0.40221994  0.74820011  0.40516942  1
  Te  Te89  1  0.45711793  0.75301935  0.75877167  1
  Te  Te90  1  0.74042050  0.04880895  0.06550802  1
  Te  Te91  1  0.72236069  0.12332109  0.41484859  1
  Te  Te92  1  0.69449174  0.07181379  0.77301259  1
  Te  Te93  1  0.73845435  0.43842916  0.08186287  1
  Te  Te94  1  0.74014703  0.41074146  0.42975778  1
  Te  Te95  1  0.73210342  0.43887547  0.76151611  1
  Te  Te96  1  0.77467733  0.76386066  0.08079558  1
  Te  Te97  1  0.73177556  0.73839159  0.39429421  1
  Te  Te98  1  0.74950556  0.75109245  0.76980325  1
  Te  Te99  1  0.05644587  0.27295035  0.26650498  1
  Te  Te100  1  0.09654712  0.22469497  0.60959541  1
  Te  Te101  1  0.10627294  0.22522986  0.91337399  1
  Te  Te102  1  0.08008052  0.56698241  0.23427153  1
  Te  Te103  1  0.05219973  0.60715345  0.58929619  1
  Te  Te104  1  0.08801444  0.57972438  0.93632847  1
  Te  Te105  1  0.08108392  0.92538522  0.24499925  1
  Te  Te106  1  0.06846554  0.93019604  0.56620463  1
  Te  Te107  1  0.12779305  0.93037576  0.94732028  1
  Te  Te108  1  0.42374711  0.24789894  0.23882356  1
  Te  Te109  1  0.43402644  0.24001677  0.58189065  1
  Te  Te110  1  0.38226732  0.21525108  0.90314923  1
  Te  Te111  1  0.43293381  0.60763928  0.22180976  1
  Te  Te112  1  0.40930424  0.58660284  0.58508485  1
  Te  Te113  1  0.42481605  0.59096565  0.91038791  1
  Te  Te114  1  0.40468642  0.89361929  0.22838880  1
  Te  Te115  1  0.43670982  0.89671447  0.59741904  1
  Te  Te116  1  0.44140245  0.96473209  0.88211403  1
  Te  Te117  1  0.72659734  0.22613311  0.21033118  1
  Te  Te118  1  0.71297820  0.22830984  0.59490173  1
  Te  Te119  1  0.73941429  0.23245682  0.90828512  1
  Te  Te120  1  0.72470151  0.54594745  0.23806128  1
  Te  Te121  1  0.75696197  0.60068244  0.57838316  1
  Te  Te122  1  0.74075269  0.56291755  0.98193227  1
  Te  Te123  1  0.74273632  0.91215964  0.23792067  1
  Te  Te124  1  0.73660314  0.96084913  0.57420917  1
  Te  Te125  1  0.74005339  0.89400168  0.91111532  1
  Te  Te126  1  0.26826618  0.24963453  0.08184454  1
  Te  Te127  1  0.24129132  0.24212396  0.41868506  1
  Te  Te128  1  0.29556607  0.24093485  0.75932274  1
  Te  Te129  1  0.26133015  0.58042544  0.06669187  1
  Te  Te130  1  0.26543005  0.56548426  0.40034476  1
  Te  Te131  1  0.24205893  0.56889978  0.73351254  1
  Te  Te132  1  0.31796603  0.90487916  0.08564175  1
  Te  Te133  1  0.24200271  0.92624330  0.41600383  1
  Te  Te134  1  0.25868624  0.90063890  0.75451841  1
  Te  Te135  1  0.56229271  0.23461956  0.04906336  1
  Te  Te136  1  0.60365098  0.25467712  0.39992898  1
  Te  Te137  1  0.57328162  0.24387989  0.77478270  1
  Te  Te138  1  0.60806097  0.63131533  0.03512755  1
  Te  Te139  1  0.57688227  0.58544052  0.41090430  1
  Te  Te140  1  0.60315679  0.58285287  0.78370587  1
  Te  Te141  1  0.57656699  0.93346304  0.08490433  1
  Te  Te142  1  0.57944769  0.90669639  0.41000475  1
  Te  Te143  1  0.61056751  0.94297948  0.73027094  1
  Te  Te144  1  0.91643675  0.25972974  0.06736273  1
  Te  Te145  1  0.91566055  0.27981167  0.42106827  1
  Te  Te146  1  0.90139707  0.26420715  0.73530050  1
  Te  Te147  1  0.92071139  0.56635084  0.10370042  1
  Te  Te148  1  0.89587587  0.56756570  0.38057778  1
  Te  Te149  1  0.88171932  0.57928390  0.76220982  1
  Te  Te150  1  0.93006790  0.95001195  0.08398054  1
  Te  Te151  1  0.89169021  0.94094444  0.42363304  1
  Te  Te152  1  0.92595351  0.90702177  0.75004975  1
  Te  Te153  1  0.27297164  0.08339859  0.25198892  1
  Te  Te154  1  0.24838016  0.05531870  0.58759871  1
  Te  Te155  1  0.28502898  0.10640749  0.96284545  1
  Te  Te156  1  0.25258180  0.41949979  0.24698858  1
  Te  Te157  1  0.24953072  0.39044622  0.59087881  1
  Te  Te158  1  0.23942363  0.41001029  0.92992402  1
  Te  Te159  1  0.27008144  0.73343323  0.23972388  1
  Te  Te160  1  0.24548528  0.74753463  0.59032864  1
  Te  Te161  1  0.26718991  0.75317026  0.92339022  1
  Te  Te162  1  0.56495618  0.06474638  0.25487068  1
  Te  Te163  1  0.58481269  0.03000643  0.60778913  1
  Te  Te164  1  0.57683386  0.02661477  0.95646402  1
  Te  Te165  1  0.57817026  0.45321805  0.22448395  1
  Te  Te166  1  0.56912425  0.41494359  0.59060545  1
  Te  Te167  1  0.58138887  0.41488836  0.91291180  1
  Te  Te168  1  0.57561092  0.71565881  0.22853707  1
  Te  Te169  1  0.58737069  0.76240327  0.58767953  1
  Te  Te170  1  0.56260535  0.76687014  0.96430889  1
  Te  Te171  1  0.88878157  0.09253978  0.24357073  1
  Te  Te172  1  0.89977851  0.09969588  0.58607004  1
  Te  Te173  1  0.91214547  0.08226140  0.89609919  1
  Te  Te174  1  0.79199356  0.40703094  0.22551703  1
  Te  Te175  1  0.89353891  0.43789872  0.59069550  1
  Te  Te176  1  0.91235413  0.42247148  0.92768710  1
  Te  Te177  1  0.92535796  0.74981442  0.25148011  1
  Te  Te178  1  0.90159002  0.77404911  0.57667223  1
  Te  Te179  1  0.92823440  0.74007660  0.91343644  1
