# generated using pymatgen
data_In2Te3
_symmetry_space_group_name_H-M   'P 1'
_cell_length_a   18.93592443
_cell_length_b   18.95320614
_cell_length_c   18.94895780
_cell_angle_alpha   89.98504269
_cell_angle_beta   90.01993891
_cell_angle_gamma   89.97417595
_symmetry_Int_Tables_number   1
_chemical_formula_structural   In2Te3
_chemical_formula_sum   'In72 Te108'
_cell_volume   6800.71290432
_cell_formula_units_Z   36
loop_
 _symmetry_equiv_pos_site_id
 _symmetry_equiv_pos_as_xyz
  1  'x, y, z'
loop_
 _atom_site_type_symbol
 _atom_site_label
 _atom_site_symmetry_multiplicity
 _atom_site_fract_x
 _atom_site_fract_y
 _atom_site_fract_z
 _atom_site_occupancy
  In  In0  1  0.17497629  -0.03594578  0.50859424  1
  In  In1  1  -0.05331982  0.50714041  0.49943371  1
  In  In2  1  0.69250995  0.33333140  0.29876426  1
  In  In3  1  0.33236258  0.00116399  -0.01439717  1
  In  In4  1  0.34221064  0.17980766  0.15131430  1
  In  In5  1  0.00662179  -0.01273487  -0.01463687  1
  In  In6  1  0.84044609  0.68922466  0.14798551  1
  In  In7  1  0.34286431  0.84376210  0.52186876  1
  In  In8  1  0.18935091  0.00523273  0.16890527  1
  In  In9  1  0.15014463  0.51312956  -0.01847686  1
  In  In10  1  0.16786054  0.33628649  0.83256082  1
  In  In11  1  0.14990955  0.83653042  0.34948762  1
  In  In12  1  0.51545292  -0.01551137  0.82629048  1
  In  In13  1  0.83278462  0.15936696  -0.01995907  1
  In  In14  1  0.34237513  0.81714112  0.18456307  1
  In  In15  1  0.68789002  0.34045637  0.68733450  1
  In  In16  1  -0.02826326  0.32734413  0.34119988  1
  In  In17  1  0.11959694  0.63959748  0.15878205  1
  In  In18  1  0.79711306  0.86886751  -0.00419097  1
  In  In19  1  0.50721690  0.69777206  0.84928439  1
  In  In20  1  0.34546577  0.50204290  0.14304318  1
  In  In21  1  -0.00898116  0.67274334  -0.00786158  1
  In  In22  1  0.69660877  0.53791162  0.84120987  1
  In  In23  1  -0.02368221  0.34325545  -0.05291772  1
  In  In24  1  0.51269041  0.13920159  0.34071713  1
  In  In25  1  0.64910214  0.69152253  0.63376616  1
  In  In26  1  0.67346590  0.16830563  0.52731290  1
  In  In27  1  0.84716061  0.80330328  0.33637075  1
  In  In28  1  -0.01442387  0.01293133  0.30802070  1
  In  In29  1  0.15345148  0.51140514  0.29172489  1
  In  In30  1  0.34510694  -0.00700709  0.66556519  1
  In  In31  1  -0.00993465  0.16857225  0.48541611  1
  In  In32  1  0.83443911  0.01648354  0.50653038  1
  In  In33  1  0.55499889  0.48604348  0.34693188  1
  In  In34  1  0.12658854  0.35832326  0.52613877  1
  In  In35  1  0.32987725  0.51311569  0.50796351  1
  In  In36  1  0.68693439  0.50670729  0.16283923  1
  In  In37  1  0.31957962  0.65378494  0.32084730  1
  In  In38  1  -0.01231728  0.82834409  0.84096645  1
  In  In39  1  0.38134759  0.00946191  0.32266795  1
  In  In40  1  0.50613388  0.49173941  0.66808170  1
  In  In41  1  -0.03134370  0.14745390  0.14318704  1
  In  In42  1  0.15544859  0.51067629  0.66500705  1
  In  In43  1  0.53279281  0.84766673  0.02332455  1
  In  In44  1  0.17821415  0.32240642  0.15802681  1
  In  In45  1  0.34230954  0.31861104  0.35484612  1
  In  In46  1  0.32719670  0.69207714  0.68771424  1
  In  In47  1  -0.01600651  0.47858430  0.17824985  1
  In  In48  1  0.33881927  0.49773975  0.82068126  1
  In  In49  1  0.67432686  0.66723987  0.34711362  1
  In  In50  1  0.34461465  0.14906091  0.47991980  1
  In  In51  1  0.29627778  0.70859979  -0.03704522  1
  In  In52  1  0.51046495  0.30941941  0.50843257  1
  In  In53  1  -0.03605682  0.63709007  0.67238886  1
  In  In54  1  0.83349234  0.83224277  0.68997438  1
  In  In55  1  0.12940415  0.14260794  0.72030251  1
  In  In56  1  0.00128831  0.83003764  0.52022462  1
  In  In57  1  0.66996689  0.15488233  0.82664091  1
  In  In58  1  -0.02091125  0.30615124  0.70644265  1
  In  In59  1  0.51237714  0.65911151  0.16440424  1
  In  In60  1  0.49252378  0.82101058  0.34258186  1
  In  In61  1  0.83516902  0.00798553  0.16772959  1
  In  In62  1  0.51869942  0.32176754  0.83911615  1
  In  In63  1  0.16592875  0.83653064  0.69419224  1
  In  In64  1  0.69384435  0.51716149  0.48717717  1
  In  In65  1  0.14823000  0.17948554  0.33558662  1
  In  In66  1  0.67606428  0.32841347  0.01519605  1
  In  In67  1  0.32396980  0.14893038  0.83319255  1
  In  In68  1  0.65256177  -0.02009808  0.33821221  1
  In  In69  1  0.51777258  0.16050496  -0.02319067  1
  In  In70  1  0.49929573  0.49837930  0.00068749  1
  In  In71  1  0.68398331  0.00830066  0.68347324  1
  Te  Te72  1  0.08858703  0.07832472  0.08158470  1
  Te  Te73  1  0.09221258  0.06364753  0.41649999  1
  Te  Te74  1  0.03442881  0.04904302  0.78069791  1
  Te  Te75  1  0.08546669  0.41710897  0.08094920  1
  Te  Te76  1  0.08472058  0.41382536  0.39308883  1
  Te  Te77  1  0.07156397  0.42125313  0.75281446  1
  Te  Te78  1  0.09038012  0.75109225  0.06887927  1
  Te  Te79  1  0.07412268  0.74152207  0.42890444  1
  Te  Te80  1  0.05802121  0.74018665  0.73855794  1
  Te  Te81  1  0.42564691  0.08151579  0.07364698  1
  Te  Te82  1  0.45361991  0.04816393  0.45027067  1
  Te  Te83  1  0.43332921  0.08563642  0.74847980  1
  Te  Te84  1  0.42014344  0.39844677  0.07348286  1
  Te  Te85  1  0.42760314  0.42463370  0.42459944  1
  Te  Te86  1  0.41953133  0.39451722  0.74466232  1
  Te  Te87  1  0.41603224  0.73786194  0.07821899  1
  Te  Te88  1  0.39521207  0.73681377  0.42257778  1
  Te  Te89  1  0.42617027  0.77876759  0.75503051  1
  Te  Te90  1  0.75161174  0.07494306  0.06827753  1
  Te  Te91  1  0.73548684  0.08578715  0.41622721  1
  Te  Te92  1  0.78296438  0.11251851  0.73568626  1
  Te  Te93  1  0.76784098  0.42748049  0.07014054  1
  Te  Te94  1  0.75861684  0.42178661  0.39713372  1
  Te  Te95  1  0.77394784  0.44260683  0.75417823  1
  Te  Te96  1  0.73314236  0.77175237  0.08741592  1
  Te  Te97  1  0.75549544  0.75009946  0.43666169  1
  Te  Te98  1  0.74102482  0.73003843  0.74291003  1
  Te  Te99  1  0.06448381  0.24703175  0.23047389  1
  Te  Te100  1  0.08036344  0.23510680  0.60124400  1
  Te  Te101  1  0.07926128  0.24743295  0.90934469  1
  Te  Te102  1  0.02106993  0.59295636  0.27954883  1
  Te  Te103  1  0.06350798  0.58237726  0.56972848  1
  Te  Te104  1  0.07392954  0.60057205  0.89304996  1
  Te  Te105  1  0.08448740  0.91976701  0.23976555  1
  Te  Te106  1  0.07149318  0.92856287  0.61109507  1
  Te  Te107  1  0.09749654  0.88279792  0.92781815  1
  Te  Te108  1  0.42989962  0.24246537  0.25899433  1
  Te  Te109  1  0.40461942  0.23860622  0.57855449  1
  Te  Te110  1  0.41011308  0.24772362  0.91375369  1
  Te  Te111  1  0.42971616  0.56949575  0.25806429  1
  Te  Te112  1  0.41386403  0.59441480  0.60385055  1
  Te  Te113  1  0.41022743  0.59177020  0.91670168  1
  Te  Te114  1  0.45185727  0.92023213  0.22019280  1
  Te  Te115  1  0.44759575  0.88835574  0.62155046  1
  Te  Te116  1  0.43145975  0.90451342  0.92325926  1
  Te  Te117  1  0.78771170  0.24443509  0.23175886  1
  Te  Te118  1  0.76410110  0.27076408  0.58053747  1
  Te  Te119  1  0.75196008  0.26489574  0.89769774  1
  Te  Te120  1  0.76926959  0.59503705  0.25356092  1
  Te  Te121  1  0.75176343  0.58986130  0.59963043  1
  Te  Te122  1  0.80101914  0.61452892  0.91518929  1
  Te  Te123  1  0.76506383  0.91189992  0.26192512  1
  Te  Te124  1  0.75553381  0.91587680  0.58572467  1
  Te  Te125  1  0.73804645  0.93539594  0.87751314  1
  Te  Te126  1  0.24074328  0.23303788  0.06130637  1
  Te  Te127  1  0.22839193  0.25972730  0.43647038  1
  Te  Te128  1  0.24323678  0.24054809  0.74175424  1
  Te  Te129  1  0.24566479  0.59296240  0.07755489  1
  Te  Te130  1  0.22921477  0.57426270  0.41309798  1
  Te  Te131  1  0.23733575  0.59419489  0.76198936  1
  Te  Te132  1  0.26467393  0.90453935  0.08608876  1
  Te  Te133  1  0.27449215  0.91645473  0.39438962  1
  Te  Te134  1  0.25637821  0.92948455  0.76843221  1
  Te  Te135  1  0.58960016  0.23306177  0.08222428  1
  Te  Te136  1  0.59779381  0.25430007  0.39882051  1
  Te  Te137  1  0.58413887  0.23815611  0.73199448  1
  Te  Te138  1  0.60260168  0.58908161  0.06521208  1
  Te  Te139  1  0.57040689  0.60199092  0.43862325  1
  Te  Te140  1  0.57459775  0.59051694  0.76014052  1
  Te  Te141  1  0.57754651  0.93747672  0.13011732  1
  Te  Te142  1  0.58775424  0.88618336  0.43618443  1
  Te  Te143  1  0.62833421  0.89867491  0.77410398  1
  Te  Te144  1  0.91290537  0.26254159  0.06014793  1
  Te  Te145  1  0.88828422  0.26744206  0.44692810  1
  Te  Te146  1  0.86979375  0.23571871  0.77686514  1
  Te  Te147  1  0.91593500  0.57251365  0.08045882  1
  Te  Te148  1  0.90591290  0.58214761  0.38395688  1
  Te  Te149  1  0.90521905  0.57927398  0.79877339  1
  Te  Te150  1  0.91691264  0.91333154  0.08122501  1
  Te  Te151  1  0.92756339  0.92453226  0.41671672  1
  Te  Te152  1  0.90869564  0.93403038  0.77024289  1
  Te  Te153  1  0.26067551  0.09892364  0.26749554  1
  Te  Te154  1  0.25005058  0.07468680  0.57896500  1
  Te  Te155  1  0.22731062  0.06200266  0.90189591  1
  Te  Te156  1  0.26642251  0.40632405  0.25133380  1
  Te  Te157  1  0.25134282  0.41546034  0.59423801  1
  Te  Te158  1  0.25657740  0.42102545  0.92301479  1
  Te  Te159  1  0.22001825  0.73792533  0.24307060  1
  Te  Te160  1  0.23615983  0.75555583  0.58255402  1
  Te  Te161  1  0.23080290  0.79915068  0.86786038  1
  Te  Te162  1  0.59757207  0.07435242  0.23674961  1
  Te  Te163  1  0.58601568  0.07254925  0.59328904  1
  Te  Te164  1  0.61300520  0.05201179  0.92502668  1
  Te  Te165  1  0.58207789  0.41218084  0.22045687  1
  Te  Te166  1  0.59861673  0.41499439  0.57583215  1
  Te  Te167  1  0.59936494  0.43100785  0.90462686  1
  Te  Te168  1  0.59289170  0.75270917  0.25059844  1
  Te  Te169  1  0.56200008  0.79094778  0.57042520  1
  Te  Te170  1  0.60911302  0.75431318  0.93947403  1
  Te  Te171  1  0.88467605  0.12417810  0.27147384  1
  Te  Te172  1  0.92689858  0.09111689  0.59212297  1
  Te  Te173  1  0.94738420  0.09758474  0.90158022  1
  Te  Te174  1  0.88207120  0.38709996  0.23773589  1
  Te  Te175  1  0.92465899  0.40482698  0.59978690  1
  Te  Te176  1  0.89701053  0.44149309  0.87175275  1
  Te  Te177  1  0.93690746  0.76913762  0.22657102  1
  Te  Te178  1  0.89789863  0.74082054  0.58360996  1
  Te  Te179  1  0.87707628  0.75499805  0.91870191  1
