# generated using pymatgen
data_In2Te3
_symmetry_space_group_name_H-M   'P 1'
_cell_length_a   18.83881398
_cell_length_b   18.83950777
_cell_length_c   18.83838464
_cell_angle_alpha   90.01182101
_cell_angle_beta   90.02360433
_cell_angle_gamma   89.99127140
_symmetry_Int_Tables_number   1
_chemical_formula_structural   In2Te3
_chemical_formula_sum   'In72 Te108'
_cell_volume   6686.00532971
_cell_formula_units_Z   36
loop_
 _symmetry_equiv_pos_site_id
 _symmetry_equiv_pos_as_xyz
  1  'x, y, z'
loop_
 _atom_site_type_symbol
 _atom_site_label
 _atom_site_symmetry_multiplicity
 _atom_site_fract_x
 _atom_site_fract_y
 _atom_site_fract_z
 _atom_site_occupancy
  In  In0  1  0.16590798  0.67300304  0.84474164  1
  In  In1  1  0.14949358  0.82559717  0.65145369  1
  In  In2  1  0.34734152  -0.01522015  0.67242538  1
  In  In3  1  -0.01559058  0.01095191  0.67796672  1
  In  In4  1  0.65362615  0.83597991  0.83012291  1
  In  In5  1  0.49973505  0.30981111  0.81367470  1
  In  In6  1  0.69360467  0.33666049  0.34474918  1
  In  In7  1  0.49865176  0.83239019  0.65752705  1
  In  In8  1  0.52176318  0.34636020  0.48519765  1
  In  In9  1  0.16083950  -0.01481612  0.83783981  1
  In  In10  1  0.31308071  0.64779183  0.02715383  1
  In  In11  1  0.66549146  0.68242868  0.02446061  1
  In  In12  1  0.16934869  0.01008977  0.49534910  1
  In  In13  1  0.79273524  0.16924997  0.64381242  1
  In  In14  1  -0.00169783  0.68557846  0.32593214  1
  In  In15  1  0.84846324  0.32251572  0.18020490  1
  In  In16  1  0.52601489  0.67117481  0.47234624  1
  In  In17  1  0.34210435  -0.00072139  0.02332206  1
  In  In18  1  0.00392296  0.48341171  0.16273814  1
  In  In19  1  0.17221606  0.84467232  0.31687112  1
  In  In20  1  0.14368051  0.49025096  0.68735889  1
  In  In21  1  0.65099331  0.31699145  0.01681600  1
  In  In22  1  0.32625408  0.01836252  0.32759236  1
  In  In23  1  0.66452051  0.64977606  0.65069693  1
  In  In24  1  0.83728687  0.83785464  0.66291958  1
  In  In25  1  0.31942450  0.51932709  0.49940446  1
  In  In26  1  0.31930888  0.35556017  0.31290589  1
  In  In27  1  0.29853026  0.32855892  0.01191265  1
  In  In28  1  -0.01552824  0.66967301  0.03352281  1
  In  In29  1  0.18453647  0.20382588  0.66782695  1
  In  In30  1  0.82674609  0.15040443  0.34909573  1
  In  In31  1  0.33166869  0.17272151  0.83742236  1
  In  In32  1  0.49517773  0.31878169  0.16665406  1
  In  In33  1  0.50175893  0.50200185  0.00393171  1
  In  In34  1  -0.01798155  0.47901187  0.52150379  1
  In  In35  1  0.00963823  0.51973553  0.83709238  1
  In  In36  1  -0.01340259  0.67290120  0.64527569  1
  In  In37  1  0.14203364  0.16160800  0.02795858  1
  In  In38  1  0.34156561  0.68197083  0.67164090  1
  In  In39  1  0.16323922  0.68184395  0.46899728  1
  In  In40  1  -0.00185158  0.84442906  0.17363445  1
  In  In41  1  0.47742698  0.83078361  0.00315447  1
  In  In42  1  0.69507735  0.49975860  0.20277530  1
  In  In43  1  0.15272354  0.83753457  -0.00110508  1
  In  In44  1  -0.01356625  0.15538565  0.17884496  1
  In  In45  1  0.51704823  0.48415984  0.66107419  1
  In  In46  1  -0.00463571  0.15920274  0.84974770  1
  In  In47  1  0.13941381  0.34258464  0.49943080  1
  In  In48  1  0.51489000  0.82579897  0.33303547  1
  In  In49  1  0.66624531  0.15423545  0.81865216  1
  In  In50  1  0.83901281  0.33135924  0.83066739  1
  In  In51  1  0.81838478  0.66540915  0.48626815  1
  In  In52  1  0.85488453  0.50862448  0.01241817  1
  In  In53  1  0.51099899  -0.00721264  0.83923336  1
  In  In54  1  0.52639634  0.14986519  0.31701219  1
  In  In55  1  0.67394483  0.49760270  0.81011648  1
  In  In56  1  0.32272380  0.82049438  0.14833730  1
  In  In57  1  0.70878765  0.85758446  0.46577616  1
  In  In58  1  0.82398065  0.84516146  0.01939425  1
  In  In59  1  0.67770101  0.85269310  0.19537547  1
  In  In60  1  0.54867655  0.14662606  0.64711840  1
  In  In61  1  0.67750601  0.01885260  -0.00415491  1
  In  In62  1  0.84997108  0.65316184  0.83670136  1
  In  In63  1  0.50619885  -0.00067435  0.16330049  1
  In  In64  1  0.84358808  0.15368875  0.02098950  1
  In  In65  1  0.15642149  0.17231245  0.31281817  1
  In  In66  1  0.16004311  0.49951705  0.34274544  1
  In  In67  1  0.35279707  0.16673206  0.47972385  1
  In  In68  1  0.31844600  0.49093208  0.87774747  1
  In  In69  1  0.33464543  0.31334116  0.67514528  1
  In  In70  1  0.49494078  0.53661780  0.30976506  1
  In  In71  1  -0.00173590  0.16395499  0.47922686  1
  Te  Te72  1  0.04875064  0.05926810  0.08197133  1
  Te  Te73  1  0.07582623  0.06538005  0.38888935  1
  Te  Te74  1  0.10485525  0.08882795  0.73915969  1
  Te  Te75  1  0.09500823  0.43868006  0.05786864  1
  Te  Te76  1  0.04988370  0.40995283  0.39974883  1
  Te  Te77  1  0.04508815  0.40366442  0.75004436  1
  Te  Te78  1  0.09511267  0.74512018  0.10526979  1
  Te  Te79  1  0.06881321  0.78693497  0.41707520  1
  Te  Te80  1  0.06741176  0.74584352  0.75384155  1
  Te  Te81  1  0.43007209  0.09894459  0.08494153  1
  Te  Te82  1  0.44382501  0.06500920  0.41719826  1
  Te  Te83  1  0.42988187  0.09767214  0.74584461  1
  Te  Te84  1  0.40854421  0.41192701  0.08386097  1
  Te  Te85  1  0.41144984  0.42824087  0.41397301  1
  Te  Te86  1  0.40710276  0.42542560  0.76065746  1
  Te  Te87  1  0.43102760  0.72340297  0.09890056  1
  Te  Te88  1  0.41665435  0.74366639  0.40671481  1
  Te  Te89  1  0.42272281  0.76246870  0.76257440  1
  Te  Te90  1  0.75319692  0.07574252  0.10796303  1
  Te  Te91  1  0.73309670  0.06727951  0.43462249  1
  Te  Te92  1  0.76356064  0.06959950  0.75014040  1
  Te  Te93  1  0.74957906  0.41348381  0.08137350  1
  Te  Te94  1  0.79144820  0.39674973  0.43901689  1
  Te  Te95  1  0.76696253  0.41563206  0.73293912  1
  Te  Te96  1  0.76518815  0.74445794  0.11778723  1
  Te  Te97  1  0.72944935  0.73269588  0.38370230  1
  Te  Te98  1  0.74914291  0.73898486  0.75628258  1
  Te  Te99  1  0.06516992  0.26386245  0.24237342  1
  Te  Te100  1  0.06203382  0.25303832  0.59318852  1
  Te  Te101  1  0.08938673  0.24685537  0.92017691  1
  Te  Te102  1  0.08265129  0.58991756  0.24610457  1
  Te  Te103  1  0.09770733  0.58658755  0.57004065  1
  Te  Te104  1  0.08794789  0.59294063  0.94791589  1
  Te  Te105  1  0.07780014  0.94072993  0.25556131  1
  Te  Te106  1  0.06821305  0.92903804  0.57526066  1
  Te  Te107  1  0.05871704  0.91386139  0.91487637  1
  Te  Te108  1  0.40992458  0.24257344  0.26790989  1
  Te  Te109  1  0.43573470  0.24781714  0.58147500  1
  Te  Te110  1  0.41490781  0.26130656  0.92911307  1
  Te  Te111  1  0.38886307  0.57250553  0.21654349  1
  Te  Te112  1  0.43032705  0.58824863  0.57926558  1
  Te  Te113  1  0.41686304  0.59613222  0.91973916  1
  Te  Te114  1  0.40788767  0.91328902  0.24209032  1
  Te  Te115  1  0.42899850  0.92598127  0.56640130  1
  Te  Te116  1  0.39768991  0.91742560  0.90602629  1
  Te  Te117  1  0.74266630  0.23659308  0.24209464  1
  Te  Te118  1  0.78022586  0.26661560  0.52869960  1
  Te  Te119  1  0.74859094  0.24452819  0.92159294  1
  Te  Te120  1  0.73105588  0.58642319  0.31644756  1
  Te  Te121  1  0.75698412  0.56497025  0.57543613  1
  Te  Te122  1  0.74467497  0.58480235  0.92603764  1
  Te  Te123  1  0.79930198  0.91017046  0.26509341  1
  Te  Te124  1  0.74604757  0.93185938  0.59157303  1
  Te  Te125  1  0.75372111  0.92238637  0.90532161  1
  Te  Te126  1  0.24327038  0.23360112  0.11080615  1
  Te  Te127  1  0.24260888  0.25597089  0.42231723  1
  Te  Te128  1  0.23659256  0.28258868  0.78774090  1
  Te  Te129  1  0.26592627  0.54536342  0.12281136  1
  Te  Te130  1  0.26568457  0.60374002  0.38638314  1
  Te  Te131  1  0.24910832  0.58125299  0.75259676  1
  Te  Te132  1  0.22927379  0.92903869  0.09568787  1
  Te  Te133  1  0.26238046  0.91655830  0.42129682  1
  Te  Te134  1  0.24641615  0.89742572  0.74610748  1
  Te  Te135  1  0.58256977  0.21882775  0.10132744  1
  Te  Te136  1  0.60079141  0.23458478  0.42029840  1
  Te  Te137  1  0.61290029  0.26393226  0.72360473  1
  Te  Te138  1  0.59840738  0.56867074  0.10097598  1
  Te  Te139  1  0.60370212  0.55759605  0.41180316  1
  Te  Te140  1  0.56886139  0.59384718  0.75564066  1
  Te  Te141  1  0.59388135  0.90515119  0.06868761  1
  Te  Te142  1  0.60436167  0.93181872  0.38816763  1
  Te  Te143  1  0.59348133  0.93201918  0.72892616  1
  Te  Te144  1  0.93490071  0.26292267  0.07225602  1
  Te  Te145  1  0.92791467  0.25354102  0.38465443  1
  Te  Te146  1  0.90143841  0.22157641  0.74654766  1
  Te  Te147  1  0.89328083  0.59574931  0.12925471  1
  Te  Te148  1  0.93262604  0.58635757  0.42149237  1
  Te  Te149  1  0.91040391  0.56917702  0.72541299  1
  Te  Te150  1  0.92724680  0.93571657  0.07726060  1
  Te  Te151  1  0.85127918  0.98047568  0.39633745  1
  Te  Te152  1  0.92872939  0.90139717  0.75934758  1
  Te  Te153  1  0.25097298  0.09618188  0.22660114  1
  Te  Te154  1  0.26218587  0.09453869  0.58828241  1
  Te  Te155  1  0.24667812  0.08105386  0.92405214  1
  Te  Te156  1  0.21758246  0.42054746  0.22729429  1
  Te  Te157  1  0.25031447  0.41440518  0.58718554  1
  Te  Te158  1  0.20142895  0.42464299  0.94263665  1
  Te  Te159  1  0.24318991  0.73922817  0.24164438  1
  Te  Te160  1  0.25690342  0.75501168  0.56867191  1
  Te  Te161  1  0.26065004  0.75567668  0.92793195  1
  Te  Te162  1  0.61519541  0.04955659  0.25214672  1
  Te  Te163  1  0.64205179  0.07018155  0.56389189  1
  Te  Te164  1  0.56951776  0.10183490  0.92562574  1
  Te  Te165  1  0.57929045  0.40677936  0.25822944  1
  Te  Te166  1  0.61469809  0.41689620  0.57525416  1
  Te  Te167  1  0.58343958  0.40978525  0.90584866  1
  Te  Te168  1  0.58826492  0.74241640  0.23595777  1
  Te  Te169  1  0.60709418  0.76358309  0.56595162  1
  Te  Te170  1  0.57344974  0.74304751  0.91973196  1
  Te  Te171  1  0.89940182  0.05596230  0.25552475  1
  Te  Te172  1  0.90645089  0.08660711  0.57214387  1
  Te  Te173  1  0.90792752  0.06588748  0.92120920  1
  Te  Te174  1  0.89372810  0.44195046  0.25329005  1
  Te  Te175  1  0.89375912  0.36922926  0.56678647  1
  Te  Te176  1  0.93022344  0.41568799  0.92171505  1
  Te  Te177  1  0.89973763  0.78760430  0.27601038  1
  Te  Te178  1  0.91437615  0.76800788  0.55180047  1
  Te  Te179  1  0.91477931  0.75402481  0.92806198  1
