# generated using pymatgen
data_In2Te3
_symmetry_space_group_name_H-M   'P 1'
_cell_length_a   18.76520207
_cell_length_b   18.76807699
_cell_length_c   18.77137224
_cell_angle_alpha   89.99009408
_cell_angle_beta   89.95546769
_cell_angle_gamma   89.96194623
_symmetry_Int_Tables_number   1
_chemical_formula_structural   In2Te3
_chemical_formula_sum   'In72 Te108'
_cell_volume   6611.02516301
_cell_formula_units_Z   36
loop_
 _symmetry_equiv_pos_site_id
 _symmetry_equiv_pos_as_xyz
  1  'x, y, z'
loop_
 _atom_site_type_symbol
 _atom_site_label
 _atom_site_symmetry_multiplicity
 _atom_site_fract_x
 _atom_site_fract_y
 _atom_site_fract_z
 _atom_site_occupancy
  In  In0  1  0.16077338  0.29406419  0.16969029  1
  In  In1  1  0.02455091  0.68840362  0.02515002  1
  In  In2  1  0.32403202  0.85235574  0.49627828  1
  In  In3  1  0.47334666  0.17316393  -0.03716156  1
  In  In4  1  0.66276725  0.32227822  0.67824497  1
  In  In5  1  0.17381235  0.15227886  0.67263465  1
  In  In6  1  0.20162598  0.69662879  0.85283320  1
  In  In7  1  0.00023277  0.00495433  0.64170397  1
  In  In8  1  0.84838445  0.33116177  0.15812817  1
  In  In9  1  0.80571381  0.30983777  0.83399493  1
  In  In10  1  0.50430040  0.46962997  0.34585339  1
  In  In11  1  0.14744788  0.84687756  0.66441537  1
  In  In12  1  0.87048080  0.65766890  0.47301122  1
  In  In13  1  0.33672950  0.49801216  0.81444532  1
  In  In14  1  0.17444390  0.00499738  0.83977047  1
  In  In15  1  0.66697538  0.48610701  0.82131126  1
  In  In16  1  0.14275829  0.15280909  0.33048625  1
  In  In17  1  0.50812257  0.16249816  0.68032825  1
  In  In18  1  -0.00041156  0.66976454  0.64710332  1
  In  In19  1  0.70690969  0.50825924  0.14891535  1
  In  In20  1  -0.00622548  0.86147004  0.83900393  1
  In  In21  1  0.47881582  0.66264630  0.51823493  1
  In  In22  1  0.51439983  0.84758978  0.33664509  1
  In  In23  1  0.35129815  0.85682998  0.15381603  1
  In  In24  1  0.85403666  0.01989538  0.19365901  1
  In  In25  1  0.51258139  0.47763933  -0.01620847  1
  In  In26  1  0.84124633  0.01395762  0.82831056  1
  In  In27  1  0.01509357  0.01434237  0.02022931  1
  In  In28  1  0.30490023  0.65882763  0.33297819  1
  In  In29  1  0.00527562  0.30837975  0.00471563  1
  In  In30  1  0.17584111  0.49387665  -0.02311804  1
  In  In31  1  0.82775314  0.48802393  0.00983897  1
  In  In32  1  0.67331483  0.48271078  0.51270007  1
  In  In33  1  0.50115369  0.86121829  -0.01462791  1
  In  In34  1  0.32866950  -0.00809294  -0.00996565  1
  In  In35  1  0.65645461  0.67147408  0.00918103  1
  In  In36  1  0.14665044  0.65493149  0.16629677  1
  In  In37  1  0.14411962  0.67584326  0.48734355  1
  In  In38  1  0.48118684  0.69690630  0.16383259  1
  In  In39  1  0.66790394  0.31190670  0.34497566  1
  In  In40  1  0.50027017  0.31072758  0.17423399  1
  In  In41  1  0.85693841  0.32022869  0.49524298  1
  In  In42  1  0.66630327  0.85853563  0.48369920  1
  In  In43  1  0.67551019  0.66291785  0.67598101  1
  In  In44  1  0.51084176  0.31556852  0.49531767  1
  In  In45  1  0.32441181  0.17563544  0.16839210  1
  In  In46  1  0.00494628  0.49600994  0.18558529  1
  In  In47  1  0.84409212  0.68918278  0.18963921  1
  In  In48  1  0.34420027  0.12745831  0.48346282  1
  In  In49  1  0.67393604  0.14857468  0.15225113  1
  In  In50  1  0.16405190  0.34162572  0.49476252  1
  In  In51  1  0.15184136  0.49986730  0.34949717  1
  In  In52  1  0.65568655  0.01577094  -0.00561983  1
  In  In53  1  0.32762187  0.33761045  0.67515387  1
  In  In54  1  0.49793867  0.66468880  0.84453754  1
  In  In55  1  0.67020793  0.66140023  0.32049260  1
  In  In56  1  0.33670714  0.00987564  0.66156529  1
  In  In57  1  0.15488653  0.30982471  0.83787022  1
  In  In58  1  0.33384330  0.50450992  0.15710180  1
  In  In59  1  0.83503455  0.68621249  0.81467185  1
  In  In60  1  0.50740779  -0.00560223  0.17822201  1
  In  In61  1  -0.00041786  0.15603247  0.49097649  1
  In  In62  1  0.83812991  0.18123939  0.66525866  1
  In  In63  1  0.34305966  0.32488262  0.31904211  1
  In  In64  1  0.67468585  -0.00170800  0.65855267  1
  In  In65  1  0.00329110  0.49343738  0.81714602  1
  In  In66  1  0.49714959  0.84144857  0.67619673  1
  In  In67  1  0.85443716  0.86815515  0.34074040  1
  In  In68  1  0.83385809  0.86573720  0.00670084  1
  In  In69  1  0.33800718  0.65471962  0.67376323  1
  In  In70  1  0.14206726  0.85724304  0.31276930  1
  In  In71  1  -0.02223606  0.34139541  0.66994003  1
  Te  Te72  1  0.11391111  0.06294759  0.12446967  1
  Te  Te73  1  0.06827718  0.04602648  0.41042822  1
  Te  Te74  1  0.06866146  0.07978155  0.75609666  1
  Te  Te75  1  0.09087216  0.41938756  0.08227210  1
  Te  Te76  1  0.05745953  0.40185511  0.40991897  1
  Te  Te77  1  0.10030882  0.40930752  0.73546894  1
  Te  Te78  1  0.09756234  0.78396993  0.10899833  1
  Te  Te79  1  0.06372098  0.77577490  0.41213885  1
  Te  Te80  1  0.07659766  0.75374705  0.76391132  1
  Te  Te81  1  0.42354558  0.08178962  0.08560999  1
  Te  Te82  1  0.42786944  0.04319207  0.39690181  1
  Te  Te83  1  0.41111962  0.08564257  0.76482051  1
  Te  Te84  1  0.41587266  0.40006750  0.08285409  1
  Te  Te85  1  0.39935144  0.40752675  0.43518924  1
  Te  Te86  1  0.43271743  0.39985800  0.75989454  1
  Te  Te87  1  0.39886303  0.75357432  0.04234855  1
  Te  Te88  1  0.41555526  0.74964293  0.40744241  1
  Te  Te89  1  0.40504947  0.75700598  0.76498456  1
  Te  Te90  1  0.77636984  0.07419092  0.06760945  1
  Te  Te91  1  0.69887564  0.13141295  0.46645058  1
  Te  Te92  1  0.74255198  0.10495199  0.75492969  1
  Te  Te93  1  0.72696938  0.38018478  0.05870584  1
  Te  Te94  1  0.76025929  0.41347873  0.41044784  1
  Te  Te95  1  0.77012578  0.41776327  0.73109592  1
  Te  Te96  1  0.75448091  0.75918003  0.08741895  1
  Te  Te97  1  0.75356397  0.75308627  0.40937640  1
  Te  Te98  1  0.74227038  0.77485945  0.74425678  1
  Te  Te99  1  0.04760157  0.24024009  0.25211196  1
  Te  Te100  1  0.07784160  0.24310343  0.59106345  1
  Te  Te101  1  0.09819204  0.21330766  0.93596391  1
  Te  Te102  1  0.05767014  0.60825718  0.28648974  1
  Te  Te103  1  0.08000428  0.57219223  0.57122432  1
  Te  Te104  1  0.07405761  0.59061732  0.91234772  1
  Te  Te105  1  0.06850472  0.96110825  0.23129697  1
  Te  Te106  1  0.05980556  0.89731179  0.55527564  1
  Te  Te107  1  0.09800174  0.91180687  0.93486547  1
  Te  Te108  1  0.43452018  0.21266357  0.27112438  1
  Te  Te109  1  0.40366652  0.23330025  0.57856707  1
  Te  Te110  1  0.39303801  0.29012393  0.92328993  1
  Te  Te111  1  0.42226938  0.57849729  0.25936263  1
  Te  Te112  1  0.41281915  0.55586390  0.59331131  1
  Te  Te113  1  0.40747062  0.57420124  0.92750576  1
  Te  Te114  1  0.39871954  0.93610965  0.27915208  1
  Te  Te115  1  0.43225663  0.93098718  0.57057281  1
  Te  Te116  1  0.42155012  0.93723327  0.88674980  1
  Te  Te117  1  0.75557742  0.23876591  0.24524518  1
  Te  Te118  1  0.73214191  0.24796969  0.56161590  1
  Te  Te119  1  0.74588737  0.26096537  0.95692665  1
  Te  Te120  1  0.78131535  0.57164813  0.26610522  1
  Te  Te121  1  0.76013462  0.59263634  0.57029375  1
  Te  Te122  1  0.74403363  0.58609455  0.91513936  1
  Te  Te123  1  0.74776999  0.94154365  0.26548247  1
  Te  Te124  1  0.76730140  0.92172084  0.57013482  1
  Te  Te125  1  0.74169193  0.92246632  0.90212818  1
  Te  Te126  1  0.24705035  0.24442481  0.06114126  1
  Te  Te127  1  0.24910776  0.23763504  0.41171001  1
  Te  Te128  1  0.26491168  0.22927652  0.76492908  1
  Te  Te129  1  0.24839143  0.59416135  0.06840140  1
  Te  Te130  1  0.25370649  0.56912159  0.44084906  1
  Te  Te131  1  0.22650220  0.58409799  0.75181082  1
  Te  Te132  1  0.24113846  0.94541779  0.10337482  1
  Te  Te133  1  0.23319829  0.92818354  0.40878491  1
  Te  Te134  1  0.25516160  0.91122738  0.74943576  1
  Te  Te135  1  0.57443644  0.22935570  0.07013565  1
  Te  Te136  1  0.57288659  0.21047501  0.40553160  1
  Te  Te137  1  0.57964194  0.25136604  0.77803848  1
  Te  Te138  1  0.57112811  0.57775299  0.09471840  1
  Te  Te139  1  0.58325167  0.58109143  0.41952452  1
  Te  Te140  1  0.56923984  0.57589158  0.74280771  1
  Te  Te141  1  0.59966247  0.90921156  0.09049476  1
  Te  Te142  1  0.57734274  0.95876575  0.41598320  1
  Te  Te143  1  0.58012087  0.93412857  0.75446521  1
  Te  Te144  1  0.92565408  0.22145604  0.09398837  1
  Te  Te145  1  0.89919730  0.21493304  0.39526563  1
  Te  Te146  1  0.92888284  0.24148658  0.77427933  1
  Te  Te147  1  0.91848090  0.58716409  0.08653145  1
  Te  Te148  1  0.95537713  0.56460245  0.39738026  1
  Te  Te149  1  0.90746834  0.57897341  0.73521596  1
  Te  Te150  1  0.93387611  0.91511199  0.10830869  1
  Te  Te151  1  0.94298414  0.95211442  0.42360719  1
  Te  Te152  1  0.90691171  0.91639106  0.72912436  1
  Te  Te153  1  0.23895779  0.07703714  0.24315760  1
  Te  Te154  1  0.22876227  0.06122035  0.56421923  1
  Te  Te155  1  0.24427897  0.10043677  0.92999015  1
  Te  Te156  1  0.24039501  0.41830935  0.24506432  1
  Te  Te157  1  0.24127595  0.42351702  0.59003605  1
  Te  Te158  1  0.27038926  0.39147135  0.91558216  1
  Te  Te159  1  0.25424766  0.75994329  0.23482817  1
  Te  Te160  1  0.24961935  0.74997557  0.58531009  1
  Te  Te161  1  0.26630417  0.77277988  0.95707253  1
  Te  Te162  1  0.61804672  0.05741122  0.25776645  1
  Te  Te163  1  0.58881127  0.09182672  0.57305627  1
  Te  Te164  1  0.57163278  0.08534523  0.89379774  1
  Te  Te165  1  0.59790641  0.41248946  0.23947559  1
  Te  Te166  1  0.56842381  0.41437622  0.59790068  1
  Te  Te167  1  0.59461295  0.38331625  0.90209260  1
  Te  Te168  1  0.59756567  0.76628441  0.23672388  1
  Te  Te169  1  0.58632828  0.75421254  0.57639141  1
  Te  Te170  1  0.59528482  0.76427788  0.90587068  1
  Te  Te171  1  0.93634003  0.12174631  0.26479207  1
  Te  Te172  1  0.88760485  0.07785140  0.56531862  1
  Te  Te173  1  0.92434614  0.08530397  0.92741660  1
  Te  Te174  1  0.91858997  0.40605591  0.26473196  1
  Te  Te175  1  0.91596885  0.43186703  0.57215871  1
  Te  Te176  1  0.92183113  0.40901377  0.91569021  1
  Te  Te177  1  0.93942290  0.77206234  0.26438430  1
  Te  Te178  1  0.90691456  0.75856650  0.57473597  1
  Te  Te179  1  0.91429215  0.75320852  0.92775282  1
