# generated using pymatgen
data_In2Te3
_symmetry_space_group_name_H-M   'P 1'
_cell_length_a   18.96221349
_cell_length_b   18.99460963
_cell_length_c   19.00993607
_cell_angle_alpha   89.89522450
_cell_angle_beta   89.98966707
_cell_angle_gamma   89.96129802
_symmetry_Int_Tables_number   1
_chemical_formula_structural   In2Te3
_chemical_formula_sum   'In72 Te108'
_cell_volume   6846.98266758
_cell_formula_units_Z   36
loop_
 _symmetry_equiv_pos_site_id
 _symmetry_equiv_pos_as_xyz
  1  'x, y, z'
loop_
 _atom_site_type_symbol
 _atom_site_label
 _atom_site_symmetry_multiplicity
 _atom_site_fract_x
 _atom_site_fract_y
 _atom_site_fract_z
 _atom_site_occupancy
  In  In0  1  0.48176760  0.48754352  0.68561713  1
  In  In1  1  0.82603800  0.15610541  -0.00640151  1
  In  In2  1  0.83362934  0.68305131  0.19009443  1
  In  In3  1  0.81479565  0.30251259  0.15883982  1
  In  In4  1  0.64683269  0.62537977  0.33133355  1
  In  In5  1  0.15696759  0.18972166  0.67887808  1
  In  In6  1  0.01077146  0.34698249  0.65347711  1
  In  In7  1  0.18961795  0.83064319  0.67549899  1
  In  In8  1  0.02753069  0.66429106  -0.01170729  1
  In  In9  1  0.83737274  0.17051328  0.66365402  1
  In  In10  1  0.84473933  0.64405549  0.81780857  1
  In  In11  1  0.51300794  0.81967718  0.67215469  1
  In  In12  1  0.62679578  0.38139908  0.31226262  1
  In  In13  1  -0.01432698  0.17005276  0.50281443  1
  In  In14  1  0.01513376  0.14418589  0.84676838  1
  In  In15  1  0.18643233  0.80829178  -0.00431483  1
  In  In16  1  0.69587178  0.82732888  0.50695475  1
  In  In17  1  0.00196042  0.50381786  0.50198619  1
  In  In18  1  0.35049485  0.02212305  0.68084490  1
  In  In19  1  0.84215101  0.83791567  0.34408522  1
  In  In20  1  0.84163682  0.86137188  -0.00900780  1
  In  In21  1  0.33683326  0.49199141  0.15534805  1
  In  In22  1  0.83495860  0.50000281  -0.01387976  1
  In  In23  1  0.46984904  0.16627382  0.32355454  1
  In  In24  1  0.49557598  0.84531624  0.00121811  1
  In  In25  1  0.32464118  0.33472554  0.32205630  1
  In  In26  1  0.32513449  0.82439630  0.48085133  1
  In  In27  1  0.65851951  0.84394190  0.15892407  1
  In  In28  1  0.17586503  0.00282660  0.50728591  1
  In  In29  1  0.65281987  0.02491784  0.35396293  1
  In  In30  1  0.03931373  0.80403136  0.47708331  1
  In  In31  1  0.83526969  0.35108759  0.79601135  1
  In  In32  1  0.80715918  0.48961750  0.33246189  1
  In  In33  1  0.18411974  0.34922563  0.81703566  1
  In  In34  1  0.64258224  0.34372143  -0.02268168  1
  In  In35  1  -0.02702425  0.34037848  0.00572880  1
  In  In36  1  0.82569306  0.01916819  0.16891645  1
  In  In37  1  0.16595445  0.16656987  0.01657592  1
  In  In38  1  0.65276911  0.64843535  0.66929040  1
  In  In39  1  0.81756135  0.17396645  0.33731800  1
  In  In40  1  0.82084420  -0.00867040  0.83281364  1
  In  In41  1  0.50448774  -0.00081220  0.51204275  1
  In  In42  1  0.34663961  0.65441792  0.66499419  1
  In  In43  1  0.84477308  0.66281158  0.50881850  1
  In  In44  1  0.18389021  0.65733693  0.17662263  1
  In  In45  1  0.36799640  0.62284863  -0.01209727  1
  In  In46  1  0.03370919  -0.00650231  0.08918518  1
  In  In47  1  0.83814468  0.51107741  0.65447090  1
  In  In48  1  0.20347408  0.61959530  0.83784948  1
  In  In49  1  0.67390532  0.18602284  0.50680790  1
  In  In50  1  0.01893303  0.82188671  0.82542307  1
  In  In51  1  0.33025577  0.85018942  0.15839073  1
  In  In52  1  0.34908274  0.35506086  -0.01790177  1
  In  In53  1  0.28900805  0.01495391  0.31735404  1
  In  In54  1  0.50660862  0.64546564  0.15829528  1
  In  In55  1  0.48880730  0.19724760  0.67550545  1
  In  In56  1  0.65803459  0.64931916  0.01254240  1
  In  In57  1  0.01602807  -0.01810281  0.32988936  1
  In  In58  1  -0.00002267  0.51840252  0.17922067  1
  In  In59  1  0.64534500  0.18945891  0.83948927  1
  In  In60  1  0.49013214  0.18065873  -0.00405162  1
  In  In61  1  0.66420372  0.82145601  0.83908047  1
  In  In62  1  0.31138437  0.65757432  0.34697528  1
  In  In63  1  0.46879690  0.83493075  0.32412646  1
  In  In64  1  0.15687786  0.33576079  0.16916443  1
  In  In65  1  0.00542593  0.36424919  0.34302178  1
  In  In66  1  0.35882752  0.01350334  -0.01458247  1
  In  In67  1  0.48763095  0.34311732  0.51405629  1
  In  In68  1  0.34542700  0.19574640  0.48954680  1
  In  In69  1  0.32430369  0.49698017  0.50928904  1
  In  In70  1  0.84528481  0.84295521  0.65049916  1
  In  In71  1  0.16501733  -0.00902106  0.85375155  1
  Te  Te72  1  0.12586579  0.10176208  0.14584583  1
  Te  Te73  1  0.08335991  0.08354669  0.41920245  1
  Te  Te74  1  0.09195558  0.06612390  0.74268262  1
  Te  Te75  1  0.07068451  0.42960830  0.07986658  1
  Te  Te76  1  0.10426470  0.42442259  0.43138656  1
  Te  Te77  1  0.11348339  0.43498373  0.71512088  1
  Te  Te78  1  0.08819537  0.74826814  0.09496969  1
  Te  Te79  1  0.10589961  0.68914211  0.41585515  1
  Te  Te80  1  0.11877174  0.73098253  0.76412664  1
  Te  Te81  1  0.39657412  0.11065321  0.08611911  1
  Te  Te82  1  0.39816884  0.06271452  0.42444739  1
  Te  Te83  1  0.45041846  0.08676339  0.76699371  1
  Te  Te84  1  0.44097154  0.40434370  0.09195399  1
  Te  Te85  1  0.41084313  0.42234829  0.40914449  1
  Te  Te86  1  0.42560428  0.39910692  0.79562503  1
  Te  Te87  1  0.40636820  0.73744016  0.08888947  1
  Te  Te88  1  0.42561657  0.72701012  0.42108382  1
  Te  Te89  1  0.42600628  0.73841524  0.75645400  1
  Te  Te90  1  0.73112446  0.09329246  0.08627589  1
  Te  Te91  1  0.76227311  0.07750191  0.44095482  1
  Te  Te92  1  0.74596768  0.09909320  0.76148959  1
  Te  Te93  1  0.75012300  0.40810918  0.07031667  1
  Te  Te94  1  0.72510298  0.40534707  0.42163827  1
  Te  Te95  1  0.74263684  0.45461438  0.75145391  1
  Te  Te96  1  0.74947951  0.75627897  0.07204760  1
  Te  Te97  1  0.74464566  0.72754014  0.40098032  1
  Te  Te98  1  0.75871061  0.74310751  0.73633195  1
  Te  Te99  1  0.06241364  0.26345073  0.25446058  1
  Te  Te100  1  0.09446216  0.26028954  0.56116659  1
  Te  Te101  1  0.07864295  0.25557222  0.92806667  1
  Te  Te102  1  0.08456003  0.59816935  0.27055240  1
  Te  Te103  1  0.06056746  0.56937217  0.61869755  1
  Te  Te104  1  0.07729214  0.56676430  0.89478692  1
  Te  Te105  1  0.09430981  0.93639320  0.21136579  1
  Te  Te106  1  0.09322923  0.90357226  0.58612954  1
  Te  Te107  1  0.07366142  0.90463021  0.94021824  1
  Te  Te108  1  0.41921243  0.26795581  0.23210782  1
  Te  Te109  1  0.37354689  0.29024707  0.61000083  1
  Te  Te110  1  0.43287001  0.27177914  0.88905248  1
  Te  Te111  1  0.40782479  0.58309884  0.25463694  1
  Te  Te112  1  0.43727701  0.57650097  0.56988907  1
  Te  Te113  1  0.44390963  0.53809159  0.89362171  1
  Te  Te114  1  0.40756842  0.94689393  0.24430125  1
  Te  Te115  1  0.40147487  0.90876638  0.58321482  1
  Te  Te116  1  0.41986187  0.91391652  0.89785350  1
  Te  Te117  1  0.71705790  0.25931745  0.26412533  1
  Te  Te118  1  0.75993522  0.26998916  0.58948876  1
  Te  Te119  1  0.76937127  0.26741704  0.90700947  1
  Te  Te120  1  0.73747099  0.57235250  0.22273292  1
  Te  Te121  1  0.73285268  0.57613276  0.56285938  1
  Te  Te122  1  0.73492867  0.57836761  0.90231618  1
  Te  Te123  1  0.74172578  0.92124089  0.26381919  1
  Te  Te124  1  0.74278826  0.93225820  0.59499059  1
  Te  Te125  1  0.72236407  0.93008755  0.93194105  1
  Te  Te126  1  0.25657836  0.27199026  0.07505952  1
  Te  Te127  1  0.23910499  0.23050575  0.38946772  1
  Te  Te128  1  0.25848465  0.22999434  0.77599810  1
  Te  Te129  1  0.24529640  0.57467054  0.06684272  1
  Te  Te130  1  0.22101335  0.58516856  0.44228228  1
  Te  Te131  1  0.26787546  0.54536683  0.72682187  1
  Te  Te132  1  0.25027525  0.92894460  0.06052027  1
  Te  Te133  1  0.22438702  0.90504059  0.40117584  1
  Te  Te134  1  0.26787120  0.92283493  0.76498076  1
  Te  Te135  1  0.60102011  0.24247505  0.07194800  1
  Te  Te136  1  0.55868993  0.24195804  0.42654213  1
  Te  Te137  1  0.60269600  0.27702639  0.72724929  1
  Te  Te138  1  0.57410847  0.54174442  0.07467749  1
  Te  Te139  1  0.58959612  0.50568416  0.39476401  1
  Te  Te140  1  0.54891664  0.59919331  0.76239304  1
  Te  Te141  1  0.56170762  0.93264777  0.09698688  1
  Te  Te142  1  0.57497459  0.90303316  0.41733068  1
  Te  Te143  1  0.60416866  0.91090595  0.74032304  1
  Te  Te144  1  0.92427244  0.22336712  0.08953031  1
  Te  Te145  1  0.90837628  0.26561186  0.41444193  1
  Te  Te146  1  0.94636486  0.24774867  0.75608533  1
  Te  Te147  1  0.91046538  0.59770302  0.07587937  1
  Te  Te148  1  0.90825587  0.57642421  0.40267485  1
  Te  Te149  1  0.94698583  0.58887017  0.72396960  1
  Te  Te150  1  0.90939226  0.90382164  0.11629764  1
  Te  Te151  1  0.93326735  0.91171940  0.43699800  1
  Te  Te152  1  0.92839096  0.91875362  0.75222068  1
  Te  Te153  1  0.23712433  0.14086476  0.26311638  1
  Te  Te154  1  0.26003118  0.10224538  0.58725574  1
  Te  Te155  1  0.25130863  0.10046092  0.91039297  1
  Te  Te156  1  0.23501362  0.43602652  0.25308704  1
  Te  Te157  1  0.26948839  0.40144524  0.60548140  1
  Te  Te158  1  0.24183259  0.43492618  0.92071071  1
  Te  Te159  1  0.25173405  0.76636045  0.25703629  1
  Te  Te160  1  0.24979374  0.73474045  0.57693769  1
  Te  Te161  1  0.28155192  0.72815938  0.91217003  1
  Te  Te162  1  0.57359695  0.08935367  0.25228299  1
  Te  Te163  1  0.57735794  0.10070678  0.59196427  1
  Te  Te164  1  0.56498515  0.08735778  0.90633423  1
  Te  Te165  1  0.55609856  0.43806057  0.19495967  1
  Te  Te166  1  0.58014741  0.40088961  0.61390529  1
  Te  Te167  1  0.55012157  0.42198010  0.89017721  1
  Te  Te168  1  0.58045260  0.74795828  0.25154863  1
  Te  Te169  1  0.58735409  0.74059929  0.56654701  1
  Te  Te170  1  0.57148446  0.73757521  0.92509763  1
  Te  Te171  1  0.91786434  0.08472194  0.26754412  1
  Te  Te172  1  0.92919877  0.07749157  0.59980893  1
  Te  Te173  1  0.92173374  0.05807630  0.92880426  1
  Te  Te174  1  0.89766469  0.41552074  0.22942894  1
  Te  Te175  1  0.90243488  0.40576755  0.56809538  1
  Te  Te176  1  0.92752789  0.42916447  0.88971848  1
  Te  Te177  1  0.93368747  0.75016416  0.27080038  1
  Te  Te178  1  0.94273393  0.74753876  0.58486802  1
  Te  Te179  1  0.90743911  0.74934819  0.91183969  1
