# generated using pymatgen
data_In2Te3
_symmetry_space_group_name_H-M   'P 1'
_cell_length_a   18.89240134
_cell_length_b   18.88534323
_cell_length_c   18.88433136
_cell_angle_alpha   90.04377822
_cell_angle_beta   89.98317155
_cell_angle_gamma   90.07001537
_symmetry_Int_Tables_number   1
_chemical_formula_structural   In2Te3
_chemical_formula_sum   'In72 Te108'
_cell_volume   6737.72355177
_cell_formula_units_Z   36
loop_
 _symmetry_equiv_pos_site_id
 _symmetry_equiv_pos_as_xyz
  1  'x, y, z'
loop_
 _atom_site_type_symbol
 _atom_site_label
 _atom_site_symmetry_multiplicity
 _atom_site_fract_x
 _atom_site_fract_y
 _atom_site_fract_z
 _atom_site_occupancy
  In  In0  1  0.31523251  0.29668974  0.66703956  1
  In  In1  1  0.66429161  0.48234541  0.81553915  1
  In  In2  1  0.81358398  0.81206090  0.01600576  1
  In  In3  1  0.66766325  -0.00265463  0.65903080  1
  In  In4  1  0.17694416  0.47906910  0.67034904  1
  In  In5  1  0.32515223  0.00481021  0.36554169  1
  In  In6  1  0.14543237  0.66153555  0.83306346  1
  In  In7  1  0.49810697  0.17942935  -0.00142068  1
  In  In8  1  0.01770617  0.15032127  0.49445868  1
  In  In9  1  0.68401981  0.00279350  -0.00143342  1
  In  In10  1  0.83508321  0.51850287  0.00596049  1
  In  In11  1  0.08503516  0.00033354  0.20982798  1
  In  In12  1  0.81871364  0.34566034  0.48374968  1
  In  In13  1  0.50295899  0.32759806  0.52698398  1
  In  In14  1  0.64390805  0.15937138  0.51830700  1
  In  In15  1  -0.00665165  0.51186569  0.17421467  1
  In  In16  1  0.66549770  0.17820347  0.16467324  1
  In  In17  1  0.18018966  0.68150067  0.51207258  1
  In  In18  1  0.03718941  0.45049826  0.46731945  1
  In  In19  1  0.35030163  0.48298563  0.81649542  1
  In  In20  1  0.01806941  0.48588303  0.85315537  1
  In  In21  1  0.82146074  0.51640604  0.67118506  1
  In  In22  1  0.83919359  0.34475229  0.15560601  1
  In  In23  1  0.66238270  0.66815536  0.34022194  1
  In  In24  1  0.84488824  -0.00982372  0.81471608  1
  In  In25  1  0.48150365  0.00075063  0.81118709  1
  In  In26  1  0.00404050  0.03066555  0.01904738  1
  In  In27  1  0.52874536  0.85243991  -0.01491240  1
  In  In28  1  0.49686604  0.82495037  0.66348642  1
  In  In29  1  0.66194482  0.67389209  0.67123801  1
  In  In30  1  0.32807000  0.02625331  -0.02450228  1
  In  In31  1  0.48042495  0.17836454  0.33789566  1
  In  In32  1  0.32779751  0.46891990  0.19026972  1
  In  In33  1  0.50442071  0.64232207  0.49677005  1
  In  In34  1  0.85086834  -0.02193417  0.19824949  1
  In  In35  1  0.16981704  0.17016811  0.34025418  1
  In  In36  1  0.50558054  -0.01267405  0.14899545  1
  In  In37  1  0.01966163  0.85259805  0.51566957  1
  In  In38  1  0.82655063  0.49382087  0.33635301  1
  In  In39  1  0.34570780  0.30648760  0.33932968  1
  In  In40  1  0.15615146  0.84060420  0.00782266  1
  In  In41  1  0.82733154  0.16325490  0.66376273  1
  In  In42  1  -0.00472219  0.83780840  0.82239467  1
  In  In43  1  -0.01093426  0.30841936  0.64666896  1
  In  In44  1  0.51643511  0.84206702  0.36746744  1
  In  In45  1  0.32023660  0.85111323  0.50953266  1
  In  In46  1  0.31884595  0.03607389  0.64558257  1
  In  In47  1  0.65171038  0.49737387  0.18640635  1
  In  In48  1  0.31771656  0.19271097  0.19564334  1
  In  In49  1  0.32438146  0.66958398  0.31566490  1
  In  In50  1  0.02173455  0.15935770  0.81367780  1
  In  In51  1  0.82148054  0.67028006  0.49930258  1
  In  In52  1  0.82526369  0.67546961  0.82685054  1
  In  In53  1  0.62415274  0.19396093  0.80814901  1
  In  In54  1  0.31528176  0.67931507  -0.00791085  1
  In  In55  1  0.00028115  0.32627750  0.00050292  1
  In  In56  1  0.33787460  0.50175306  0.51271674  1
  In  In57  1  0.48295369  0.65010349  0.17006506  1
  In  In58  1  0.19892862  0.50301995  0.00283183  1
  In  In59  1  -0.02728571  0.67255533  0.32775718  1
  In  In60  1  0.81327397  0.18926779  -0.01148875  1
  In  In61  1  0.18259245  -0.00455554  0.80910927  1
  In  In62  1  0.34717326  0.33747888  -0.03174423  1
  In  In63  1  0.85263514  0.17241215  0.31549068  1
  In  In64  1  0.83686880  -0.01602222  0.47464831  1
  In  In65  1  0.52775514  0.49787626  -0.00684029  1
  In  In66  1  0.67856833  -0.00331720  0.33272275  1
  In  In67  1  0.15866080  0.68579085  0.19143454  1
  In  In68  1  0.33437103  0.83007566  0.17242388  1
  In  In69  1  0.18632980  0.32905304  0.17401107  1
  In  In70  1  0.50879470  0.68558120  0.84197110  1
  In  In71  1  0.00596921  0.67230323  0.65377257  1
  Te  Te72  1  0.11613261  0.08660716  0.09514213  1
  Te  Te73  1  0.10185253  0.05825829  0.41357172  1
  Te  Te74  1  0.08472068  0.06436902  0.71555830  1
  Te  Te75  1  0.09140106  0.42224873  0.08637637  1
  Te  Te76  1  0.10203093  0.33952902  0.39515132  1
  Te  Te77  1  0.07386186  0.39615587  0.74494557  1
  Te  Te78  1  0.07588525  0.74877596  0.08866820  1
  Te  Te79  1  0.07397489  0.74210688  0.42368760  1
  Te  Te80  1  0.09642874  0.76550303  0.73309819  1
  Te  Te81  1  0.40950758  0.09000094  0.09118859  1
  Te  Te82  1  0.43645128  0.07359154  0.43227270  1
  Te  Te83  1  0.41766608  0.10861778  0.73365186  1
  Te  Te84  1  0.41351114  0.42907956  0.06983770  1
  Te  Te85  1  0.42182685  0.40830323  0.42549837  1
  Te  Te86  1  0.41933989  0.39414019  0.71911732  1
  Te  Te87  1  0.42325030  0.75793379  0.06993736  1
  Te  Te88  1  0.40549845  0.74834067  0.42034520  1
  Te  Te89  1  0.41008361  0.75019979  0.75641221  1
  Te  Te90  1  0.76577641  0.08058502  0.10170092  1
  Te  Te91  1  0.75505803  0.10566818  0.41516877  1
  Te  Te92  1  0.73639523  0.09352202  0.76921991  1
  Te  Te93  1  0.73920287  0.42518332  0.07789229  1
  Te  Te94  1  0.71880457  0.42166162  0.40654086  1
  Te  Te95  1  0.77193410  0.40438336  0.75050543  1
  Te  Te96  1  0.79298288  0.71680561  0.12703970  1
  Te  Te97  1  0.75317529  0.76436047  0.40795576  1
  Te  Te98  1  0.76188480  0.76433659  0.73032884  1
  Te  Te99  1  0.08173547  0.25959044  0.25778266  1
  Te  Te100  1  0.10395361  0.23028346  0.58919589  1
  Te  Te101  1  0.08715994  0.24314572  0.91573700  1
  Te  Te102  1  0.08685115  0.57951754  0.27280011  1
  Te  Te103  1  0.08894281  0.56851086  0.57893118  1
  Te  Te104  1  0.08289071  0.58594321  0.94898502  1
  Te  Te105  1  0.02090759  0.87691949  0.26046748  1
  Te  Te106  1  0.07840485  0.93443968  0.62445908  1
  Te  Te107  1  0.07652171  0.93890649  0.91221315  1
  Te  Te108  1  0.44685486  0.28013913  0.21946259  1
  Te  Te109  1  0.39428251  0.22786143  0.55713887  1
  Te  Te110  1  0.42104668  0.23927639  0.88783247  1
  Te  Te111  1  0.42087466  0.55834090  0.27225286  1
  Te  Te112  1  0.42096091  0.58289094  0.60177011  1
  Te  Te113  1  0.40790267  0.58016224  0.92349812  1
  Te  Te114  1  0.42508961  0.91762536  0.25966410  1
  Te  Te115  1  0.42237720  0.93175308  0.58515631  1
  Te  Te116  1  0.40931254  0.91305936  0.91342049  1
  Te  Te117  1  0.75080213  0.26737146  0.25407701  1
  Te  Te118  1  0.74135770  0.25830911  0.58358260  1
  Te  Te119  1  0.71094119  0.26009882  0.91050863  1
  Te  Te120  1  0.76242390  0.59227033  0.24125787  1
  Te  Te121  1  0.72674702  0.57444678  0.57020819  1
  Te  Te122  1  0.73860800  0.58359882  0.90889857  1
  Te  Te123  1  0.75825163  0.88747183  0.27136028  1
  Te  Te124  1  0.74472272  0.91384801  0.56587414  1
  Te  Te125  1  0.75631404  0.90710495  0.90541429  1
  Te  Te126  1  0.26071063  0.25347070  0.06706461  1
  Te  Te127  1  0.27828204  0.21039927  0.44116258  1
  Te  Te128  1  0.24477488  0.22168164  0.77093558  1
  Te  Te129  1  0.26406719  0.59326490  0.11096199  1
  Te  Te130  1  0.24939358  0.58466721  0.41770657  1
  Te  Te131  1  0.24852909  0.58303763  0.75414338  1
  Te  Te132  1  0.26531153  0.92224348  0.07361824  1
  Te  Te133  1  0.21769248  0.93027933  0.43593732  1
  Te  Te134  1  0.28352371  0.92140343  0.73254129  1
  Te  Te135  1  0.59712924  0.26489671  0.06789439  1
  Te  Te136  1  0.58646216  0.25445326  0.41498735  1
  Te  Te137  1  0.56091857  0.29782466  0.71272963  1
  Te  Te138  1  0.59472204  0.60118390  0.08175959  1
  Te  Te139  1  0.58719712  0.55938634  0.40657197  1
  Te  Te140  1  0.56931167  0.58175829  0.74772571  1
  Te  Te141  1  0.61953055  0.90164112  0.09828495  1
  Te  Te142  1  0.58907115  0.94747150  0.43990676  1
  Te  Te143  1  0.58805300  0.90822705  0.75492694  1
  Te  Te144  1  0.91989479  0.23363348  0.09000864  1
  Te  Te145  1  0.92298405  0.25091036  0.42501484  1
  Te  Te146  1  0.90792464  0.24828535  0.76155910  1
  Te  Te147  1  0.92314892  0.60762547  0.08584256  1
  Te  Te148  1  0.91942638  0.57120365  0.43206780  1
  Te  Te149  1  0.93747343  0.58465442  0.76080356  1
  Te  Te150  1  0.90852610  0.92287921  0.06838933  1
  Te  Te151  1  0.94768207  0.91848662  0.39981476  1
  Te  Te152  1  0.93633323  0.92659779  0.71668317  1
  Te  Te153  1  0.24856582  0.06571493  0.24717395  1
  Te  Te154  1  0.23018906  0.13052030  0.56858491  1
  Te  Te155  1  0.24736698  0.11259396  0.88238637  1
  Te  Te156  1  0.23666843  0.40860739  0.29650822  1
  Te  Te157  1  0.24408303  0.39485856  0.56591139  1
  Te  Te158  1  0.23587864  0.41122221  0.88942835  1
  Te  Te159  1  0.23252870  0.78868303  0.27661584  1
  Te  Te160  1  0.25795163  0.75999022  0.60781821  1
  Te  Te161  1  0.23622118  0.76705734  0.89952790  1
  Te  Te162  1  0.57841571  0.08192377  0.24743959  1
  Te  Te163  1  0.56503401  0.10180052  0.62991431  1
  Te  Te164  1  0.57500552  0.07036039  0.91862907  1
  Te  Te165  1  0.55571116  0.39349797  0.22375771  1
  Te  Te166  1  0.59111751  0.40647733  0.61629034  1
  Te  Te167  1  0.56859369  0.39925773  0.89330926  1
  Te  Te168  1  0.56374366  0.74899809  0.25473634  1
  Te  Te169  1  0.58676921  0.75192790  0.56369667  1
  Te  Te170  1  0.61294052  0.75012001  0.92319373  1
  Te  Te171  1  0.95115521  0.08050134  0.24721409  1
  Te  Te172  1  0.91078580  0.07571632  0.57434427  1
  Te  Te173  1  0.90569019  0.09017364  0.91453468  1
  Te  Te174  1  0.92805952  0.40716567  0.26199836  1
  Te  Te175  1  0.91426667  0.42366223  0.58085221  1
  Te  Te176  1  0.90376803  0.41112073  0.91994110  1
  Te  Te177  1  0.90402623  0.77196333  0.23987424  1
  Te  Te178  1  0.90969058  0.76274850  0.58252494  1
  Te  Te179  1  0.92032602  0.74958499  0.91959511  1
