# generated using pymatgen
data_In2Te3
_symmetry_space_group_name_H-M   'P 1'
_cell_length_a   18.93002080
_cell_length_b   18.99681524
_cell_length_c   18.99735639
_cell_angle_alpha   90.14912757
_cell_angle_beta   89.93181349
_cell_angle_gamma   89.95667489
_symmetry_Int_Tables_number   1
_chemical_formula_structural   In2Te3
_chemical_formula_sum   'In72 Te108'
_cell_volume   6831.61142993
_cell_formula_units_Z   36
loop_
 _symmetry_equiv_pos_site_id
 _symmetry_equiv_pos_as_xyz
  1  'x, y, z'
loop_
 _atom_site_type_symbol
 _atom_site_label
 _atom_site_symmetry_multiplicity
 _atom_site_fract_x
 _atom_site_fract_y
 _atom_site_fract_z
 _atom_site_occupancy
  In  In0  1  0.00160461  0.81223589  0.80166456  1
  In  In1  1  0.83911353  0.82411669  0.37378227  1
  In  In2  1  0.51455982  0.51218922  0.65744034  1
  In  In3  1  0.80241877  0.50917905  0.35157727  1
  In  In4  1  0.19434678  0.41052377  0.40597402  1
  In  In5  1  0.66983160  0.83802579  0.17730598  1
  In  In6  1  0.82589874  0.01655790  0.15734205  1
  In  In7  1  0.00319230  0.66768386  0.00479558  1
  In  In8  1  0.83245992  -0.02768528  0.84488642  1
  In  In9  1  0.44469396  0.83141084  -0.07041751  1
  In  In10  1  0.01609817  0.19251401  0.82059037  1
  In  In11  1  0.82777115  0.16712583  -0.03087092  1
  In  In12  1  0.17130998  0.17550619  0.65224628  1
  In  In13  1  0.81117727  0.83450702  -0.03098541  1
  In  In14  1  0.82524614  0.49417592  0.66548109  1
  In  In15  1  0.52351675  0.53825618  0.35963062  1
  In  In16  1  0.79752171  0.67184406  0.78504571  1
  In  In17  1  0.18822130  0.34358838  0.81007762  1
  In  In18  1  0.50063305  -0.01206384  0.14729919  1
  In  In19  1  0.18577380  -0.02085570  0.51830629  1
  In  In20  1  0.34128566  0.15377037  0.47710746  1
  In  In21  1  0.33745222  0.83074241  0.50248602  1
  In  In22  1  0.35885147  0.69178380  0.67050190  1
  In  In23  1  0.64303020  0.51309750  0.83039464  1
  In  In24  1  0.17479837  0.65964155  0.17933226  1
  In  In25  1  0.00198842  0.63680002  0.34619395  1
  In  In26  1  0.49647904  0.80420077  0.34466960  1
  In  In27  1  0.00864502  0.33216259  0.00127918  1
  In  In28  1  0.00541986  0.85237194  0.17173385  1
  In  In29  1  0.19268826  0.17715225  0.32738683  1
  In  In30  1  0.02175560  -0.01254332  0.70746092  1
  In  In31  1  0.64570635  0.69099235  -0.00994582  1
  In  In32  1  0.35344867  0.32806594  0.65199875  1
  In  In33  1  0.18070287  0.65388213  0.50416009  1
  In  In34  1  0.16580740  -0.00029947  0.16778327  1
  In  In35  1  0.82125712  0.00732976  0.51921439  1
  In  In36  1  0.48696035  0.64646575  0.14518364  1
  In  In37  1  0.66406576  0.35661502  0.33688011  1
  In  In38  1  -0.01165201  0.17416666  0.49088738  1
  In  In39  1  0.34230206  0.33514417  0.00801630  1
  In  In40  1  0.17079310  0.34196961  0.19407917  1
  In  In41  1  0.16224065  0.51241472  0.66354343  1
  In  In42  1  0.65603728  -0.01943777  0.35753568  1
  In  In43  1  0.18479318  0.48711687  0.01758068  1
  In  In44  1  0.65541758  0.16122498  0.81591295  1
  In  In45  1  0.50818396  0.17222583  0.01269873  1
  In  In46  1  0.19986635  0.64471279  0.85098270  1
  In  In47  1  0.82933489  0.65109304  0.19568502  1
  In  In48  1  0.02566542  0.00784476  0.33026006  1
  In  In49  1  -0.00163482  0.81258782  0.51437995  1
  In  In50  1  0.48950217  0.14510054  0.66586516  1
  In  In51  1  0.35690664  0.18080513  0.18698017  1
  In  In52  1  0.75220944  0.66797500  0.50951187  1
  In  In53  1  0.02811846  -0.00185838  0.00472093  1
  In  In54  1  0.81122976  0.34887799  0.85312182  1
  In  In55  1  0.64370616  -0.02551752  0.66495075  1
  In  In56  1  0.83048695  0.50864159  0.01171769  1
  In  In57  1  0.66279362  0.17613304  0.47722332  1
  In  In58  1  -0.02921582  0.34190217  0.67730053  1
  In  In59  1  0.34234415  0.80870430  0.18199839  1
  In  In60  1  0.49719811  0.34192513  0.84472425  1
  In  In61  1  0.37969256  -0.07353941  0.71548076  1
  In  In62  1  0.81375710  0.37401004  0.18918238  1
  In  In63  1  0.21384708  0.83108148  -0.03378311  1
  In  In64  1  0.81678286  0.15641681  0.63146065  1
  In  In65  1  0.34718940  0.50006503  0.52563191  1
  In  In66  1  0.81486705  0.33268176  0.49440072  1
  In  In67  1  0.69741593  -0.00079362  -0.02284969  1
  In  In68  1  -0.01008646  0.66192486  0.65756723  1
  In  In69  1  0.32101438  0.49862518  0.17800405  1
  In  In70  1  0.02898853  0.15842000  0.14943958  1
  In  In71  1  0.60789764  0.20888286  0.21228678  1
  Te  Te72  1  0.13097022  0.09604184  0.05377803  1
  Te  Te73  1  0.10604112  0.08885897  0.43076216  1
  Te  Te74  1  0.11547679  0.08929551  0.76829318  1
  Te  Te75  1  0.07738123  0.42041245  0.10291304  1
  Te  Te76  1  0.05805276  0.45425761  0.37146617  1
  Te  Te77  1  0.07413150  0.42542042  0.75290188  1
  Te  Te78  1  0.09162526  0.75547614  0.09096770  1
  Te  Te79  1  0.08816979  0.74104362  0.41662087  1
  Te  Te80  1  0.09992854  0.71182290  0.74998625  1
  Te  Te81  1  0.40296352  0.08250870  0.07984921  1
  Te  Te82  1  0.43917502  0.10451044  0.37890348  1
  Te  Te83  1  0.42113225  0.06371509  0.76953374  1
  Te  Te84  1  0.41952393  0.41857554  0.10129815  1
  Te  Te85  1  0.45220467  0.43033235  0.44118790  1
  Te  Te86  1  0.42078229  0.42639798  0.74337557  1
  Te  Te87  1  0.43172954  0.76446062  0.06879691  1
  Te  Te88  1  0.41107273  0.72175755  0.43307270  1
  Te  Te89  1  0.46465662  0.79977594  0.68866067  1
  Te  Te90  1  0.73667203  0.10689819  0.07778575  1
  Te  Te91  1  0.76060913  0.08438857  0.40552812  1
  Te  Te92  1  0.75396488  0.06780469  0.74584852  1
  Te  Te93  1  0.74265705  0.40671437  0.06782997  1
  Te  Te94  1  0.71035158  0.43742691  0.45844013  1
  Te  Te95  1  0.72540777  0.41324572  0.74843271  1
  Te  Te96  1  0.76368369  0.74570499  0.08990609  1
  Te  Te97  1  0.71596954  0.74219559  0.38157727  1
  Te  Te98  1  0.70453588  0.77482700  0.74154833  1
  Te  Te99  1  0.07408927  0.24775946  0.26402589  1
  Te  Te100  1  0.06604760  0.26323877  0.58689754  1
  Te  Te101  1  0.11164093  0.26091378  0.91584266  1
  Te  Te102  1  0.09886853  0.55910380  0.26157997  1
  Te  Te103  1  0.06681995  0.57150675  0.56298206  1
  Te  Te104  1  0.09132325  0.57063008  0.92884099  1
  Te  Te105  1  0.11125222  0.89935876  0.26945659  1
  Te  Te106  1  0.08831375  0.89862387  0.60209836  1
  Te  Te107  1  0.07288532  0.88492792  0.91643299  1
  Te  Te108  1  0.42497541  0.23442523  0.30725026  1
  Te  Te109  1  0.43533813  0.24180341  0.56024517  1
  Te  Te110  1  0.41196966  0.23772017  0.91451027  1
  Te  Te111  1  0.41289446  0.58592618  0.26173144  1
  Te  Te112  1  0.43929477  0.61535017  0.56601295  1
  Te  Te113  1  0.33391553  0.63113593  0.91780021  1
  Te  Te114  1  0.42937648  0.91044181  0.25464335  1
  Te  Te115  1  0.43554343  0.91662076  0.57493653  1
  Te  Te116  1  0.40045432  0.97191664  0.92768475  1
  Te  Te117  1  0.74770744  0.25451680  0.25318065  1
  Te  Te118  1  0.71899431  0.26220032  0.59071024  1
  Te  Te119  1  0.71320244  0.25616676  0.92133486  1
  Te  Te120  1  0.72043099  0.56073325  0.23760393  1
  Te  Te121  1  0.70821819  0.57993006  0.62615407  1
  Te  Te122  1  0.75170188  0.59940958  0.91147122  1
  Te  Te123  1  0.77166425  0.91801681  0.25934243  1
  Te  Te124  1  0.73230933  0.90405993  0.56956747  1
  Te  Te125  1  0.70676275  0.88626363  0.87129160  1
  Te  Te126  1  0.25458928  0.25484120  0.10227180  1
  Te  Te127  1  0.24171353  0.26417870  0.43821602  1
  Te  Te128  1  0.27508328  0.23749901  0.74581400  1
  Te  Te129  1  0.26898007  0.60331373  0.07279235  1
  Te  Te130  1  0.25537007  0.55493597  0.41932341  1
  Te  Te131  1  0.27809867  0.57713565  0.73378648  1
  Te  Te132  1  0.25783297  0.90366893  0.09604956  1
  Te  Te133  1  0.26926030  0.92524562  0.41244630  1
  Te  Te134  1  0.24436335  0.88867757  0.76568250  1
  Te  Te135  1  0.54527047  0.28293824  0.10384127  1
  Te  Te136  1  0.56894679  0.25148907  0.38985320  1
  Te  Te137  1  0.56682956  0.25607031  0.73959610  1
  Te  Te138  1  0.58281614  0.57696050  0.05668035  1
  Te  Te139  1  0.62183673  0.62649332  0.43007315  1
  Te  Te140  1  0.53717836  0.60208780  0.77550051  1
  Te  Te141  1  0.60303029  0.91213186  0.06471600  1
  Te  Te142  1  0.57223678  0.89255972  0.43718378  1
  Te  Te143  1  0.53312669  0.93661697  0.75777481  1
  Te  Te144  1  0.91958714  0.23387114  0.07370730  1
  Te  Te145  1  0.90170592  0.25386813  0.40663708  1
  Te  Te146  1  0.88631620  0.24401011  0.75758906  1
  Te  Te147  1  0.92845902  0.57990201  0.10355282  1
  Te  Te148  1  0.88276116  0.60730002  0.43147140  1
  Te  Te149  1  0.91294320  0.57693137  0.75756619  1
  Te  Te150  1  0.90775998  0.92041361  0.07015450  1
  Te  Te151  1  0.93653340  0.93243861  0.42880718  1
  Te  Te152  1  0.89957524  0.89842004  0.73035285  1
  Te  Te153  1  0.26796387  0.07122340  0.25344910  1
  Te  Te154  1  0.27237856  0.07919132  0.59186748  1
  Te  Te155  1  0.24953955  -0.03624894  0.90050414  1
  Te  Te156  1  0.28293412  0.39339696  0.27914458  1
  Te  Te157  1  0.23817265  0.40561303  0.58793001  1
  Te  Te158  1  0.27082889  0.42507650  0.90762204  1
  Te  Te159  1  0.25918064  0.73164352  0.27359703  1
  Te  Te160  1  0.24290566  0.75533450  0.59658818  1
  Te  Te161  1  0.31643573  0.76846710  0.85733497  1
  Te  Te162  1  0.59228009  0.06326183  0.24461829  1
  Te  Te163  1  0.58832651  0.07977454  0.57009081  1
  Te  Te164  1  0.58212253  0.07730334  0.91699773  1
  Te  Te165  1  0.59040787  0.45490971  0.25439522  1
  Te  Te166  1  0.56312479  0.42780642  0.54589116  1
  Te  Te167  1  0.56464011  0.44005845  0.93110109  1
  Te  Te168  1  0.57655534  0.73642509  0.23363531  1
  Te  Te169  1  0.64685014  0.72174981  0.61054686  1
  Te  Te170  1  0.54663499  0.72897530  0.88625021  1
  Te  Te171  1  0.93004325  0.08601349  0.24296556  1
  Te  Te172  1  0.94523472  0.07646161  0.60309004  1
  Te  Te173  1  0.93491639  0.07666489  0.90477487  1
  Te  Te174  1  0.91137658  0.43449504  0.28024269  1
  Te  Te175  1  0.91452588  0.42500890  0.56447686  1
  Te  Te176  1  0.92340331  0.42487079  0.91790831  1
  Te  Te177  1  0.92730658  0.75608538  0.25960187  1
  Te  Te178  1  0.88831854  0.74328678  0.58493972  1
  Te  Te179  1  0.91279879  0.73998708  0.90461200  1
