# generated using pymatgen
data_In2Te3
_symmetry_space_group_name_H-M   'P 1'
_cell_length_a   18.78423981
_cell_length_b   18.76840374
_cell_length_c   18.78541766
_cell_angle_alpha   90.01689043
_cell_angle_beta   89.94250054
_cell_angle_gamma   90.03790503
_symmetry_Int_Tables_number   1
_chemical_formula_structural   In2Te3
_chemical_formula_sum   'In72 Te108'
_cell_volume   6622.79762159
_cell_formula_units_Z   36
loop_
 _symmetry_equiv_pos_site_id
 _symmetry_equiv_pos_as_xyz
  1  'x, y, z'
loop_
 _atom_site_type_symbol
 _atom_site_label
 _atom_site_symmetry_multiplicity
 _atom_site_fract_x
 _atom_site_fract_y
 _atom_site_fract_z
 _atom_site_occupancy
  In  In0  1  0.50989848  0.31739239  0.81032119  1
  In  In1  1  0.50565653  0.85299103  0.64799744  1
  In  In2  1  0.65164131  0.30921233  0.34396660  1
  In  In3  1  0.84523764  0.66042425  0.15234793  1
  In  In4  1  0.35908091  0.69328701  0.01605292  1
  In  In5  1  0.32323041  0.47908898  0.48802704  1
  In  In6  1  0.33139784  0.51033489  0.18423772  1
  In  In7  1  0.50427832  0.49767741  0.01175397  1
  In  In8  1  0.32510343  0.00544420  0.03107684  1
  In  In9  1  -0.01077032  0.16029951  0.82534281  1
  In  In10  1  0.49088965  0.02303371  0.47628262  1
  In  In11  1  0.85559116  0.47181907  0.33284926  1
  In  In12  1  0.50874057  0.67440434  0.15944891  1
  In  In13  1  0.13555012  0.51276002  0.01205535  1
  In  In14  1  0.31567081  0.03529652  0.65202553  1
  In  In15  1  0.68078836  0.02317151  0.65996809  1
  In  In16  1  0.82597531  -0.01333292  0.17376173  1
  In  In17  1  0.30089606  0.64869235  0.69861498  1
  In  In18  1  0.82740478  0.01159614  0.48808998  1
  In  In19  1  0.64880955  0.00385549  -0.00509687  1
  In  In20  1  0.85245101  0.18030656  -0.00857442  1
  In  In21  1  0.84862228  0.33438725  0.50515705  1
  In  In22  1  0.66578726  0.65831770  0.33284817  1
  In  In23  1  0.13434524  0.34341404  0.81860786  1
  In  In24  1  0.83443911  0.18220238  0.68048777  1
  In  In25  1  0.31243551  0.83361393  0.47076175  1
  In  In26  1  0.49046592  0.46356984  0.64492881  1
  In  In27  1  0.48649401  0.65539691  0.48648343  1
  In  In28  1  0.15091090  0.17215307  -0.00618101  1
  In  In29  1  0.68978970  0.65392933  0.00296952  1
  In  In30  1  0.13597096  0.01498151  0.82584886  1
  In  In31  1  0.82924711  0.84954153  0.35152526  1
  In  In32  1  0.01990014  0.47155602  0.48075601  1
  In  In33  1  0.33976329  0.31304376  0.35428924  1
  In  In34  1  -0.00365950  0.49127906  0.17652303  1
  In  In35  1  0.13873291  0.66984350  0.17763995  1
  In  In36  1  0.00261146  0.63773454  0.65487808  1
  In  In37  1  0.15920391  0.32143472  0.19121258  1
  In  In38  1  0.82174495  0.17638947  0.34040960  1
  In  In39  1  0.33405986  0.18048065  0.81807743  1
  In  In40  1  -0.00164394  0.17059105  0.15343085  1
  In  In41  1  0.49503749  0.01464299  0.20248424  1
  In  In42  1  -0.00654949  0.83611730  0.84710048  1
  In  In43  1  0.68336331  0.49300385  0.82320333  1
  In  In44  1  0.83691629  0.48773929  0.65272623  1
  In  In45  1  0.16887398  0.82970941  0.03991769  1
  In  In46  1  0.65696607  0.84220214  0.48332849  1
  In  In47  1  0.30608461  0.52634966  0.80996267  1
  In  In48  1  0.32274978  0.32302177  -0.02013671  1
  In  In49  1  0.71309149  0.34470691  0.02329122  1
  In  In50  1  0.33182438  0.83124652  0.84936558  1
  In  In51  1  -0.00970752  0.65396934  0.33304505  1
  In  In52  1  0.15995746  0.86118307  0.34543883  1
  In  In53  1  0.66948880  0.33802729  0.65114141  1
  In  In54  1  0.34076648  0.31160101  0.62628826  1
  In  In55  1  0.18574709  0.82525080  0.65620577  1
  In  In56  1  0.33497453  0.66166457  0.33726843  1
  In  In57  1  -0.01454167  0.83018199  0.50175181  1
  In  In58  1  0.51416989  0.66056977  0.82462103  1
  In  In59  1  0.32105274  0.13077946  0.19261169  1
  In  In60  1  0.70430991  0.66360361  0.65954604  1
  In  In61  1  0.02864072  0.84488884  0.17055435  1
  In  In62  1  0.15862087  0.63826719  0.82383670  1
  In  In63  1  0.68449856  0.83384416  0.82901228  1
  In  In64  1  0.83241580  0.82097592  0.00760188  1
  In  In65  1  0.84511676  0.82557699  0.68915747  1
  In  In66  1  0.50946325  0.32696785  0.18711423  1
  In  In67  1  0.00554306  0.01271319  0.65792217  1
  In  In68  1  0.15969823  0.03484048  0.46730508  1
  In  In69  1  0.50364062  0.83745943  0.03341803  1
  In  In70  1  0.65774350  0.17079024  0.17635469  1
  In  In71  1  0.49867471  0.03795637  0.84192705  1
  Te  Te72  1  0.09090174  0.07470331  0.08497392  1
  Te  Te73  1  0.04815417  0.12384201  0.42163674  1
  Te  Te74  1  0.10010282  0.11526259  0.71968967  1
  Te  Te75  1  0.07682287  0.39353031  0.08385926  1
  Te  Te76  1  0.11121870  0.36483035  0.42216831  1
  Te  Te77  1  0.06446471  0.44603177  0.73776158  1
  Te  Te78  1  0.05445381  0.72845307  0.06654436  1
  Te  Te79  1  0.08124119  0.74903558  0.41531437  1
  Te  Te80  1  0.08235906  0.75425220  0.74278524  1
  Te  Te81  1  0.43426596  0.09421263  0.08521180  1
  Te  Te82  1  0.40638711  0.13060583  0.41943165  1
  Te  Te83  1  0.43054287  0.10747286  0.72323528  1
  Te  Te84  1  0.40229362  0.40920867  0.08951532  1
  Te  Te85  1  0.43102912  0.41734770  0.40889470  1
  Te  Te86  1  0.39764449  0.40810268  0.75458438  1
  Te  Te87  1  0.39583624  0.78717130  0.13416417  1
  Te  Te88  1  0.43067123  0.76734850  0.39857023  1
  Te  Te89  1  0.41431384  0.75692228  0.74301117  1
  Te  Te90  1  0.75072675  0.08905019  0.08372619  1
  Te  Te91  1  0.72523656  0.07982377  0.40374899  1
  Te  Te92  1  0.76364031  0.08209831  0.76490885  1
  Te  Te93  1  0.76792877  0.45993255  0.09458124  1
  Te  Te94  1  0.74756455  0.40873595  0.41941175  1
  Te  Te95  1  0.77108856  0.39049171  0.75456932  1
  Te  Te96  1  0.73577529  0.75718153  0.10736815  1
  Te  Te97  1  0.75703207  0.74027241  0.42911871  1
  Te  Te98  1  0.77551944  0.72159068  0.77997556  1
  Te  Te99  1  0.10234171  0.20304192  0.26119718  1
  Te  Te100  1  0.08652245  0.24009877  0.51350886  1
  Te  Te101  1  0.05602555  0.26633851  0.92296219  1
  Te  Te102  1  0.09455646  0.55879414  0.27259253  1
  Te  Te103  1  0.08545560  0.59271949  0.54122396  1
  Te  Te104  1  0.04643703  0.55939761  0.89876689  1
  Te  Te105  1  0.08456653  0.95231569  0.25561968  1
  Te  Te106  1  0.09912376  0.91957191  0.57295463  1
  Te  Te107  1  0.09396557  0.91505889  0.93160209  1
  Te  Te108  1  0.42448658  0.22411636  0.26139371  1
  Te  Te109  1  0.43194266  0.23407389  0.53519293  1
  Te  Te110  1  0.43266772  0.23743399  0.92028561  1
  Te  Te111  1  0.44066293  0.57978315  0.26087853  1
  Te  Te112  1  0.40619288  0.58177981  0.59693315  1
  Te  Te113  1  0.41021306  0.58116060  0.91991742  1
  Te  Te114  1  0.38704622  0.91693274  0.22799100  1
  Te  Te115  1  0.39284837  0.92138527  0.57513836  1
  Te  Te116  1  0.42528688  0.92421208  0.92720685  1
  Te  Te117  1  0.75575717  0.27006955  0.23808963  1
  Te  Te118  1  0.74956120  0.23643677  0.56625978  1
  Te  Te119  1  0.76602872  0.26905396  0.90907378  1
  Te  Te120  1  0.77108245  0.57473198  0.25305013  1
  Te  Te121  1  0.73529176  0.55393892  0.56749091  1
  Te  Te122  1  0.77505611  0.55883890  0.92241471  1
  Te  Te123  1  0.73259180  0.92592990  0.27118829  1
  Te  Te124  1  0.75728407  0.90404769  0.58793152  1
  Te  Te125  1  0.76055347  0.92630126  0.92089055  1
  Te  Te126  1  0.25873227  0.23916440  0.09138000  1
  Te  Te127  1  0.22715397  0.25491464  0.43895047  1
  Te  Te128  1  0.23831410  0.26520572  0.73707100  1
  Te  Te129  1  0.25049898  0.59390820  0.08565547  1
  Te  Te130  1  0.24053431  0.57852533  0.41433124  1
  Te  Te131  1  0.18800922  0.53396867  0.70514556  1
  Te  Te132  1  0.24696055  0.92348277  0.12852200  1
  Te  Te133  1  0.27909672  0.96030316  0.38708501  1
  Te  Te134  1  0.25256352  0.92520783  0.75359461  1
  Te  Te135  1  0.59046718  0.26381412  0.07490322  1
  Te  Te136  1  0.55926793  0.24682212  0.44432570  1
  Te  Te137  1  0.59548169  0.23278196  0.72681804  1
  Te  Te138  1  0.60458385  0.56931073  0.09942041  1
  Te  Te139  1  0.58749985  0.56965047  0.42361562  1
  Te  Te140  1  0.58438427  0.56435483  0.72871504  1
  Te  Te141  1  0.59417290  0.92626291  0.11380152  1
  Te  Te142  1  0.56441294  0.91851152  0.39847800  1
  Te  Te143  1  0.58006315  0.92350045  0.76033528  1
  Te  Te144  1  0.90758069  0.27306360  0.09390917  1
  Te  Te145  1  0.93149939  0.25686205  0.40569248  1
  Te  Te146  1  0.93440467  0.27160204  0.74521637  1
  Te  Te147  1  0.90084008  0.54240977  0.06417261  1
  Te  Te148  1  0.90931705  0.57389745  0.43284875  1
  Te  Te149  1  0.91674164  0.56687057  0.75220926  1
  Te  Te150  1  0.92571099  0.91715137  0.08164917  1
  Te  Te151  1  0.93790224  0.94066425  0.40863531  1
  Te  Te152  1  0.91774002  0.93872505  0.76071696  1
  Te  Te153  1  0.22387905  0.07912180  0.29266560  1
  Te  Te154  1  0.24317117  0.12303927  0.55663691  1
  Te  Te155  1  0.25643331  0.08215520  0.90767410  1
  Te  Te156  1  0.25209842  0.41349627  0.26919988  1
  Te  Te157  1  0.23323970  0.40062202  0.57771933  1
  Te  Te158  1  0.23314392  0.42791005  0.91574502  1
  Te  Te159  1  0.23306501  0.75104737  0.26307301  1
  Te  Te160  1  0.25861293  0.72788512  0.56781901  1
  Te  Te161  1  0.23572830  0.73765311  0.92153762  1
  Te  Te162  1  0.59706543  0.08848590  0.28568770  1
  Te  Te163  1  0.58862993  0.08937788  0.56765042  1
  Te  Te164  1  0.60656887  0.11407112  0.90626480  1
  Te  Te165  1  0.58870460  0.42062585  0.26600539  1
  Te  Te166  1  0.57123899  0.38586459  0.54639740  1
  Te  Te167  1  0.58201708  0.41454984  0.91079168  1
  Te  Te168  1  0.59004326  0.75645809  0.25106159  1
  Te  Te169  1  0.58623594  0.73920645  0.58858764  1
  Te  Te170  1  0.58547119  0.75563501  0.92872052  1
  Te  Te171  1  0.90914036  0.08688086  0.25120595  1
  Te  Te172  1  0.91534705  0.10091524  0.57448516  1
  Te  Te173  1  0.93569955  0.07330150  0.93066262  1
  Te  Te174  1  0.94047928  0.37768122  0.25554352  1
  Te  Te175  1  0.95277226  0.39844866  0.59765797  1
  Te  Te176  1  0.92470522  0.46826843  0.92961634  1
  Te  Te177  1  0.91803406  0.76350386  0.25141001  1
  Te  Te178  1  0.90275432  0.73167675  0.58326407  1
  Te  Te179  1  0.91898065  0.73464158  0.92396673  1
