# generated using pymatgen
data_In2Te3
_symmetry_space_group_name_H-M   'P 1'
_cell_length_a   18.76544181
_cell_length_b   18.76924873
_cell_length_c   18.75970950
_cell_angle_alpha   89.93397502
_cell_angle_beta   90.01252385
_cell_angle_gamma   89.99909081
_symmetry_Int_Tables_number   1
_chemical_formula_structural   In2Te3
_chemical_formula_sum   'In72 Te108'
_cell_volume   6607.41360761
_cell_formula_units_Z   36
loop_
 _symmetry_equiv_pos_site_id
 _symmetry_equiv_pos_as_xyz
  1  'x, y, z'
loop_
 _atom_site_type_symbol
 _atom_site_label
 _atom_site_symmetry_multiplicity
 _atom_site_fract_x
 _atom_site_fract_y
 _atom_site_fract_z
 _atom_site_occupancy
  In  In0  1  -0.00514934  0.34913792  0.68962012  1
  In  In1  1  0.15726874  0.35192133  0.16316433  1
  In  In2  1  0.16428390  0.00601539  0.15785410  1
  In  In3  1  0.68897323  0.17061987  0.50344517  1
  In  In4  1  0.15734858  0.66959319  0.15565787  1
  In  In5  1  0.33873544  0.67511214  0.68708356  1
  In  In6  1  0.17594269  0.83939933  0.66760905  1
  In  In7  1  0.14317368  0.17082669  0.68348019  1
  In  In8  1  0.49135527  -0.01877483  0.50240363  1
  In  In9  1  0.13965065  -0.00062273  0.48238879  1
  In  In10  1  0.84298557  0.02976966  0.54320290  1
  In  In11  1  -0.02045978  0.19457049  0.14896495  1
  In  In12  1  0.14230206  0.16224243  0.34136852  1
  In  In13  1  0.51387326  0.32282444  0.14930541  1
  In  In14  1  0.13807493  0.60867592  0.51200882  1
  In  In15  1  0.67465429  0.84387525  0.50482669  1
  In  In16  1  0.82240128  0.84338849  0.34311499  1
  In  In17  1  0.83779165  0.50585915  0.68958337  1
  In  In18  1  0.01027780  0.00880678  0.35544152  1
  In  In19  1  0.18724707  0.81176718  0.00130234  1
  In  In20  1  0.35587974  0.16776986  0.14621734  1
  In  In21  1  0.00784125  0.81139713  0.14828457  1
  In  In22  1  0.35645779  -0.02373100  0.29763499  1
  In  In23  1  0.67084042  0.48810244  0.83414305  1
  In  In24  1  0.13659048  0.39000917  0.49271517  1
  In  In25  1  0.33440253  0.16374753  0.84111139  1
  In  In26  1  0.17452434  0.64383333  0.83049984  1
  In  In27  1  0.49954232  -0.00917861  0.84256985  1
  In  In28  1  0.83492670  0.18991424  0.33367889  1
  In  In29  1  0.81108262  0.01323773  0.16416907  1
  In  In30  1  0.47836029  0.51265121  -0.05036629  1
  In  In31  1  0.81958209  0.33922538  0.50214256  1
  In  In32  1  -0.01566744  0.82460147  0.83431745  1
  In  In33  1  0.82372227  0.64865503  0.14262655  1
  In  In34  1  0.51723542  0.31295974  0.51781598  1
  In  In35  1  0.85892371  0.48753136  -0.01829976  1
  In  In36  1  0.31850402  -0.00567949  0.66774836  1
  In  In37  1  0.31587695  0.49594279  0.17045351  1
  In  In38  1  0.34642067  0.82814864  0.16023982  1
  In  In39  1  0.52789333  0.14660946  0.34602316  1
  In  In40  1  0.49473279  0.47485163  0.68385383  1
  In  In41  1  0.52159690  0.67921617  0.17822966  1
  In  In42  1  0.15400489  0.49552928  -0.00734963  1
  In  In43  1  0.00213385  0.64669634  0.32744946  1
  In  In44  1  -0.00565284  0.81275375  0.53590090  1
  In  In45  1  0.32634715  0.33017056  -0.01591028  1
  In  In46  1  0.17738653  0.01477523  0.82490794  1
  In  In47  1  0.83256172  0.81712657  -0.00314123  1
  In  In48  1  0.85516199  0.66098761  0.50209569  1
  In  In49  1  0.65610196  0.02033768  0.01120551  1
  In  In50  1  0.30757810  0.51255782  0.50532455  1
  In  In51  1  0.67186254  0.01060496  0.67671375  1
  In  In52  1  0.66955645  0.64441479  -0.00556233  1
  In  In53  1  0.32717473  0.34153586  0.33715479  1
  In  In54  1  0.64607890  0.00792020  0.32279734  1
  In  In55  1  0.15187633  0.35426903  0.83652703  1
  In  In56  1  0.49469655  0.83576180  -0.00906581  1
  In  In57  1  0.83561507  0.02138169  0.82503035  1
  In  In58  1  0.67278349  0.82972584  0.82986038  1
  In  In59  1  0.67403365  0.67163425  0.67541816  1
  In  In60  1  0.34760831  0.18835016  0.51912134  1
  In  In61  1  0.65844528  0.47998118  0.48272009  1
  In  In62  1  0.68482437  0.50293475  0.16519829  1
  In  In63  1  0.34643089  0.80897274  0.50073008  1
  In  In64  1  0.17735347  0.83163455  0.34601873  1
  In  In65  1  -0.00553420  0.01041471  -0.02260426  1
  In  In66  1  0.84268684  0.35821210  0.17409649  1
  In  In67  1  -0.00532877  0.18740795  0.84129434  1
  In  In68  1  0.50600091  0.67145268  0.48797648  1
  In  In69  1  0.49979559  0.48729675  0.31914522  1
  In  In70  1  0.50263342  0.17059279  -0.01006450  1
  In  In71  1  0.53613480  0.19341029  0.69518512  1
  Te  Te72  1  0.07522908  0.09829744  0.07554343  1
  Te  Te73  1  0.04224041  0.12188886  0.45990106  1
  Te  Te74  1  0.05222622  0.07137307  0.75676864  1
  Te  Te75  1  0.05482962  0.40713863  0.06733624  1
  Te  Te76  1  0.03752486  0.43980239  0.39477312  1
  Te  Te77  1  0.08192432  0.45698571  0.74879031  1
  Te  Te78  1  0.06785589  0.72368021  0.04108824  1
  Te  Te79  1  0.07820499  0.74559902  0.42491292  1
  Te  Te80  1  0.08687977  0.74751651  0.74904038  1
  Te  Te81  1  0.42937053  0.06824173  0.06851864  1
  Te  Te82  1  0.40768095  0.08500161  0.41862885  1
  Te  Te83  1  0.42046614  0.08550107  0.73699266  1
  Te  Te84  1  0.41199161  0.41604267  0.08010477  1
  Te  Te85  1  0.42552832  0.41094986  0.43359802  1
  Te  Te86  1  0.41920315  0.38338538  0.76961500  1
  Te  Te87  1  0.42039530  0.72716316  0.07345332  1
  Te  Te88  1  0.41759885  0.74261014  0.39012760  1
  Te  Te89  1  0.43001763  0.73459236  0.78483431  1
  Te  Te90  1  0.75313915  0.11498245  0.07429835  1
  Te  Te91  1  0.75949800  0.06262293  0.41208354  1
  Te  Te92  1  0.76137636  0.11842652  0.73303611  1
  Te  Te93  1  0.74800359  0.41506748  0.05860973  1
  Te  Te94  1  0.75672433  0.41802452  0.39259831  1
  Te  Te95  1  0.77902335  0.39939121  0.77731993  1
  Te  Te96  1  0.72711986  0.75355968  0.08752269  1
  Te  Te97  1  0.74657225  0.73682670  0.42181206  1
  Te  Te98  1  0.77156318  0.74321020  0.76102952  1
  Te  Te99  1  0.06516115  0.26530886  0.25638493  1
  Te  Te100  1  0.08727433  0.27844192  0.59064180  1
  Te  Te101  1  0.08885798  0.25872538  0.93229832  1
  Te  Te102  1  0.06591925  0.56974941  0.21781870  1
  Te  Te103  1  0.04206244  0.56076472  0.61386727  1
  Te  Te104  1  0.06395533  0.56996189  0.89953120  1
  Te  Te105  1  0.08489330  0.90883788  0.24870528  1
  Te  Te106  1  0.07140111  0.92807484  0.60080946  1
  Te  Te107  1  0.09388202  0.90962550  0.91862176  1
  Te  Te108  1  0.42172316  0.25000069  0.25997747  1
  Te  Te109  1  0.41432578  0.27309887  0.62626129  1
  Te  Te110  1  0.43555532  0.27059522  0.89146584  1
  Te  Te111  1  0.41155185  0.58657475  0.24681211  1
  Te  Te112  1  0.42602341  0.58079639  0.58380053  1
  Te  Te113  1  0.39862580  0.60869853  0.86923059  1
  Te  Te114  1  0.46309460  0.90062212  0.22384791  1
  Te  Te115  1  0.41783413  0.89499056  0.60513270  1
  Te  Te116  1  0.39498129  0.91770690  0.91533986  1
  Te  Te117  1  0.75344467  0.24930722  0.22783980  1
  Te  Te118  1  0.76331102  0.24509280  0.60596885  1
  Te  Te119  1  0.70387703  0.21264677  0.85665131  1
  Te  Te120  1  0.76318200  0.58385141  0.26097463  1
  Te  Te121  1  0.74328087  0.57310848  0.57853260  1
  Te  Te122  1  0.77257496  0.58475930  0.90013010  1
  Te  Te123  1  0.73100473  0.90739231  0.23923099  1
  Te  Te124  1  0.76638807  0.91222830  0.60617573  1
  Te  Te125  1  0.75321448  0.92745340  0.92285370  1
  Te  Te126  1  0.24309149  0.25010192  0.08489391  1
  Te  Te127  1  0.24048861  0.25297906  0.42748288  1
  Te  Te128  1  0.24330406  0.25638675  0.75897727  1
  Te  Te129  1  0.25301709  0.58789341  0.06729279  1
  Te  Te130  1  0.23611623  0.59079093  0.40270007  1
  Te  Te131  1  0.24843255  0.56550313  0.72574070  1
  Te  Te132  1  0.26170766  0.92519125  0.07456495  1
  Te  Te133  1  0.26607175  0.92766956  0.42648477  1
  Te  Te134  1  0.26668089  0.89831978  0.77520009  1
  Te  Te135  1  0.60704641  0.24325796  0.06743184  1
  Te  Te136  1  0.60955858  0.25992609  0.40754659  1
  Te  Te137  1  0.61158069  0.29706208  0.77507791  1
  Te  Te138  1  0.56861178  0.56369755  0.08041813  1
  Te  Te139  1  0.59081381  0.58518264  0.39457207  1
  Te  Te140  1  0.57897577  0.58149045  0.75520714  1
  Te  Te141  1  0.58802361  0.90907212  0.08132126  1
  Te  Te142  1  0.56821626  0.89394357  0.40419697  1
  Te  Te143  1  0.57669360  0.90794548  0.73973049  1
  Te  Te144  1  0.90058918  0.27958984  0.05294635  1
  Te  Te145  1  0.92245897  0.25422278  0.43197664  1
  Te  Te146  1  0.89434599  0.26949615  0.76610773  1
  Te  Te147  1  0.93025873  0.56092484  0.09217264  1
  Te  Te148  1  0.92436717  0.55598275  0.42013749  1
  Te  Te149  1  0.94750489  0.59517060  0.73379712  1
  Te  Te150  1  0.91890961  0.92093079  0.08596613  1
  Te  Te151  1  0.91940267  0.91281298  0.43864598  1
  Te  Te152  1  0.90805660  0.91768761  0.74759661  1
  Te  Te153  1  0.24859924  0.08946836  0.25527817  1
  Te  Te154  1  0.23711394  0.09183120  0.58267894  1
  Te  Te155  1  0.24268018  0.09250798  0.93141894  1
  Te  Te156  1  0.22291423  0.43386168  0.27541502  1
  Te  Te157  1  0.24240000  0.41312900  0.59286628  1
  Te  Te158  1  0.26462511  0.43941830  0.89943705  1
  Te  Te159  1  0.25411524  0.74309312  0.24954577  1
  Te  Te160  1  0.23614902  0.73332162  0.57447093  1
  Te  Te161  1  0.27222789  0.72794703  0.90990188  1
  Te  Te162  1  0.57915005  0.09158074  0.21989726  1
  Te  Te163  1  0.57427508  0.08741422  0.57475114  1
  Te  Te164  1  0.60413021  0.09551054  0.88389601  1
  Te  Te165  1  0.60155164  0.40082952  0.24703863  1
  Te  Te166  1  0.60642047  0.40227985  0.60374249  1
  Te  Te167  1  0.58368001  0.41121153  0.92856502  1
  Te  Te168  1  0.56763919  0.77325241  0.28086330  1
  Te  Te169  1  0.57983615  0.75821508  0.59050284  1
  Te  Te170  1  0.58110067  0.73686297  0.90933944  1
  Te  Te171  1  0.92445058  0.08108577  0.24730799  1
  Te  Te172  1  0.95752362  0.10178573  0.59582176  1
  Te  Te173  1  0.89209551  0.11303873  0.93376998  1
  Te  Te174  1  0.94563349  0.39944619  0.27224165  1
  Te  Te175  1  0.91666746  0.42866383  0.58198932  1
  Te  Te176  1  0.95666267  0.37974907  0.93953034  1
  Te  Te177  1  0.91145074  0.75353099  0.25252389  1
  Te  Te178  1  0.90224688  0.73434560  0.62340029  1
  Te  Te179  1  0.91372955  0.72342362  0.91856742  1
