# generated using pymatgen
data_In2Te3
_symmetry_space_group_name_H-M   'P 1'
_cell_length_a   18.92151475
_cell_length_b   18.94672312
_cell_length_c   18.91240389
_cell_angle_alpha   90.15445672
_cell_angle_beta   90.04706975
_cell_angle_gamma   89.96757474
_symmetry_Int_Tables_number   1
_chemical_formula_structural   In2Te3
_chemical_formula_sum   'In72 Te108'
_cell_volume   6780.08205137
_cell_formula_units_Z   36
loop_
 _symmetry_equiv_pos_site_id
 _symmetry_equiv_pos_as_xyz
  1  'x, y, z'
loop_
 _atom_site_type_symbol
 _atom_site_label
 _atom_site_symmetry_multiplicity
 _atom_site_fract_x
 _atom_site_fract_y
 _atom_site_fract_z
 _atom_site_occupancy
  In  In0  1  0.63991799  0.65732484  0.34762874  1
  In  In1  1  -0.01813574  0.16592509  0.15066202  1
  In  In2  1  0.66532746  0.32177537  0.32265483  1
  In  In3  1  0.52899985  -0.00357032  0.16656137  1
  In  In4  1  0.17180258  0.16414384  0.33196895  1
  In  In5  1  0.51652982  0.15276875  -0.01675076  1
  In  In6  1  0.30995872  0.00038160  0.68434544  1
  In  In7  1  0.49630280  0.81715046  0.34189947  1
  In  In8  1  0.83896606  0.67274188  0.52051500  1
  In  In9  1  0.15332848  0.69083446  0.16789824  1
  In  In10  1  0.82237303  0.66324331  0.16672173  1
  In  In11  1  0.33850113  0.83772374  0.49507212  1
  In  In12  1  0.84367818  0.50237252  -0.01969149  1
  In  In13  1  -0.00177271  -0.00848361  0.66247990  1
  In  In14  1  0.83194508  0.16963268  0.31228951  1
  In  In15  1  0.13817783  0.35310700  0.83798144  1
  In  In16  1  0.51332242  0.51671803  0.64205763  1
  In  In17  1  0.31550795  0.17615384  0.16873186  1
  In  In18  1  0.47116280  0.52451675  -0.00130914  1
  In  In19  1  0.86611182  0.01797686  0.48571056  1
  In  In20  1  0.15187751  0.16849735  -0.00950206  1
  In  In21  1  0.34072393  0.02020750  0.32103257  1
  In  In22  1  0.32720831  0.36249880  0.67033143  1
  In  In23  1  -0.00950229  0.32687456  0.32260040  1
  In  In24  1  0.64686160  0.83258417  0.52784536  1
  In  In25  1  0.12602961  0.47633665  0.00817786  1
  In  In26  1  -0.00382558  0.48918143  0.50579251  1
  In  In27  1  0.68387045  0.51627182  0.52126346  1
  In  In28  1  0.65455967  0.68299681  0.67279060  1
  In  In29  1  0.50688639  0.33981305  0.83279030  1
  In  In30  1  0.67274624  0.48304175  0.16472325  1
  In  In31  1  0.35493228  0.17838464  0.83321975  1
  In  In32  1  0.13613157  0.71446148  0.81445682  1
  In  In33  1  0.47853527  0.00158539  0.50226453  1
  In  In34  1  0.83422135  0.84935019  0.67724581  1
  In  In35  1  0.51676743  0.33668367  0.14726303  1
  In  In36  1  0.00077688  0.46521209  0.16703772  1
  In  In37  1  0.31519980  0.33304910  0.33121710  1
  In  In38  1  0.49181274  0.68259166  0.17510708  1
  In  In39  1  0.33341310  -0.00322866  -0.00385481  1
  In  In40  1  0.68394054  0.01297500  0.67712114  1
  In  In41  1  0.15918050  0.14911560  0.68740643  1
  In  In42  1  0.52821003  0.18753450  0.66144729  1
  In  In43  1  0.51117093  0.15279199  0.33491556  1
  In  In44  1  0.69882181  0.47153626  0.83639712  1
  In  In45  1  0.66840837  0.65649580  -0.02564428  1
  In  In46  1  0.17776597  0.66809244  0.52865778  1
  In  In47  1  0.14158028  -0.02599100  0.84406568  1
  In  In48  1  0.83952319  0.84550356  0.35358466  1
  In  In49  1  0.81069399  0.32555202  0.51366209  1
  In  In50  1  0.15683208  0.51495417  0.68214418  1
  In  In51  1  0.69862793  0.30958403  0.71085187  1
  In  In52  1  0.68677675  -0.00526692  0.31768171  1
  In  In53  1  0.69956972  0.32641705  -0.04025203  1
  In  In54  1  0.32949829  0.51229643  0.50895213  1
  In  In55  1  0.32849841  0.51417244  0.18970094  1
  In  In56  1  0.00846938  0.66047531  0.37065495  1
  In  In57  1  0.03037205  0.16623216  0.50657569  1
  In  In58  1  0.52339572  -0.00779060  0.83051886  1
  In  In59  1  0.51400328  0.84390025  -0.00290700  1
  In  In60  1  0.30503143  0.84682483  0.14967074  1
  In  In61  1  -0.01815054  0.66514826  -0.03527699  1
  In  In62  1  0.15954017  0.48674747  0.33757384  1
  In  In63  1  0.30097711  0.52399537  0.84748962  1
  In  In64  1  0.82324118  0.02150526  0.13664301  1
  In  In65  1  0.15401651  -0.00915262  0.50968544  1
  In  In66  1  0.50840153  0.34699775  0.50467164  1
  In  In67  1  -0.01193314  0.81924190  0.14879992  1
  In  In68  1  0.83525899  0.03003255  0.86470202  1
  In  In69  1  0.29935055  0.66501539  -0.01492667  1
  In  In70  1  0.83682872  0.82677077  -0.04198465  1
  In  In71  1  0.15594603  0.81683837  0.31505302  1
  Te  Te72  1  0.05980830  0.07289724  0.06025532  1
  Te  Te73  1  0.07772380  0.06720150  0.40209917  1
  Te  Te74  1  0.05810202  0.07967674  0.77493383  1
  Te  Te75  1  0.03932913  0.36939184  0.06208927  1
  Te  Te76  1  0.08185246  0.39254852  0.42557767  1
  Te  Te77  1  0.05544228  0.41245500  0.72739712  1
  Te  Te78  1  0.08325613  0.75072402  0.04609251  1
  Te  Te79  1  0.09139108  0.76385477  0.44100468  1
  Te  Te80  1  0.05647148  0.78081603  0.70979986  1
  Te  Te81  1  0.42339020  0.08350156  0.08802029  1
  Te  Te82  1  0.39982858  0.10933669  0.42905408  1
  Te  Te83  1  0.43411674  0.08764942  0.74081573  1
  Te  Te84  1  0.40546343  0.42466563  0.09075160  1
  Te  Te85  1  0.40831386  0.41981047  0.41654965  1
  Te  Te86  1  0.40915408  0.43897307  0.77235163  1
  Te  Te87  1  0.40310780  0.75244466  0.07269743  1
  Te  Te88  1  0.41169861  0.73089469  0.42254567  1
  Te  Te89  1  0.52542554  0.75324895  0.71536019  1
  Te  Te90  1  0.70690752  0.06245884  0.05568708  1
  Te  Te91  1  0.75201344  0.09053340  0.41534467  1
  Te  Te92  1  0.77901689  0.10172265  0.74555477  1
  Te  Te93  1  0.76674612  0.40802389  0.07171306  1
  Te  Te94  1  0.73838137  0.41886468  0.41927805  1
  Te  Te95  1  0.80707044  0.40878138  0.75089844  1
  Te  Te96  1  0.75349213  0.74589467  0.06396889  1
  Te  Te97  1  0.74078200  0.75051905  0.42571913  1
  Te  Te98  1  0.74826392  0.76203343  0.75834690  1
  Te  Te99  1  0.08299556  0.24323213  0.23675387  1
  Te  Te100  1  0.08210015  0.25065590  0.61438420  1
  Te  Te101  1  0.06457476  0.23793969  0.89208079  1
  Te  Te102  1  0.07383904  0.58357875  0.25296761  1
  Te  Te103  1  0.06092413  0.59477669  0.59426504  1
  Te  Te104  1  0.09955451  0.58201710  0.89979028  1
  Te  Te105  1  0.07705168  0.90410605  0.22960888  1
  Te  Te106  1  0.10759756  0.89815792  0.61783063  1
  Te  Te107  1  0.08940794  0.89067555  0.95184919  1
  Te  Te108  1  0.42906948  0.25106000  0.24873866  1
  Te  Te109  1  0.41492460  0.26433844  0.59344734  1
  Te  Te110  1  0.42214174  0.26476589  0.93656565  1
  Te  Te111  1  0.43246421  0.58396401  0.26499465  1
  Te  Te112  1  0.39202685  0.59301522  0.61475497  1
  Te  Te113  1  0.41568363  0.61792429  0.89549313  1
  Te  Te114  1  0.41797087  0.91449120  0.23906353  1
  Te  Te115  1  0.41184790  0.91695473  0.60628349  1
  Te  Te116  1  0.41610266  0.91093528  0.90097149  1
  Te  Te117  1  0.75329752  0.25669480  0.22494351  1
  Te  Te118  1  0.74834198  0.22439269  0.60108145  1
  Te  Te119  1  0.79732044  0.22698622  0.90552849  1
  Te  Te120  1  0.74210608  0.57830336  0.26198442  1
  Te  Te121  1  0.76770484  0.58746696  0.62410862  1
  Te  Te122  1  0.77499307  0.59607858  0.88439722  1
  Te  Te123  1  0.77153114  0.90534507  0.23287173  1
  Te  Te124  1  0.76096018  0.92893455  0.56217277  1
  Te  Te125  1  0.74181173  0.91891976  0.89261968  1
  Te  Te126  1  0.24793190  0.25274561  0.06542467  1
  Te  Te127  1  0.24016009  0.25239039  0.42669572  1
  Te  Te128  1  0.25170855  0.26209806  0.75832743  1
  Te  Te129  1  0.22534775  0.57632558  0.08547777  1
  Te  Te130  1  0.24110167  0.58930241  0.41059919  1
  Te  Te131  1  0.24231359  0.62099965  0.74795109  1
  Te  Te132  1  0.21831746  0.92096184  0.05442770  1
  Te  Te133  1  0.25196059  0.92571853  0.40255233  1
  Te  Te134  1  0.24836064  0.89956816  0.77081675  1
  Te  Te135  1  0.60513039  0.25159282  0.05941907  1
  Te  Te136  1  0.59054058  0.24275321  0.42886965  1
  Te  Te137  1  0.59828001  0.22643881  0.79043266  1
  Te  Te138  1  0.58570344  0.58570071  0.08972706  1
  Te  Te139  1  0.57101249  0.57684016  0.44986474  1
  Te  Te140  1  0.59816217  0.55875410  0.75774144  1
  Te  Te141  1  0.61637955  0.92007005  0.07422026  1
  Te  Te142  1  0.57729427  0.92871668  0.40812559  1
  Te  Te143  1  0.59206295  0.90639408  0.72916559  1
  Te  Te144  1  0.88027187  0.20650007  0.04726447  1
  Te  Te145  1  0.91621013  0.24002245  0.42342746  1
  Te  Te146  1  0.88974504  0.28881932  0.80464632  1
  Te  Te147  1  0.92946341  0.58662793  0.08735133  1
  Te  Te148  1  0.89796401  0.57176241  0.42234275  1
  Te  Te149  1  0.97933011  0.51993667  0.82122059  1
  Te  Te150  1  0.90521920  0.91228479  0.06369279  1
  Te  Te151  1  0.94585659  0.90690035  0.43297295  1
  Te  Te152  1  0.91751893  0.93215110  0.77478891  1
  Te  Te153  1  0.23117766  0.06565795  0.22638349  1
  Te  Te154  1  0.24768851  0.08902888  0.57858063  1
  Te  Te155  1  0.25479424  0.08407960  0.89790573  1
  Te  Te156  1  0.22770705  0.40487513  0.22967640  1
  Te  Te157  1  0.22627217  0.42528892  0.57835704  1
  Te  Te158  1  0.24431674  0.41243236  0.93092305  1
  Te  Te159  1  0.27006138  0.73914000  0.25211592  1
  Te  Te160  1  0.26671981  0.76143027  0.59887206  1
  Te  Te161  1  0.24427642  0.77299575  0.90016001  1
  Te  Te162  1  0.61359172  0.10172515  0.23580878  1
  Te  Te163  1  0.58780750  0.07965052  0.57373483  1
  Te  Te164  1  0.62093792  0.06099350  0.92373609  1
  Te  Te165  1  0.56992070  0.42400256  0.26023430  1
  Te  Te166  1  0.60425849  0.39810807  0.61257470  1
  Te  Te167  1  0.58288437  0.43249818  0.93559865  1
  Te  Te168  1  0.60042080  0.76370143  0.24386350  1
  Te  Te169  1  0.54133921  0.73623787  0.56667217  1
  Te  Te170  1  0.57994883  0.75039734  0.90270618  1
  Te  Te171  1  0.91965427  0.06534075  0.24688701  1
  Te  Te172  1  0.92250496  0.10454352  0.59651252  1
  Te  Te173  1  0.93466625  0.09248247  0.96184057  1
  Te  Te174  1  0.89502878  0.41264808  0.25232068  1
  Te  Te175  1  0.90359406  0.41092876  0.59059139  1
  Te  Te176  1  0.93972499  0.40903712  0.91404191  1
  Te  Te177  1  0.91787926  0.73584963  0.26589733  1
  Te  Te178  1  0.92895986  0.75928257  0.60155277  1
  Te  Te179  1  0.91721011  0.74659115  0.86124880  1
