# generated using pymatgen
data_In2Te3
_symmetry_space_group_name_H-M   'P 1'
_cell_length_a   18.72910169
_cell_length_b   18.73321929
_cell_length_c   18.73601878
_cell_angle_alpha   90.03786916
_cell_angle_beta   90.03358800
_cell_angle_gamma   89.95946430
_symmetry_Int_Tables_number   1
_chemical_formula_structural   In2Te3
_chemical_formula_sum   'In72 Te108'
_cell_volume   6573.64731121
_cell_formula_units_Z   36
loop_
 _symmetry_equiv_pos_site_id
 _symmetry_equiv_pos_as_xyz
  1  'x, y, z'
loop_
 _atom_site_type_symbol
 _atom_site_label
 _atom_site_symmetry_multiplicity
 _atom_site_fract_x
 _atom_site_fract_y
 _atom_site_fract_z
 _atom_site_occupancy
  In  In0  1  0.15514172  0.33371635  0.18633844  1
  In  In1  1  0.64381635  0.14374815  0.82996974  1
  In  In2  1  0.64587878  0.31948540  0.36345331  1
  In  In3  1  0.83328041  0.18719628  0.02090164  1
  In  In4  1  0.82249455  0.83844269  0.65177574  1
  In  In5  1  0.00838414  0.84196331  0.18582608  1
  In  In6  1  0.64757137  -0.03537674  0.35597028  1
  In  In7  1  0.83737124  0.51628812  0.63939449  1
  In  In8  1  0.81871212  0.00583724  0.82939116  1
  In  In9  1  0.00411864  0.49788475  0.49861120  1
  In  In10  1  0.84751292  0.32638695  0.15374465  1
  In  In11  1  0.03703625  0.32165503  0.64302830  1
  In  In12  1  0.84028367  0.14638062  0.35051458  1
  In  In13  1  0.52042714  0.86102765  0.65977707  1
  In  In14  1  0.17737089  0.32052671  0.83021378  1
  In  In15  1  0.66470877  0.50060075  0.49301819  1
  In  In16  1  0.01668036  0.71368054  0.67016656  1
  In  In17  1  0.18078434  0.49795792  0.65316460  1
  In  In18  1  0.48221562  0.50210193  0.65240375  1
  In  In19  1  0.17933561  0.84380574  -0.00642267  1
  In  In20  1  0.16212929  0.52312860  0.33992236  1
  In  In21  1  0.65245263  0.68178907  0.65610687  1
  In  In22  1  0.67291477  0.84031365  0.17092131  1
  In  In23  1  0.01661292  0.14632087  0.82282344  1
  In  In24  1  0.32156833  0.50888183  0.48285024  1
  In  In25  1  0.47108814  0.30953789  0.50970344  1
  In  In26  1  0.48277239  0.67149572  0.16970585  1
  In  In27  1  0.16537836  -0.01105980  0.50484838  1
  In  In28  1  0.64657572  0.52573644  0.17467269  1
  In  In29  1  0.02931311  0.53564003  0.86238513  1
  In  In30  1  0.34674220  0.52131139  0.81994950  1
  In  In31  1  0.84353476  -0.01414244  0.50275842  1
  In  In32  1  0.68619661  0.51171215  0.84789042  1
  In  In33  1  0.31851714  0.03025912  0.32474971  1
  In  In34  1  0.34863758  0.34410534  -0.00315004  1
  In  In35  1  0.81487095  0.00105845  0.17699802  1
  In  In36  1  0.01587387  0.50948391  0.17177569  1
  In  In37  1  0.49537683  0.68074711  0.84758959  1
  In  In38  1  0.85363561  0.52652775  -0.00451966  1
  In  In39  1  0.30592332  0.31432133  0.35153430  1
  In  In40  1  0.15603413  0.15329678  0.65116768  1
  In  In41  1  0.49977348  0.31715620  0.80913215  1
  In  In42  1  0.81557070  0.51266272  0.33348028  1
  In  In43  1  0.67244086  0.29483582  0.67246216  1
  In  In44  1  0.82657623  0.14629488  0.65894068  1
  In  In45  1  0.49313680  0.83136056  0.00631805  1
  In  In46  1  0.33875917  0.83115729  0.49354996  1
  In  In47  1  0.49416015  0.17175549  0.34161953  1
  In  In48  1  0.01211253  0.66833001  0.00860124  1
  In  In49  1  0.00196379  0.34251951  0.03834216  1
  In  In50  1  0.17839883  0.15153001  0.00675439  1
  In  In51  1  0.01100973  -0.01726631  0.34931055  1
  In  In52  1  0.83446092  0.67817008  0.81653197  1
  In  In53  1  0.01859576  0.30873436  0.33210686  1
  In  In54  1  0.47035721  -0.00036343  0.16547052  1
  In  In55  1  0.33764915  -0.01079335  0.00319151  1
  In  In56  1  0.48639257  0.31613351  0.15806149  1
  In  In57  1  0.82429962  0.83756316  -0.01149265  1
  In  In58  1  0.02901943  -0.00250678  -0.00147012  1
  In  In59  1  0.31613037  0.82570208  0.20018329  1
  In  In60  1  0.33557528  0.14397397  0.81946862  1
  In  In61  1  0.67392391  0.16153112  0.16376269  1
  In  In62  1  0.68027131  0.70748477  0.36163995  1
  In  In63  1  0.31902371  -0.01980423  0.67736820  1
  In  In64  1  0.02894178  0.69304918  0.34252001  1
  In  In65  1  0.31889741  0.67842717  0.64805197  1
  In  In66  1  0.32980062  0.85170161  0.83276724  1
  In  In67  1  0.48251062  0.52618881  0.30992378  1
  In  In68  1  0.65682195  0.33075211  0.02276306  1
  In  In69  1  0.83338717  0.33166602  0.82159706  1
  In  In70  1  0.00456965  -0.01942914  0.65206023  1
  In  In71  1  0.49358585  0.50149110  0.01016973  1
  Te  Te72  1  0.10459943  0.06778370  0.10731208  1
  Te  Te73  1  0.08575179  0.08858335  0.42507066  1
  Te  Te74  1  0.10493520  0.04808621  0.74983646  1
  Te  Te75  1  0.11761051  0.44567848  0.06837351  1
  Te  Te76  1  0.10007067  0.40922250  0.41968421  1
  Te  Te77  1  0.08107215  0.41781521  0.75616057  1
  Te  Te78  1  0.10122898  0.75870354  0.09540833  1
  Te  Te79  1  0.11270687  0.75583376  0.44877387  1
  Te  Te80  1  0.10151838  0.77939396  0.77013957  1
  Te  Te81  1  0.39623719  0.09856684  0.08525586  1
  Te  Te82  1  0.41823869  0.07727686  0.42541558  1
  Te  Te83  1  0.43117909  0.06093589  0.73813829  1
  Te  Te84  1  0.40111029  0.43527038  0.11076417  1
  Te  Te85  1  0.42820807  0.41434120  0.40597403  1
  Te  Te86  1  0.39748124  0.40488098  0.73388158  1
  Te  Te87  1  0.38643423  0.75363224  0.08207479  1
  Te  Te88  1  0.44260334  0.76616935  0.40852732  1
  Te  Te89  1  0.42218395  0.75890282  0.73565534  1
  Te  Te90  1  0.74095979  0.06980661  0.06147806  1
  Te  Te91  1  0.73312351  0.07250268  0.42780784  1
  Te  Te92  1  0.71468163  0.05223096  0.70762845  1
  Te  Te93  1  0.75627958  0.43455190  0.08243265  1
  Te  Te94  1  0.76110539  0.40257546  0.42491444  1
  Te  Te95  1  0.74369839  0.42874447  0.72917004  1
  Te  Te96  1  0.75761594  0.75098252  0.08879721  1
  Te  Te97  1  0.77727238  0.76058559  0.46151559  1
  Te  Te98  1  0.72892373  0.76930033  0.75459844  1
  Te  Te99  1  0.11932686  0.21203642  0.26912253  1
  Te  Te100  1  0.10590672  0.24020263  0.53459560  1
  Te  Te101  1  0.07759520  0.24873850  0.92356297  1
  Te  Te102  1  0.11028737  0.61440195  0.22884617  1
  Te  Te103  1  0.08023951  0.59335923  0.58985800  1
  Te  Te104  1  0.13937846  0.61568799  0.93692031  1
  Te  Te105  1  0.11280673  0.90643092  0.27013712  1
  Te  Te106  1  0.06928436  0.88351832  0.55658425  1
  Te  Te107  1  0.07865430  0.89995411  0.89692014  1
  Te  Te108  1  0.39203438  0.23635329  0.24808028  1
  Te  Te109  1  0.40048363  0.22856043  0.60886164  1
  Te  Te110  1  0.41898056  0.23624657  0.91111676  1
  Te  Te111  1  0.37067424  0.60447243  0.24693193  1
  Te  Te112  1  0.41914883  0.60316516  0.55854132  1
  Te  Te113  1  0.40070915  0.60085351  0.93896005  1
  Te  Te114  1  0.41876224  0.91094208  0.27473206  1
  Te  Te115  1  0.42164193  0.93611913  0.56977840  1
  Te  Te116  1  0.44069946  0.93651813  0.89972564  1
  Te  Te117  1  0.75059587  0.25779942  0.25422544  1
  Te  Te118  1  0.76205067  0.24417153  0.56723983  1
  Te  Te119  1  0.73389847  0.24589142  0.90798933  1
  Te  Te120  1  0.74333491  0.61634764  0.24943645  1
  Te  Te121  1  0.75119774  0.61159642  0.55753303  1
  Te  Te122  1  0.74921871  0.61982040  0.93271949  1
  Te  Te123  1  0.76462556  0.90050694  0.27970043  1
  Te  Te124  1  0.72792808  0.90713999  0.55905597  1
  Te  Te125  1  0.72893780  0.91958207  0.90913091  1
  Te  Te126  1  0.24789777  0.26481123  0.08221820  1
  Te  Te127  1  0.23009569  0.22373931  0.43775872  1
  Te  Te128  1  0.25807328  0.24302085  0.72756246  1
  Te  Te129  1  0.21953310  0.55819255  0.05554439  1
  Te  Te130  1  0.24426586  0.62449564  0.41972614  1
  Te  Te131  1  0.23573466  0.60238285  0.75174624  1
  Te  Te132  1  0.24489959  0.92481144  0.10639603  1
  Te  Te133  1  0.24738206  0.91349268  0.39796980  1
  Te  Te134  1  0.22277775  0.87370581  0.72641413  1
  Te  Te135  1  0.56507535  0.21753075  0.06987372  1
  Te  Te136  1  0.58544738  0.21881559  0.45849766  1
  Te  Te137  1  0.53675384  0.21604924  0.69209804  1
  Te  Te138  1  0.58339951  0.61159714  0.06699773  1
  Te  Te139  1  0.58112390  0.59340355  0.40497677  1
  Te  Te140  1  0.57641991  0.57896787  0.74979993  1
  Te  Te141  1  0.58085303  0.92908261  0.08607687  1
  Te  Te142  1  0.55839952  0.86868612  0.43032667  1
  Te  Te143  1  0.58862749  0.95350516  0.75547163  1
  Te  Te144  1  0.95181861  0.22082304  0.11519733  1
  Te  Te145  1  0.91601062  0.25086219  0.42274597  1
  Te  Te146  1  0.93199380  0.24157259  0.73636287  1
  Te  Te147  1  0.91278991  0.60593443  0.11039662  1
  Te  Te148  1  0.92580191  0.58959907  0.40560325  1
  Te  Te149  1  0.92714614  0.57812126  0.74727969  1
  Te  Te150  1  0.91837160  0.92644994  0.08302278  1
  Te  Te151  1  0.91451561  0.88886855  0.41406488  1
  Te  Te152  1  0.91258792  0.91147542  0.75339895  1
  Te  Te153  1  0.22038804  0.09454375  0.23370478  1
  Te  Te154  1  0.26734115  0.08146356  0.57364363  1
  Te  Te155  1  0.24037302  0.05781339  0.90272483  1
  Te  Te156  1  0.25261342  0.42576805  0.26053205  1
  Te  Te157  1  0.26005379  0.40610189  0.56956332  1
  Te  Te158  1  0.25699426  0.42651400  0.90648478  1
  Te  Te159  1  0.26007660  0.71941789  0.28929474  1
  Te  Te160  1  0.22196759  0.76013181  0.56380909  1
  Te  Te161  1  0.27005761  0.74916861  0.92105276  1
  Te  Te162  1  0.58800970  0.07538065  0.25653280  1
  Te  Te163  1  0.57915489  0.07415934  0.63509571  1
  Te  Te164  1  0.56071043  0.04813306  0.90347328  1
  Te  Te165  1  0.58564164  0.40492088  0.24542802  1
  Te  Te166  1  0.58230684  0.40859993  0.58334739  1
  Te  Te167  1  0.57294401  0.41524030  0.90850097  1
  Te  Te168  1  0.57556379  0.75660409  0.25512779  1
  Te  Te169  1  0.57014201  0.76012728  0.55736583  1
  Te  Te170  1  0.59269141  0.76868387  0.91454718  1
  Te  Te171  1  0.92674988  0.07515736  0.24890324  1
  Te  Te172  1  0.93762566  0.08997291  0.56923767  1
  Te  Te173  1  0.91409330  0.08741646  0.92167324  1
  Te  Te174  1  0.92484823  0.41924243  0.25791482  1
  Te  Te175  1  0.91815034  0.40086654  0.58038319  1
  Te  Te176  1  0.92494704  0.41491328  0.91854214  1
  Te  Te177  1  0.91821235  0.75356528  0.26432418  1
  Te  Te178  1  0.90961763  0.74559550  0.57040467  1
  Te  Te179  1  0.92830728  0.75394379  0.91065471  1
