# generated using pymatgen
data_In2Te3
_symmetry_space_group_name_H-M   'P 1'
_cell_length_a   19.03494906
_cell_length_b   19.04649882
_cell_length_c   19.01526203
_cell_angle_alpha   90.16680854
_cell_angle_beta   90.42353563
_cell_angle_gamma   89.87710071
_symmetry_Int_Tables_number   1
_chemical_formula_structural   In2Te3
_chemical_formula_sum   'In72 Te108'
_cell_volume   6893.73368486
_cell_formula_units_Z   36
loop_
 _symmetry_equiv_pos_site_id
 _symmetry_equiv_pos_as_xyz
  1  'x, y, z'
loop_
 _atom_site_type_symbol
 _atom_site_label
 _atom_site_symmetry_multiplicity
 _atom_site_fract_x
 _atom_site_fract_y
 _atom_site_fract_z
 _atom_site_occupancy
  In  In0  1  0.49422328  0.66716024  0.48060864  1
  In  In1  1  0.67807635  0.33708816  0.67592883  1
  In  In2  1  0.47680012  0.65787876  0.82873885  1
  In  In3  1  0.01737077  -0.00951164  0.01439968  1
  In  In4  1  0.19518454  0.70813582  0.51409734  1
  In  In5  1  0.65336407  0.13844348  0.16509816  1
  In  In6  1  0.50503197  0.51507937  0.65631157  1
  In  In7  1  0.02895198  -0.01001561  0.35504873  1
  In  In8  1  0.45845866  0.00571205  0.16601530  1
  In  In9  1  0.18811099  0.66392476  0.12962885  1
  In  In10  1  -0.00097270  0.82899587  0.50142693  1
  In  In11  1  0.67829239  -0.01167627  0.65355023  1
  In  In12  1  0.48201042  -0.01078557  0.83763470  1
  In  In13  1  0.16884856  0.49917572  0.68957221  1
  In  In14  1  0.28091676  0.49569277  0.16935174  1
  In  In15  1  0.00773755  0.86058244  0.82246749  1
  In  In16  1  0.01461408  0.15838888  0.51470995  1
  In  In17  1  0.66088776  0.48681640  0.15477233  1
  In  In18  1  0.33539901  0.67711813  0.34080292  1
  In  In19  1  0.03067976  0.63780711  -0.01195916  1
  In  In20  1  0.47159025  0.48355126  0.31141706  1
  In  In21  1  0.00683386  0.50457747  0.51170889  1
  In  In22  1  0.65611414  0.65202879  0.31323757  1
  In  In23  1  0.67989370  0.15370678  0.50812491  1
  In  In24  1  0.06320214  0.38126082  0.00063745  1
  In  In25  1  0.04604865  0.16675708  0.17034551  1
  In  In26  1  0.32274867  0.19283538  0.84413961  1
  In  In27  1  0.50133676  0.86930007  0.36802529  1
  In  In28  1  0.84459729  0.30867790  0.18474394  1
  In  In29  1  0.48562138  0.19234277  0.66032554  1
  In  In30  1  0.84221401  0.15951442  -0.01256452  1
  In  In31  1  0.64362632  0.67056439  -0.00202958  1
  In  In32  1  0.82439748  0.63726462  0.49873315  1
  In  In33  1  0.47783731  0.33626048  0.48300170  1
  In  In34  1  0.33824365  0.00428390  -0.02525591  1
  In  In35  1  0.85097732  0.47524849  0.34034212  1
  In  In36  1  0.17843306  0.82813351  -0.00624701  1
  In  In37  1  0.84836513  0.13341784  0.36832277  1
  In  In38  1  0.83159189  0.78587133  0.00747168  1
  In  In39  1  0.68365688  0.31560527  0.35454572  1
  In  In40  1  -0.01238343  0.66455057  0.67454896  1
  In  In41  1  0.30617677  0.14788716  0.19116729  1
  In  In42  1  0.63891567  0.68504717  0.68392040  1
  In  In43  1  0.30750919  0.35484586  -0.00135729  1
  In  In44  1  0.18512394  0.68250655  0.82543787  1
  In  In45  1  0.50078576  0.35977338  0.84481478  1
  In  In46  1  0.34803035  0.81376720  0.15548773  1
  In  In47  1  0.83198030  -0.02017521  0.84272339  1
  In  In48  1  0.83611185  0.32301225  0.51063412  1
  In  In49  1  0.66620042  0.01852089  -0.02642584  1
  In  In50  1  0.01542267  0.84195651  0.19674579  1
  In  In51  1  0.79269175  0.84043388  0.34680328  1
  In  In52  1  0.46108725  0.11993317  0.36471421  1
  In  In53  1  0.49366276  0.49929841  0.00715482  1
  In  In54  1  0.00121518  0.02022251  0.66639909  1
  In  In55  1  0.65384063  0.79568717  0.83818844  1
  In  In56  1  0.84365563  -0.02494651  0.19454401  1
  In  In57  1  0.82392214  0.66433881  0.83769754  1
  In  In58  1  0.70366387  0.31644738  -0.01635264  1
  In  In59  1  0.17247844  0.85497492  0.34765352  1
  In  In60  1  0.47418643  0.83858386  0.66684899  1
  In  In61  1  0.15516846  0.01429390  0.51363667  1
  In  In62  1  0.33706286  0.34437279  0.65137255  1
  In  In63  1  0.16323002  0.32503026  0.48409592  1
  In  In64  1  0.31568706  0.00576982  0.65787612  1
  In  In65  1  0.03255732  0.32348598  0.31119050  1
  In  In66  1  0.88753653  0.31310716  0.82742352  1
  In  In67  1  0.82347894  0.51990728  0.68562371  1
  In  In68  1  0.49627082  0.29264406  0.16998214  1
  In  In69  1  0.86899570  0.65995812  0.16183342  1
  In  In70  1  0.14710432  0.33742404  0.83591950  1
  In  In71  1  0.60270113  0.83100654  0.14936527  1
  Te  Te72  1  0.11462598  0.08155141  0.07399670  1
  Te  Te73  1  0.10683484  0.11612320  0.39367651  1
  Te  Te74  1  0.06661901  0.13144587  0.73458086  1
  Te  Te75  1  0.13897355  0.45896281  0.10942002  1
  Te  Te76  1  0.08389319  0.43335793  0.40337902  1
  Te  Te77  1  0.06453027  0.40973459  0.73625337  1
  Te  Te78  1  0.06651817  0.76356398  0.07867261  1
  Te  Te79  1  0.08403248  0.75031041  0.40682462  1
  Te  Te80  1  0.08422856  0.76078536  0.73969486  1
  Te  Te81  1  0.39791467  0.10747671  0.07454689  1
  Te  Te82  1  0.37918619  0.03204404  0.44564572  1
  Te  Te83  1  0.40888588  0.09772532  0.75201441  1
  Te  Te84  1  0.42116325  0.40255822  0.10004932  1
  Te  Te85  1  0.39205271  0.44379474  0.42868430  1
  Te  Te86  1  0.41389613  0.43451305  0.74671809  1
  Te  Te87  1  0.47137926  0.78514499  0.08320585  1
  Te  Te88  1  0.39980145  0.77701149  0.43485517  1
  Te  Te89  1  0.40142126  0.71589181  0.71259250  1
  Te  Te90  1  0.76659484  0.07098229  0.08588955  1
  Te  Te91  1  0.73220469  0.05284549  0.41050368  1
  Te  Te92  1  0.74672956  0.06452388  0.75928326  1
  Te  Te93  1  0.76853466  0.40181662  0.09102583  1
  Te  Te94  1  0.74575401  0.42449221  0.43783357  1
  Te  Te95  1  0.77304457  0.40670091  0.77004039  1
  Te  Te96  1  0.73270828  0.73600874  0.10827484  1
  Te  Te97  1  0.72723394  0.72850151  0.42330239  1
  Te  Te98  1  0.76039877  0.75940363  0.73901131  1
  Te  Te99  1  0.13494832  0.28368963  0.20821889  1
  Te  Te100  1  0.06204579  0.27931030  0.58346200  1
  Te  Te101  1  0.10907350  0.25249228  0.94999540  1
  Te  Te102  1  0.09598143  0.57352010  0.19640828  1
  Te  Te103  1  0.09423522  0.60577686  0.58404337  1
  Te  Te104  1  0.13542320  0.57049662  0.91228083  1
  Te  Te105  1  0.11860206  0.94518536  0.23546564  1
  Te  Te106  1  0.08360417  0.91077451  0.59485753  1
  Te  Te107  1  0.11018926  0.93133453  0.90558729  1
  Te  Te108  1  0.40875222  0.23299016  0.27587283  1
  Te  Te109  1  0.38765570  0.23834214  0.55398209  1
  Te  Te110  1  0.41747925  0.27128294  0.93222932  1
  Te  Te111  1  0.39502812  0.58711010  0.23580554  1
  Te  Te112  1  0.41408866  0.56601735  0.55092743  1
  Te  Te113  1  0.39905256  0.58066139  0.92805209  1
  Te  Te114  1  0.39438021  0.91155232  0.26210257  1
  Te  Te115  1  0.42889334  0.94954433  0.57721223  1
  Te  Te116  1  0.36292407  0.90148962  0.86509455  1
  Te  Te117  1  0.74896730  0.21464657  0.26050613  1
  Te  Te118  1  0.76443609  0.23307280  0.60698665  1
  Te  Te119  1  0.76464244  0.22798388  0.87928133  1
  Te  Te120  1  0.76323221  0.56415616  0.24782431  1
  Te  Te121  1  0.72187363  0.58707173  0.59698226  1
  Te  Te122  1  0.74249852  0.58735274  0.93033561  1
  Te  Te123  1  0.71841887  0.90835175  0.23544420  1
  Te  Te124  1  0.71812463  0.90603227  0.54139645  1
  Te  Te125  1  0.73605840  0.88418062  0.93274780  1
  Te  Te126  1  0.25510380  0.26221043  0.10294739  1
  Te  Te127  1  0.25351697  0.28258149  0.37697387  1
  Te  Te128  1  0.24388925  0.26596182  0.73860708  1
  Te  Te129  1  0.30370810  0.60038642  0.06546179  1
  Te  Te130  1  0.23103549  0.60766133  0.41343969  1
  Te  Te131  1  0.26631871  0.60070304  0.73168391  1
  Te  Te132  1  0.26802665  0.91664763  0.07847769  1
  Te  Te133  1  0.25704589  0.92921817  0.44450363  1
  Te  Te134  1  0.26603615  0.88774028  0.72998420  1
  Te  Te135  1  0.60011644  0.24324525  0.07172479  1
  Te  Te136  1  0.57710469  0.23251244  0.42114230  1
  Te  Te137  1  0.57794503  0.26121040  0.75959868  1
  Te  Te138  1  0.56640325  0.59159847  0.10403323  1
  Te  Te139  1  0.57125877  0.56228817  0.39774672  1
  Te  Te140  1  0.58889328  0.57392856  0.77160793  1
  Te  Te141  1  0.56451308  0.95598512  0.06778519  1
  Te  Te142  1  0.61081289  0.94303493  0.43738717  1
  Te  Te143  1  0.58412117  0.90721681  0.75769662  1
  Te  Te144  1  0.92998959  0.22954557  0.08913558  1
  Te  Te145  1  0.92092767  0.26173568  0.40111544  1
  Te  Te146  1  0.96323451  0.23745949  0.72194802  1
  Te  Te147  1  0.91761011  0.57482503  0.05479768  1
  Te  Te148  1  0.93088341  0.58699337  0.40464257  1
  Te  Te149  1  0.93136235  0.57275263  0.77923245  1
  Te  Te150  1  0.90420137  0.90522096  0.07261494  1
  Te  Te151  1  0.91199838  0.91565029  0.41280446  1
  Te  Te152  1  0.90400719  0.91469328  0.72793498  1
  Te  Te153  1  0.21431535  0.08538606  0.28568912  1
  Te  Te154  1  0.22479698  0.10712050  0.60250062  1
  Te  Te155  1  0.24000320  0.09375185  0.91105519  1
  Te  Te156  1  0.25542708  0.39443559  0.27948232  1
  Te  Te157  1  0.23637285  0.42647055  0.57461013  1
  Te  Te158  1  0.24156747  0.43817543  0.89616065  1
  Te  Te159  1  0.23585988  0.75522205  0.24395731  1
  Te  Te160  1  0.27169748  0.77788223  0.62115399  1
  Te  Te161  1  0.27928592  0.75730711  0.91415020  1
  Te  Te162  1  0.55956909  0.06979902  0.26039954  1
  Te  Te163  1  0.57481882  0.09027862  0.59499244  1
  Te  Te164  1  0.56362462  0.09291090  0.90341874  1
  Te  Te165  1  0.59413598  0.39207046  0.25333535  1
  Te  Te166  1  0.57439105  0.39981159  0.58435644  1
  Te  Te167  1  0.60355933  0.42307734  0.93622292  1
  Te  Te168  1  0.55722297  0.75965700  0.27625503  1
  Te  Te169  1  0.56956180  0.76149846  0.57472470  1
  Te  Te170  1  0.53651235  0.76184251  0.92346062  1
  Te  Te171  1  0.93680741  0.07961264  0.25223957  1
  Te  Te172  1  0.90983454  0.07052360  0.56117372  1
  Te  Te173  1  0.93408530  0.06973408  0.90979511  1
  Te  Te174  1  0.93918961  0.41695491  0.23218992  1
  Te  Te175  1  0.90492909  0.43038321  0.59292519  1
  Te  Te176  1  0.93074240  0.39832963  0.93813395  1
  Te  Te177  1  0.90196787  0.76715099  0.26160735  1
  Te  Te178  1  0.90112225  0.74225850  0.57761962  1
  Te  Te179  1  0.93671213  0.75277853  0.90338506  1
