# generated using pymatgen
data_In2Te3
_symmetry_space_group_name_H-M   'P 1'
_cell_length_a   18.78709493
_cell_length_b   18.77065174
_cell_length_c   18.77531657
_cell_angle_alpha   89.97292510
_cell_angle_beta   89.95064039
_cell_angle_gamma   90.00543502
_symmetry_Int_Tables_number   1
_chemical_formula_structural   In2Te3
_chemical_formula_sum   'In72 Te108'
_cell_volume   6621.03736280
_cell_formula_units_Z   36
loop_
 _symmetry_equiv_pos_site_id
 _symmetry_equiv_pos_as_xyz
  1  'x, y, z'
loop_
 _atom_site_type_symbol
 _atom_site_label
 _atom_site_symmetry_multiplicity
 _atom_site_fract_x
 _atom_site_fract_y
 _atom_site_fract_z
 _atom_site_occupancy
  In  In0  1  0.49059272  0.17070546  0.01771040  1
  In  In1  1  0.33963041  0.67387343  0.65785586  1
  In  In2  1  0.47419822  -0.02030735  0.18993788  1
  In  In3  1  0.47922385  0.67226701  0.49725709  1
  In  In4  1  -0.00781050  0.48403209  0.52095982  1
  In  In5  1  0.01404890  0.34008182  0.01183588  1
  In  In6  1  0.20172291  0.52261130  0.34938892  1
  In  In7  1  0.02398758  0.65923531  0.34348726  1
  In  In8  1  0.63477472  0.72178479  0.31166917  1
  In  In9  1  0.18918417  0.81868126  0.33573783  1
  In  In10  1  0.45641325  -0.00425285  0.83979502  1
  In  In11  1  0.02827183  0.00495882  0.02564918  1
  In  In12  1  0.01126014  0.82724707  0.16471587  1
  In  In13  1  0.83824865  0.66211197  0.15233107  1
  In  In14  1  0.65394592  0.01105441  0.02033312  1
  In  In15  1  0.83995925  0.82472999  -0.01286306  1
  In  In16  1  0.14408028  0.67058298  0.85429888  1
  In  In17  1  0.65675433  0.19244162  0.48873555  1
  In  In18  1  0.64920974  -0.03548547  0.32350596  1
  In  In19  1  0.85255276  0.70750864  0.52057705  1
  In  In20  1  0.33300500  0.49474756  0.84075657  1
  In  In21  1  0.83769908  0.49714486  0.67201725  1
  In  In22  1  0.63833074  0.50615058  0.51104665  1
  In  In23  1  0.84631085  0.14293802  0.33442612  1
  In  In24  1  0.01910969  0.01738042  0.33239047  1
  In  In25  1  0.63922639  0.50729496  0.17634333  1
  In  In26  1  0.48144538  0.00041465  0.45360585  1
  In  In27  1  0.32647697  0.00065136  0.02365653  1
  In  In28  1  0.16811084  0.34244946  0.49546848  1
  In  In29  1  0.65464857  0.16847422  0.15534787  1
  In  In30  1  0.32825707  0.30383599  0.30234546  1
  In  In31  1  0.49327022  0.34074774  0.47870154  1
  In  In32  1  0.50133534  0.83450804  0.65109801  1
  In  In33  1  0.32850587  0.84510148  0.47383197  1
  In  In34  1  0.02929257  0.50179791  0.18682379  1
  In  In35  1  0.83427001  0.32401012  0.14894149  1
  In  In36  1  0.83641132  0.34847195  0.51227074  1
  In  In37  1  0.65649035  0.50886184  0.83475323  1
  In  In38  1  0.83484310  -0.01017048  0.50771811  1
  In  In39  1  0.68295107  -0.00186155  0.66342514  1
  In  In40  1  0.49998020  0.18016779  0.64292782  1
  In  In41  1  0.15903533  0.50199141  0.65639350  1
  In  In42  1  0.83581385  0.50296692  -0.01264503  1
  In  In43  1  0.83135892  0.85731089  0.33555743  1
  In  In44  1  -0.00621665  0.19713845  0.81554328  1
  In  In45  1  0.47419300  0.51077005  0.32238366  1
  In  In46  1  0.83719328  0.49888895  0.32521208  1
  In  In47  1  0.19127827  0.83055574  0.03017715  1
  In  In48  1  0.04185012  0.30037892  0.32714973  1
  In  In49  1  0.50697199  0.65970093  0.84473489  1
  In  In50  1  0.31901250  0.16322604  0.81546652  1
  In  In51  1  -0.01277528  0.83564823  0.82963886  1
  In  In52  1  0.16374593  0.01008035  0.83082676  1
  In  In53  1  0.66172116  0.65063274  0.01679737  1
  In  In54  1  0.85797406  -0.02356733  0.83127127  1
  In  In55  1  0.02281901  0.15613275  0.49630018  1
  In  In56  1  0.17105326  0.82905502  0.64404906  1
  In  In57  1  -0.00205218  0.50887315  0.83686562  1
  In  In58  1  0.02245907  -0.01002927  0.67371896  1
  In  In59  1  0.31922850  0.31897869  0.02182358  1
  In  In60  1  0.18210756  0.31994714  0.84449612  1
  In  In61  1  0.68986974  0.16309543  0.84633666  1
  In  In62  1  0.50427679  0.35663681  0.83465101  1
  In  In63  1  0.66502879  0.80970682  0.82328832  1
  In  In64  1  0.68152673  0.33247925  0.65280304  1
  In  In65  1  0.63330501  0.32457977  0.33103812  1
  In  In66  1  0.32093540  0.13498256  0.50277059  1
  In  In67  1  0.66350649  0.66998585  0.68594630  1
  In  In68  1  0.34548119  0.67994253  0.02833193  1
  In  In69  1  0.84054181  0.17132024  -0.00935617  1
  In  In70  1  0.32568085  0.50380603  0.15713913  1
  In  In71  1  0.32888751  0.87849197  0.84068740  1
  Te  Te72  1  0.12899236  0.07681720  0.10833453  1
  Te  Te73  1  0.12456958  0.08289168  0.41597759  1
  Te  Te74  1  0.09437062  0.10934008  0.73783901  1
  Te  Te75  1  0.10718144  0.40353709  0.10801550  1
  Te  Te76  1  0.07471038  0.43518885  0.40051853  1
  Te  Te77  1  0.09246278  0.41396386  0.76139176  1
  Te  Te78  1  0.08755511  0.73637460  0.07703766  1
  Te  Te79  1  0.08234248  0.76541227  0.42583472  1
  Te  Te80  1  0.08088707  0.74987058  0.73979760  1
  Te  Te81  1  0.40320724  0.09688173  0.11636276  1
  Te  Te82  1  0.37191543  0.06685947  0.37862598  1
  Te  Te83  1  0.40860184  0.08147849  0.72028619  1
  Te  Te84  1  0.41604384  0.40403998  0.09206799  1
  Te  Te85  1  0.38699112  0.41512169  0.40133054  1
  Te  Te86  1  0.39490862  0.39907948  0.74565756  1
  Te  Te87  1  0.40593448  0.77351863  0.13164033  1
  Te  Te88  1  0.42184756  0.75971582  0.39313738  1
  Te  Te89  1  0.42109834  0.76021095  0.76029883  1
  Te  Te90  1  0.76621849  0.08387448  0.09314691  1
  Te  Te91  1  0.73561839  0.07670001  0.41635148  1
  Te  Te92  1  0.77632643  0.08133832  0.75099240  1
  Te  Te93  1  0.74616426  0.43339335  0.09040099  1
  Te  Te94  1  0.72857840  0.41210767  0.41981038  1
  Te  Te95  1  0.75074955  0.41074999  0.76385902  1
  Te  Te96  1  0.74312554  0.76098373  0.08746513  1
  Te  Te97  1  0.75378856  0.74852630  0.40936349  1
  Te  Te98  1  0.77419988  0.74111971  0.75247854  1
  Te  Te99  1  0.10577584  0.21121241  0.22416700  1
  Te  Te100  1  0.09176783  0.25235056  0.58482839  1
  Te  Te101  1  0.08995819  0.23338720  0.93001975  1
  Te  Te102  1  0.12516978  0.60737448  0.24329419  1
  Te  Te103  1  0.07142665  0.59261994  0.57963725  1
  Te  Te104  1  0.09131265  0.56345025  0.93970738  1
  Te  Te105  1  0.09976911  0.91499633  0.24927973  1
  Te  Te106  1  0.09364325  0.92507163  0.56162079  1
  Te  Te107  1  0.09413547  0.90540926  0.92053813  1
  Te  Te108  1  0.44949255  0.22970745  0.26401234  1
  Te  Te109  1  0.39612756  0.25633201  0.56492476  1
  Te  Te110  1  0.41173136  0.24801781  0.90905560  1
  Te  Te111  1  0.38116343  0.60644030  0.25469295  1
  Te  Te112  1  0.40332171  0.56851155  0.57132695  1
  Te  Te113  1  0.41976307  0.57630422  0.93639501  1
  Te  Te114  1  0.37369629  0.88281065  0.25032123  1
  Te  Te115  1  0.41105517  0.92660795  0.57424208  1
  Te  Te116  1  0.42633539  0.90357943  0.95817232  1
  Te  Te117  1  0.74906832  0.25179459  0.25907658  1
  Te  Te118  1  0.76895403  0.22734927  0.58490248  1
  Te  Te119  1  0.74700241  0.26867858  0.93121580  1
  Te  Te120  1  0.74145891  0.59544336  0.25231446  1
  Te  Te121  1  0.75407901  0.58337188  0.57424992  1
  Te  Te122  1  0.75511387  0.60280150  0.90497050  1
  Te  Te123  1  0.75268563  0.92068862  0.22892049  1
  Te  Te124  1  0.73677351  0.89751663  0.57028702  1
  Te  Te125  1  0.73886345  0.92573396  0.91449621  1
  Te  Te126  1  0.24113009  0.23582359  0.11985878  1
  Te  Te127  1  0.24366041  0.23944632  0.41169137  1
  Te  Te128  1  0.25454443  0.26330439  0.72796141  1
  Te  Te129  1  0.23745712  0.59083142  0.07279395  1
  Te  Te130  1  0.27070439  0.60303059  0.45179780  1
  Te  Te131  1  0.24910537  0.59649178  0.75700685  1
  Te  Te132  1  0.25189807  0.92422390  0.12996066  1
  Te  Te133  1  0.24199775  0.94514719  0.40260787  1
  Te  Te134  1  0.25220147  0.93894382  0.71933188  1
  Te  Te135  1  0.59201123  0.26662746  0.06547365  1
  Te  Te136  1  0.53290957  0.21531261  0.39388759  1
  Te  Te137  1  0.59096952  0.24230458  0.75002660  1
  Te  Te138  1  0.55144104  0.59863934  0.10065212  1
  Te  Te139  1  0.58427603  0.59076464  0.39556153  1
  Te  Te140  1  0.55850899  0.57024236  0.73252922  1
  Te  Te141  1  0.57998698  0.91281944  0.10532464  1
  Te  Te142  1  0.56521909  0.88380987  0.41409712  1
  Te  Te143  1  0.57579599  0.92208443  0.75572541  1
  Te  Te144  1  0.93913922  0.22984558  0.09236623  1
  Te  Te145  1  0.91744389  0.25438096  0.41552755  1
  Te  Te146  1  0.89708390  0.27144880  0.73562329  1
  Te  Te147  1  0.93587114  0.56970999  0.08293629  1
  Te  Te148  1  0.91121160  0.58571598  0.42754567  1
  Te  Te149  1  0.92201469  0.59462914  0.74247514  1
  Te  Te150  1  0.91717614  0.91664885  0.08375450  1
  Te  Te151  1  0.93924026  0.91820623  0.42228116  1
  Te  Te152  1  0.89925714  0.89255535  0.70784576  1
  Te  Te153  1  0.23013348  0.11736227  0.22172227  1
  Te  Te154  1  0.26196601  0.06582388  0.61917895  1
  Te  Te155  1  0.24626767  0.09213320  0.92997656  1
  Te  Te156  1  0.23568815  0.41303775  0.24702887  1
  Te  Te157  1  0.25800247  0.43686538  0.56698688  1
  Te  Te158  1  0.24093239  0.42277552  0.93962916  1
  Te  Te159  1  0.28514672  0.74906062  0.24004140  1
  Te  Te160  1  0.24651665  0.72768756  0.54687674  1
  Te  Te161  1  0.26317207  0.75425674  0.90866808  1
  Te  Te162  1  0.57661762  0.07741619  0.25049768  1
  Te  Te163  1  0.58366963  0.07426272  0.56862434  1
  Te  Te164  1  0.57144354  0.08289860  0.90965198  1
  Te  Te165  1  0.54407584  0.40220856  0.23612803  1
  Te  Te166  1  0.56072131  0.40979901  0.59915046  1
  Te  Te167  1  0.57839325  0.43393122  0.93514236  1
  Te  Te168  1  0.55055885  0.76974047  0.19976986  1
  Te  Te169  1  0.59444617  0.74388766  0.57188574  1
  Te  Te170  1  0.57797972  0.75751811  0.93678748  1
  Te  Te171  1  0.92893390  0.07924454  0.23184230  1
  Te  Te172  1  0.92694786  0.08064003  0.58839686  1
  Te  Te173  1  0.94092383  0.07584043  0.91329295  1
  Te  Te174  1  0.92488040  0.39894863  0.24820756  1
  Te  Te175  1  0.93824674  0.37922653  0.62643846  1
  Te  Te176  1  0.91622917  0.39920950  0.91035532  1
  Te  Te177  1  0.91646405  0.74122150  0.25902902  1
  Te  Te178  1  0.94458953  0.78599523  0.60109781  1
  Te  Te179  1  0.93073143  0.73200876  0.91871090  1
