# generated using pymatgen
data_In2Te3
_symmetry_space_group_name_H-M   'P 1'
_cell_length_a   18.97246974
_cell_length_b   18.98155737
_cell_length_c   18.95605437
_cell_angle_alpha   89.90155056
_cell_angle_beta   89.93999336
_cell_angle_gamma   89.82047869
_symmetry_Int_Tables_number   1
_chemical_formula_structural   In2Te3
_chemical_formula_sum   'In72 Te108'
_cell_volume   6826.54013474
_cell_formula_units_Z   36
loop_
 _symmetry_equiv_pos_site_id
 _symmetry_equiv_pos_as_xyz
  1  'x, y, z'
loop_
 _atom_site_type_symbol
 _atom_site_label
 _atom_site_symmetry_multiplicity
 _atom_site_fract_x
 _atom_site_fract_y
 _atom_site_fract_z
 _atom_site_occupancy
  In  In0  1  0.51478938  0.68987400  0.16097484  1
  In  In1  1  0.84234690  0.15739161  0.64860247  1
  In  In2  1  0.67845965  0.83318768  0.84195427  1
  In  In3  1  0.51422526  0.31806071  0.83395569  1
  In  In4  1  0.14754455  0.47791809  0.64035473  1
  In  In5  1  0.83092604  0.01323208  0.49832807  1
  In  In6  1  0.31744100  0.67317687  -0.01142971  1
  In  In7  1  0.48527928  0.52440048  -0.00235604  1
  In  In8  1  0.68268945  0.85537371  0.51102763  1
  In  In9  1  0.82508396  0.65096922  0.48172710  1
  In  In10  1  -0.01184634  0.50668981  0.83533755  1
  In  In11  1  0.16487528  -0.00393200  0.82256832  1
  In  In12  1  0.31542578  -0.01670243  0.03590882  1
  In  In13  1  0.16801402  0.32673397  0.86644210  1
  In  In14  1  0.00342000  0.32246532  0.00112657  1
  In  In15  1  0.16302816  0.17758764  0.02142016  1
  In  In16  1  0.68394522  0.66084807  0.03277247  1
  In  In17  1  0.70524821  0.47626258  0.47089937  1
  In  In18  1  0.15332768  0.85130873  0.67256796  1
  In  In19  1  0.30041133  0.85420444  0.47406090  1
  In  In20  1  0.51754779  0.35473458  0.18092243  1
  In  In21  1  0.35558798  0.32807589  0.66024772  1
  In  In22  1  0.29840773  0.49805833  0.82329506  1
  In  In23  1  0.50143639  0.66796685  0.50257341  1
  In  In24  1  0.69410961  0.64485061  0.31055771  1
  In  In25  1  0.14311001  0.49668561  0.02873975  1
  In  In26  1  0.51248480  0.52139053  0.66534433  1
  In  In27  1  -0.01730011  0.79274595  0.17474257  1
  In  In28  1  0.51448907  0.49835843  0.30993743  1
  In  In29  1  -0.04404937  0.46867081  0.19078966  1
  In  In30  1  0.68709807  -0.01632840  0.31907623  1
  In  In31  1  0.01830515  0.18495299  0.18816051  1
  In  In32  1  0.50113028  0.01230966  0.82629257  1
  In  In33  1  0.16836160  0.02150893  0.49088337  1
  In  In34  1  0.34150845  0.50270274  0.18854713  1
  In  In35  1  0.68064232  0.01404063  0.65373168  1
  In  In36  1  0.67451292  0.32027790  0.67928303  1
  In  In37  1  0.16229601  0.68066687  0.20400502  1
  In  In38  1  0.50969329  0.00898220  0.49870093  1
  In  In39  1  -0.00293375  0.01835989  -0.01803597  1
  In  In40  1  -0.01624409  0.81835090  0.48176782  1
  In  In41  1  0.67349621  0.16653124  0.17795936  1
  In  In42  1  0.29853843  0.14354125  0.19305059  1
  In  In43  1  0.51639718  0.84861736  -0.02520657  1
  In  In44  1  0.17236431  0.84111017  0.33871756  1
  In  In45  1  0.82430916  0.82495231  -0.00242719  1
  In  In46  1  -0.01353057  0.63879685  0.01735331  1
  In  In47  1  0.14851164  0.64643324  0.48627135  1
  In  In48  1  0.50659000  0.33384013  0.48982686  1
  In  In49  1  0.82926369  0.16449686  -0.01281126  1
  In  In50  1  0.69455095  0.35469983  0.03251833  1
  In  In51  1  0.49117239  0.15592102  -0.01089475  1
  In  In52  1  0.33840558  0.31811346  0.34347807  1
  In  In53  1  0.33351472  0.69200690  0.66756235  1
  In  In54  1  0.48949895  0.83159141  0.65645200  1
  In  In55  1  0.65083938  0.51805788  0.83489254  1
  In  In56  1  0.15426168  0.49119228  0.33817621  1
  In  In57  1  -0.02527798  0.86745500  0.79652196  1
  In  In58  1  -0.02125074  0.34279575  0.64781070  1
  In  In59  1  0.82186238  0.66512117  0.83797269  1
  In  In60  1  0.83886490  0.34446528  0.84367329  1
  In  In61  1  0.48804586  -0.04803886  0.16166104  1
  In  In62  1  0.84016839  -0.00038773  0.15614551  1
  In  In63  1  -0.01720404  0.48982074  0.47345781  1
  In  In64  1  0.52810300  0.17614969  0.34523287  1
  In  In65  1  0.34046511  0.15603303  0.83365067  1
  In  In66  1  0.16514868  0.15366344  0.66501781  1
  In  In67  1  0.84224251  0.17708809  0.35759940  1
  In  In68  1  0.29782396  0.69859917  0.33340318  1
  In  In69  1  0.18209607  0.32250286  0.48594284  1
  In  In70  1  0.16502719  0.70221670  0.82508465  1
  In  In71  1  0.00936720  -0.00573154  0.35558763  1
  Te  Te72  1  0.07830238  0.07859236  0.09707332  1
  Te  Te73  1  0.08626444  0.11694534  0.40479730  1
  Te  Te74  1  0.07018338  0.07620764  0.74466048  1
  Te  Te75  1  0.07200342  0.39564327  0.11406275  1
  Te  Te76  1  0.06679245  0.38509354  0.40207615  1
  Te  Te77  1  0.08585560  0.40949161  0.76341104  1
  Te  Te78  1  0.08747114  0.73295438  0.08082305  1
  Te  Te79  1  0.07487268  0.73192023  0.38517060  1
  Te  Te80  1  0.05486262  0.75361982  0.73345362  1
  Te  Te81  1  0.41222129  0.08709787  0.09955174  1
  Te  Te82  1  0.42641597  0.09405099  0.41045044  1
  Te  Te83  1  0.42552995  0.09617049  0.73164221  1
  Te  Te84  1  0.41699347  0.42070214  0.08619752  1
  Te  Te85  1  0.42088287  0.42856950  0.40720204  1
  Te  Te86  1  0.42260434  0.42578574  0.75826596  1
  Te  Te87  1  0.42692700  0.75539351  0.05723856  1
  Te  Te88  1  0.40889712  0.75767480  0.42265412  1
  Te  Te89  1  0.41620946  0.76227272  0.76330373  1
  Te  Te90  1  0.73946366  0.07725299  0.07421544  1
  Te  Te91  1  0.72908031  0.09137948  0.41703290  1
  Te  Te92  1  0.74632259  0.10520387  0.74655547  1
  Te  Te93  1  0.78399625  0.43407062  0.11750025  1
  Te  Te94  1  0.81755866  0.40062393  0.40519455  1
  Te  Te95  1  0.74682837  0.42862285  0.75703725  1
  Te  Te96  1  0.76048610  0.75825543  0.11294550  1
  Te  Te97  1  0.73860370  0.75512557  0.41122692  1
  Te  Te98  1  0.76195035  0.76216978  0.74575188  1
  Te  Te99  1  0.09375278  0.23432322  0.30307135  1
  Te  Te100  1  0.08557381  0.25637801  0.58397329  1
  Te  Te101  1  0.06777406  0.22241734  0.90817874  1
  Te  Te102  1  0.07107253  0.56487714  0.23748158  1
  Te  Te103  1  0.05380272  0.58025954  0.58165027  1
  Te  Te104  1  0.10069328  0.58538031  0.91174926  1
  Te  Te105  1  0.06445796  0.90093359  0.24970973  1
  Te  Te106  1  0.08560265  0.91095699  0.55138907  1
  Te  Te107  1  0.07120037  0.90880421  0.90476373  1
  Te  Te108  1  0.42946596  0.24828830  0.24403295  1
  Te  Te109  1  0.42145222  0.23901722  0.56487066  1
  Te  Te110  1  0.40422584  0.26126820  0.92247657  1
  Te  Te111  1  0.41560595  0.61254282  0.26138114  1
  Te  Te112  1  0.40230246  0.58564808  0.58292390  1
  Te  Te113  1  0.39959640  0.59038975  0.88998903  1
  Te  Te114  1  0.39262049  0.90026970  0.25574651  1
  Te  Te115  1  0.40599126  0.91785766  0.56554708  1
  Te  Te116  1  0.40674647  0.93860706  0.92244941  1
  Te  Te117  1  0.77546624  0.25144031  0.24414739  1
  Te  Te118  1  0.76020672  0.25825910  0.57268274  1
  Te  Te119  1  0.73504152  0.26315767  0.91829328  1
  Te  Te120  1  0.76320318  0.55061251  0.21931718  1
  Te  Te121  1  0.73557816  0.57532078  0.57189623  1
  Te  Te122  1  0.75370574  0.56916919  0.93440831  1
  Te  Te123  1  0.76786517  0.89562012  0.23212950  1
  Te  Te124  1  0.78991954  0.90713669  0.60843730  1
  Te  Te125  1  0.77490325  0.92658688  0.90311176  1
  Te  Te126  1  0.24767378  0.25412773  0.11124910  1
  Te  Te127  1  0.28409243  0.22392291  0.44359846  1
  Te  Te128  1  0.25021346  0.26305918  0.75535283  1
  Te  Te129  1  0.24955495  0.59056071  0.10302247  1
  Te  Te130  1  0.25722531  0.57242489  0.41276352  1
  Te  Te131  1  0.22479767  0.58826874  0.72557678  1
  Te  Te132  1  0.22578477  0.90375785  0.11552985  1
  Te  Te133  1  0.26455280  0.96375675  0.36700972  1
  Te  Te134  1  0.26065455  0.92095928  0.74060521  1
  Te  Te135  1  0.58568412  0.25280304  0.08349627  1
  Te  Te136  1  0.61376902  0.28227124  0.40060978  1
  Te  Te137  1  0.57775609  0.22729623  0.73999075  1
  Te  Te138  1  0.58470819  0.56799276  0.10294872  1
  Te  Te139  1  0.58982175  0.57370789  0.42122454  1
  Te  Te140  1  0.58187570  0.61587734  0.75128667  1
  Te  Te141  1  0.59836450  0.91117840  0.07795937  1
  Te  Te142  1  0.58602615  0.91228219  0.40902549  1
  Te  Te143  1  0.58817034  0.91629249  0.73812551  1
  Te  Te144  1  0.91355870  0.23813353  0.08776440  1
  Te  Te145  1  0.88111051  0.26855743  0.46750473  1
  Te  Te146  1  0.91489631  0.25398572  0.75040491  1
  Te  Te147  1  0.89075473  0.58614950  0.11875746  1
  Te  Te148  1  0.91966052  0.58934036  0.38004332  1
  Te  Te149  1  0.90248924  0.58156064  0.74575638  1
  Te  Te150  1  0.93637245  0.90853151  0.07627410  1
  Te  Te151  1  0.89199405  0.91125108  0.40379953  1
  Te  Te152  1  0.91981997  0.95212227  0.69055005  1
  Te  Te153  1  0.20110120  0.07332657  0.27573172  1
  Te  Te154  1  0.26007136  0.06766419  0.59402805  1
  Te  Te155  1  0.24541241  0.08513445  0.93030031  1
  Te  Te156  1  0.24802311  0.40448397  0.25487076  1
  Te  Te157  1  0.26621863  0.41699803  0.57146869  1
  Te  Te158  1  0.25066183  0.42307429  0.94790303  1
  Te  Te159  1  0.28442528  0.79589724  0.21033095  1
  Te  Te160  1  0.22916540  0.74896121  0.56469180  1
  Te  Te161  1  0.24790569  0.77937927  0.91550793  1
  Te  Te162  1  0.57935620  0.06574584  0.24188376  1
  Te  Te163  1  0.60979922  0.09924168  0.55775889  1
  Te  Te164  1  0.59196010  0.07995193  0.91797104  1
  Te  Te165  1  0.62174747  0.40158529  0.27469354  1
  Te  Te166  1  0.59187350  0.41929941  0.58679138  1
  Te  Te167  1  0.58052039  0.41769924  0.93311223  1
  Te  Te168  1  0.59695072  0.74672336  0.26703172  1
  Te  Te169  1  0.59615493  0.75182693  0.58471553  1
  Te  Te170  1  0.60089938  0.73256801  0.92525226  1
  Te  Te171  1  0.91854255  0.08060283  0.25896204  1
  Te  Te172  1  0.94264813  0.07065084  0.57775273  1
  Te  Te173  1  0.89129415  0.06856505  0.89389575  1
  Te  Te174  1  0.89424112  0.36160429  0.27436985  1
  Te  Te175  1  0.90161534  0.45301073  0.59204871  1
  Te  Te176  1  0.91439467  0.43035238  0.94381700  1
  Te  Te177  1  0.93365426  0.71764755  0.29024021  1
  Te  Te178  1  0.91221614  0.72987902  0.57136436  1
  Te  Te179  1  0.92719658  0.74014115  0.92181990  1
