# generated using pymatgen
data_In2Te3
_symmetry_space_group_name_H-M   'P 1'
_cell_length_a   18.90036551
_cell_length_b   18.90018170
_cell_length_c   18.89140572
_cell_angle_alpha   90.06395266
_cell_angle_beta   90.12998998
_cell_angle_gamma   89.97634826
_symmetry_Int_Tables_number   1
_chemical_formula_structural   In2Te3
_chemical_formula_sum   'In72 Te108'
_cell_volume   6748.37227840
_cell_formula_units_Z   36
loop_
 _symmetry_equiv_pos_site_id
 _symmetry_equiv_pos_as_xyz
  1  'x, y, z'
loop_
 _atom_site_type_symbol
 _atom_site_label
 _atom_site_symmetry_multiplicity
 _atom_site_fract_x
 _atom_site_fract_y
 _atom_site_fract_z
 _atom_site_occupancy
  In  In0  1  0.16406494  -0.03125556  0.81921537  1
  In  In1  1  0.82767659  0.83307515  -0.00016818  1
  In  In2  1  0.83457800  0.46954746  0.33474285  1
  In  In3  1  0.32377811  0.00337062  0.34393374  1
  In  In4  1  0.35737232  0.33995005  0.01463675  1
  In  In5  1  0.34771587  0.17142385  0.48413936  1
  In  In6  1  0.64095076  0.15419644  0.21078373  1
  In  In7  1  0.84309529  0.65284781  0.50988801  1
  In  In8  1  0.37337566  0.14964204  0.17303552  1
  In  In9  1  0.82143326  0.14932668  0.67496894  1
  In  In10  1  -0.01237890  0.53751683  0.81728515  1
  In  In11  1  0.82177217  0.16470141  0.33097625  1
  In  In12  1  0.37319540  -0.00455586  -0.01282539  1
  In  In13  1  0.33956457  0.67395534  -0.00809515  1
  In  In14  1  0.01895303  0.17919963  0.49179296  1
  In  In15  1  0.16973691  0.51414407  -0.03184720  1
  In  In16  1  -0.01903177  -0.02068226  0.66910402  1
  In  In17  1  0.67466504  0.13947648  0.82362162  1
  In  In18  1  0.53014327  -0.05388655  0.82256509  1
  In  In19  1  0.52648302  -0.02454243  0.51809280  1
  In  In20  1  0.48936705  0.66681986  0.50576123  1
  In  In21  1  0.67230592  0.66461477  -0.00274567  1
  In  In22  1  0.69438379  0.51262433  0.51143491  1
  In  In23  1  0.83083017  0.82010759  0.67457129  1
  In  In24  1  -0.01117995  0.15364982  0.83126722  1
  In  In25  1  0.34697036  0.51960184  0.81022690  1
  In  In26  1  0.82116087  0.68635761  0.83733144  1
  In  In27  1  0.33246811  0.49500586  0.17096616  1
  In  In28  1  -0.02241261  0.14287294  0.16590570  1
  In  In29  1  0.16422183  0.00732735  0.19022763  1
  In  In30  1  0.63543609  0.17211904  0.48573772  1
  In  In31  1  0.34032481  0.82512197  0.15288112  1
  In  In32  1  0.68406551  0.85607525  0.18925704  1
  In  In33  1  0.13695452  0.67007162  0.18139654  1
  In  In34  1  0.00073766  0.32166613  0.00628691  1
  In  In35  1  -0.00819197  -0.01246820  0.02382130  1
  In  In36  1  0.67270694  0.81446855  0.52078682  1
  In  In37  1  0.49678571  0.83022665  0.34032535  1
  In  In38  1  0.33869816  -0.01810486  0.66843349  1
  In  In39  1  0.67844733  0.51432418  0.15040520  1
  In  In40  1  0.34189687  0.17594920  0.83728056  1
  In  In41  1  0.20141328  0.18664937  -0.00152526  1
  In  In42  1  0.13543351  0.18277079  0.61953712  1
  In  In43  1  0.31262193  0.65625779  0.34829630  1
  In  In44  1  0.66584948  0.35227411  0.66228927  1
  In  In45  1  0.82477142  0.14897006  0.01194965  1
  In  In46  1  0.33156137  0.34022007  0.66353888  1
  In  In47  1  0.15870475  0.67044022  0.51677922  1
  In  In48  1  0.15330972  0.33654729  0.19341830  1
  In  In49  1  0.48705158  0.33138167  0.84051395  1
  In  In50  1  0.84334153  -0.01255601  0.46869784  1
  In  In51  1  0.14484235  0.18620478  0.37747926  1
  In  In52  1  -0.01013309  0.51317605  0.19036420  1
  In  In53  1  0.33298652  0.35293406  0.31308463  1
  In  In54  1  0.66718579  -0.01773590  0.01255365  1
  In  In55  1  0.16703607  0.35531540  0.80363137  1
  In  In56  1  0.67021054  0.51338042  0.82176865  1
  In  In57  1  0.15252021  0.50250981  0.66031238  1
  In  In58  1  0.49184640  0.16770486  0.64855433  1
  In  In59  1  0.85041201  0.33995137  0.83127000  1
  In  In60  1  0.51442747  0.32838557  0.17543501  1
  In  In61  1  0.14598572  0.00472267  0.50569032  1
  In  In62  1  0.84704627  0.35168899  0.51922584  1
  In  In63  1  0.67131943  0.68401490  0.32121318  1
  In  In64  1  0.17693648  0.82447668  0.02276736  1
  In  In65  1  0.12642042  0.70802711  0.80782454  1
  In  In66  1  0.87778145  0.69435298  0.19226536  1
  In  In67  1  0.49610733  0.50591075  0.31323661  1
  In  In68  1  0.67798716  0.34717800  0.01411130  1
  In  In69  1  0.13837938  0.85291522  0.33634364  1
  In  In70  1  0.51770183  0.67030605  0.82792625  1
  In  In71  1  0.34467935  0.67469708  0.67051805  1
  Te  Te72  1  0.09172456  0.10151913  0.07062932  1
  Te  Te73  1  0.05894452  0.06061898  0.39598715  1
  Te  Te74  1  0.08601672  0.07888674  0.73927362  1
  Te  Te75  1  0.10862356  0.41221499  0.06680106  1
  Te  Te76  1  0.10089130  0.33267013  0.41958612  1
  Te  Te77  1  0.04881100  0.41939426  0.73797400  1
  Te  Te78  1  0.06298858  0.76908399  0.09985931  1
  Te  Te79  1  0.07077755  0.74309952  0.41296566  1
  Te  Te80  1  0.02942235  0.76424568  0.71016824  1
  Te  Te81  1  0.46337356  0.06337491  0.08935932  1
  Te  Te82  1  0.43628780  0.06358073  0.42665641  1
  Te  Te83  1  0.42562215  0.07958057  0.75373883  1
  Te  Te84  1  0.44715747  0.43547397  0.08892454  1
  Te  Te85  1  0.40669909  0.43840404  0.40663886  1
  Te  Te86  1  0.43771521  0.42646818  0.73255897  1
  Te  Te87  1  0.43203663  0.77266646  0.05166778  1
  Te  Te88  1  0.39594508  0.75833616  0.42690129  1
  Te  Te89  1  0.40374650  0.75499170  0.78054775  1
  Te  Te90  1  0.73514124  0.07808421  0.10823785  1
  Te  Te91  1  0.72933381  0.07540246  0.41367647  1
  Te  Te92  1  0.76502122  0.04384992  0.75924368  1
  Te  Te93  1  0.77720307  0.42874893  0.08195801  1
  Te  Te94  1  0.73690257  0.39478881  0.42263580  1
  Te  Te95  1  0.77186350  0.43049628  0.73786260  1
  Te  Te96  1  0.75445324  0.74068972  0.10501367  1
  Te  Te97  1  0.76499904  0.75096379  0.41814744  1
  Te  Te98  1  0.71638662  0.77221670  0.76441823  1
  Te  Te99  1  0.06049865  0.23538980  0.25498340  1
  Te  Te100  1  0.06854908  0.30871277  0.56623523  1
  Te  Te101  1  0.09113183  0.25118745  0.89866289  1
  Te  Te102  1  0.08548724  0.57770456  0.28320996  1
  Te  Te103  1  0.05591557  0.57697055  0.57618858  1
  Te  Te104  1  0.07030703  0.61559990  0.92055165  1
  Te  Te105  1  0.06407347  0.90262136  0.21632719  1
  Te  Te106  1  0.05958412  0.90489422  0.56966220  1
  Te  Te107  1  0.08289683  0.90734579  0.93044163  1
  Te  Te108  1  0.43943298  0.23899370  0.28159200  1
  Te  Te109  1  0.42977219  0.27419450  0.56311120  1
  Te  Te110  1  0.43568240  0.23022528  0.94391805  1
  Te  Te111  1  0.40871837  0.60770179  0.23964902  1
  Te  Te112  1  0.40302704  0.57437158  0.58130858  1
  Te  Te113  1  0.43018624  0.57513399  0.92145172  1
  Te  Te114  1  0.41240617  0.92170906  0.24960807  1
  Te  Te115  1  0.42286529  0.89513808  0.58484573  1
  Te  Te116  1  0.40250799  0.89619299  0.88132465  1
  Te  Te117  1  0.74016947  0.25486978  0.24816898  1
  Te  Te118  1  0.74391691  0.24388232  0.58350093  1
  Te  Te119  1  0.75846328  0.24371169  0.90563894  1
  Te  Te120  1  0.77305355  0.59048108  0.25743220  1
  Te  Te121  1  0.73533502  0.61806998  0.60536039  1
  Te  Te122  1  0.76677302  0.57138239  0.92376301  1
  Te  Te123  1  0.80364121  0.90949563  0.26086550  1
  Te  Te124  1  0.76373985  0.92137551  0.58056020  1
  Te  Te125  1  0.73695153  0.90528762  0.90731095  1
  Te  Te126  1  0.27353381  0.26431704  0.11659743  1
  Te  Te127  1  0.25351036  0.28140722  0.43122402  1
  Te  Te128  1  0.24466551  0.23525242  0.73542245  1
  Te  Te129  1  0.24138948  0.59071302  0.08371834  1
  Te  Te130  1  0.24475901  0.57120742  0.44643712  1
  Te  Te131  1  0.22352140  0.59306626  0.76203256  1
  Te  Te132  1  0.25789603  0.94728907  0.08517431  1
  Te  Te133  1  0.24283223  0.91121270  0.43227292  1
  Te  Te134  1  0.22799017  0.88980782  0.71181091  1
  Te  Te135  1  0.59727427  0.24151545  0.08385691  1
  Te  Te136  1  0.55625896  0.24111636  0.38672844  1
  Te  Te137  1  0.58238293  0.24957793  0.75274982  1
  Te  Te138  1  0.57560289  0.59088480  0.08036381  1
  Te  Te139  1  0.58847659  0.59396912  0.41156066  1
  Te  Te140  1  0.58718891  0.58776517  0.72685685  1
  Te  Te141  1  0.58141698  0.88728813  0.08701477  1
  Te  Te142  1  0.60895531  0.90340854  0.41082604  1
  Te  Te143  1  0.59585249  0.86841345  0.71585816  1
  Te  Te144  1  0.89848636  0.25337903  0.09476057  1
  Te  Te145  1  0.90821304  0.25569280  0.41790235  1
  Te  Te146  1  0.92294547  0.24791988  0.73171241  1
  Te  Te147  1  0.92816945  0.59990072  0.09085567  1
  Te  Te148  1  0.92155272  0.55775834  0.42320189  1
  Te  Te149  1  0.88763523  0.60387901  0.73325389  1
  Te  Te150  1  0.88521100  0.92437742  0.10447370  1
  Te  Te151  1  0.90510189  0.88574705  0.37688928  1
  Te  Te152  1  0.93739638  0.87779759  0.77202594  1
  Te  Te153  1  0.25011487  0.11207416  0.26838204  1
  Te  Te154  1  0.25875814  0.08807914  0.57830171  1
  Te  Te155  1  0.25262744  0.06930762  0.90396076  1
  Te  Te156  1  0.22312826  0.45032032  0.26700628  1
  Te  Te157  1  0.25107206  0.42883704  0.57822613  1
  Te  Te158  1  0.27354991  0.40789998  0.90689292  1
  Te  Te159  1  0.24300021  0.76475624  0.25336784  1
  Te  Te160  1  0.24382040  0.76046958  0.60243365  1
  Te  Te161  1  0.23842096  0.74983711  0.90700997  1
  Te  Te162  1  0.53977103  0.04887950  0.22326252  1
  Te  Te163  1  0.60221146  0.07535495  0.60421666  1
  Te  Te164  1  0.57792401  0.06214267  0.90837034  1
  Te  Te165  1  0.60665220  0.42283180  0.25108757  1
  Te  Te166  1  0.58787209  0.42302124  0.56117905  1
  Te  Te167  1  0.58923187  0.41801738  0.91293394  1
  Te  Te168  1  0.57080283  0.75342785  0.23307973  1
  Te  Te169  1  0.55686818  0.76301505  0.60266284  1
  Te  Te170  1  0.60969420  0.76192786  0.90319138  1
  Te  Te171  1  0.89307972  0.05793881  0.25227043  1
  Te  Te172  1  0.91798918  0.08579262  0.56949973  1
  Te  Te173  1  0.90637466  0.06141033  0.91732199  1
  Te  Te174  1  0.93501135  0.39526267  0.25685995  1
  Te  Te175  1  0.91065473  0.48219639  0.55646069  1
  Te  Te176  1  0.93630773  0.42801682  0.91952563  1
  Te  Te177  1  0.94846683  0.74513151  0.31228661  1
  Te  Te178  1  0.92874166  0.75558360  0.58136573  1
  Te  Te179  1  0.92426921  0.76235481  0.91301494  1
