# generated using pymatgen
data_In2Te3
_symmetry_space_group_name_H-M   'P 1'
_cell_length_a   18.81448507
_cell_length_b   18.81416668
_cell_length_c   18.80838491
_cell_angle_alpha   89.94119747
_cell_angle_beta   89.90202573
_cell_angle_gamma   89.99855764
_symmetry_Int_Tables_number   1
_chemical_formula_structural   In2Te3
_chemical_formula_sum   'In72 Te108'
_cell_volume   6657.75737103
_cell_formula_units_Z   36
loop_
 _symmetry_equiv_pos_site_id
 _symmetry_equiv_pos_as_xyz
  1  'x, y, z'
loop_
 _atom_site_type_symbol
 _atom_site_label
 _atom_site_symmetry_multiplicity
 _atom_site_fract_x
 _atom_site_fract_y
 _atom_site_fract_z
 _atom_site_occupancy
  In  In0  1  0.66736068  0.83891791  0.16721903  1
  In  In1  1  0.47922102  0.01295542  0.16969361  1
  In  In2  1  0.02135005  0.48140766  0.81887168  1
  In  In3  1  0.15448356  0.65156145  0.81711466  1
  In  In4  1  0.64453496  0.67330812  0.63370279  1
  In  In5  1  0.31697147  -0.01438690  0.33498314  1
  In  In6  1  0.19793929  0.81220830  0.33200534  1
  In  In7  1  0.34998316  0.17682239  0.50117503  1
  In  In8  1  0.20405001  -0.03754130  0.15029718  1
  In  In9  1  0.35874025  0.35237690  0.35064297  1
  In  In10  1  0.17014631  0.16817260  0.00722963  1
  In  In11  1  0.32466988  0.33578580  0.67519980  1
  In  In12  1  0.01670207  0.82129930  0.47807651  1
  In  In13  1  0.03475751  0.66850374  0.30077059  1
  In  In14  1  0.65607403  0.50157457  0.50728332  1
  In  In15  1  0.18727444  -0.00452499  0.85991865  1
  In  In16  1  0.37306865  -0.00450447  0.63827832  1
  In  In17  1  0.00788639  0.48923314  0.51756852  1
  In  In18  1  0.15847095  0.33630416  0.49625760  1
  In  In19  1  0.83285691  0.32071205  0.17638423  1
  In  In20  1  0.46701117  0.00220180  0.83705064  1
  In  In21  1  0.19444097  0.51429599  0.63691561  1
  In  In22  1  0.00712618  0.18927737  0.16685313  1
  In  In23  1  0.50238723  0.83994057  0.34984992  1
  In  In24  1  0.00962809  0.01159906  0.34916695  1
  In  In25  1  0.82736405  0.33080924  0.83563679  1
  In  In26  1  0.48647857  0.67689503  0.81743384  1
  In  In27  1  0.83796718  0.50413635  0.32190392  1
  In  In28  1  0.18380092  0.81866890  0.65016314  1
  In  In29  1  0.48773186  0.15819152  0.00228438  1
  In  In30  1  0.00715448  -0.02781451  0.67009585  1
  In  In31  1  0.85284531  0.66080107  0.83719338  1
  In  In32  1  0.84340073  0.85401682  0.67380906  1
  In  In33  1  0.18983257  0.16705457  0.66833198  1
  In  In34  1  0.80883125  0.83621269  0.32959657  1
  In  In35  1  0.65952466  0.48706013  0.17831932  1
  In  In36  1  0.84008531  0.82085428  -0.01113023  1
  In  In37  1  0.32973924  0.49558408  0.17127330  1
  In  In38  1  0.47980785  0.32336774  0.16049851  1
  In  In39  1  0.62122914  0.01300947  0.65905891  1
  In  In40  1  0.18955114  0.50689278  0.02308180  1
  In  In41  1  0.66110747  0.82812744  0.82685019  1
  In  In42  1  0.82906913  0.49791254  0.69203082  1
  In  In43  1  0.01909489  0.35437474  0.00897450  1
  In  In44  1  -0.00188077  0.15554646  0.84911889  1
  In  In45  1  0.66438559  0.00965871  0.02365242  1
  In  In46  1  0.64467862  0.33885742  0.33877000  1
  In  In47  1  -0.00285859  0.35067506  0.68298856  1
  In  In48  1  0.33494970  0.31585568  0.00258723  1
  In  In49  1  0.00837803  -0.01153864  -0.00892162  1
  In  In50  1  0.02438114  0.81553279  0.16601824  1
  In  In51  1  0.65478668  0.67139677  -0.00976679  1
  In  In52  1  0.50410446  0.50654925  0.66060649  1
  In  In53  1  0.80959057  0.01477331  0.51187849  1
  In  In54  1  0.33300546  0.66711086  -0.00078509  1
  In  In55  1  0.00027448  0.15222984  0.48204779  1
  In  In56  1  0.81485399  -0.00593144  0.18087623  1
  In  In57  1  0.01952847  0.34674163  0.34386259  1
  In  In58  1  0.79603869  0.18949785  0.62800385  1
  In  In59  1  0.84291936  0.68991778  0.47998017  1
  In  In60  1  0.81534027  0.16518188  0.35939147  1
  In  In61  1  0.47694029  0.68021591  0.49482280  1
  In  In62  1  0.63592267  0.19401435  0.80902173  1
  In  In63  1  0.66473586  0.64388039  0.35065684  1
  In  In64  1  0.86777964  0.53481190  0.03768416  1
  In  In65  1  0.66362627  0.46775632  0.84435208  1
  In  In66  1  0.50215184  0.18085521  0.32663332  1
  In  In67  1  0.33747468  0.83668276  0.83047244  1
  In  In68  1  0.47461356  0.66208932  0.16318901  1
  In  In69  1  0.32502108  0.50801773  0.83828956  1
  In  In70  1  0.84362225  0.01043116  0.81617332  1
  In  In71  1  0.65607489  0.32357380  0.00391518  1
  Te  Te72  1  0.08168277  0.06964762  0.09728335  1
  Te  Te73  1  0.11501395  0.09393404  0.41060418  1
  Te  Te74  1  0.08658911  0.07409651  0.75477998  1
  Te  Te75  1  0.10422997  0.41919021  0.11233251  1
  Te  Te76  1  0.10983628  0.45387584  0.40868690  1
  Te  Te77  1  0.12573834  0.41193420  0.73420527  1
  Te  Te78  1  0.08848592  0.72190626  0.07367909  1
  Te  Te79  1  0.11009200  0.71552692  0.42236625  1
  Te  Te80  1  0.08373638  0.75359144  0.73619897  1
  Te  Te81  1  0.38493609  0.08984940  0.08381296  1
  Te  Te82  1  0.41616848  0.07902934  0.40578857  1
  Te  Te83  1  0.42486864  0.09875030  0.73215086  1
  Te  Te84  1  0.41839403  0.42856865  0.06925724  1
  Te  Te85  1  0.46397655  0.42513026  0.42292348  1
  Te  Te86  1  0.42158152  0.42188251  0.75726136  1
  Te  Te87  1  0.40902251  0.76815192  0.08027575  1
  Te  Te88  1  0.38794821  0.74557272  0.39056232  1
  Te  Te89  1  0.41232085  0.76347634  0.72520137  1
  Te  Te90  1  0.75539540  0.09849303  0.09575357  1
  Te  Te91  1  0.70617363  0.08850273  0.42982483  1
  Te  Te92  1  0.73890848  0.08681847  0.73657484  1
  Te  Te93  1  0.75415814  0.41744486  0.07853648  1
  Te  Te94  1  0.74912777  0.42139592  0.41354583  1
  Te  Te95  1  0.73100253  0.38779745  0.73240276  1
  Te  Te96  1  0.75294678  0.74047862  0.08509119  1
  Te  Te97  1  0.71835735  0.76340675  0.43068763  1
  Te  Te98  1  0.75731357  0.74180005  0.74498708  1
  Te  Te99  1  0.09660775  0.24722630  0.26696508  1
  Te  Te100  1  0.07426615  0.24708889  0.59039352  1
  Te  Te101  1  0.08847763  0.25985137  0.90939532  1
  Te  Te102  1  0.07326779  0.55882074  0.21124356  1
  Te  Te103  1  0.08169856  0.59568594  0.58790843  1
  Te  Te104  1  0.08663793  0.56818868  0.92524650  1
  Te  Te105  1  0.09079766  0.90880448  0.26712072  1
  Te  Te106  1  0.09611521  0.92157312  0.55999825  1
  Te  Te107  1  0.10588497  0.89631346  0.93227174  1
  Te  Te108  1  0.38773911  0.23988714  0.24521729  1
  Te  Te109  1  0.42877925  0.24123110  0.61326048  1
  Te  Te110  1  0.43186211  0.25573067  0.90599651  1
  Te  Te111  1  0.38825077  0.59645925  0.26700219  1
  Te  Te112  1  0.39994406  0.58390436  0.58703093  1
  Te  Te113  1  0.43156800  0.57950361  0.92142472  1
  Te  Te114  1  0.40838071  0.90021460  0.24555824  1
  Te  Te115  1  0.43656459  0.90014464  0.54360008  1
  Te  Te116  1  0.38964335  0.92547059  0.94116122  1
  Te  Te117  1  0.73076690  0.24195276  0.25666018  1
  Te  Te118  1  0.69940896  0.24449934  0.53358915  1
  Te  Te119  1  0.74131863  0.23336300  0.91425613  1
  Te  Te120  1  0.75391529  0.59504302  0.23463507  1
  Te  Te121  1  0.76745952  0.58925362  0.57760318  1
  Te  Te122  1  0.75146220  0.57527230  0.91713269  1
  Te  Te123  1  0.70877810  0.93903800  0.27683237  1
  Te  Te124  1  0.73004384  0.91545544  0.59587220  1
  Te  Te125  1  0.74869215  0.92018124  0.91342464  1
  Te  Te126  1  0.23305086  0.26632402  0.09758945  1
  Te  Te127  1  0.25248875  0.25111041  0.41260863  1
  Te  Te128  1  0.25672792  0.24537428  0.77157367  1
  Te  Te129  1  0.23346333  0.62815846  0.11408186  1
  Te  Te130  1  0.30616782  0.62578006  0.46837440  1
  Te  Te131  1  0.27298468  0.60484426  0.73324324  1
  Te  Te132  1  0.28315447  0.88003023  0.06002150  1
  Te  Te133  1  0.25707022  0.89630180  0.44044656  1
  Te  Te134  1  0.25732328  0.93370181  0.73370862  1
  Te  Te135  1  0.58298378  0.23006356  0.09901914  1
  Te  Te136  1  0.56775237  0.25843383  0.44060138  1
  Te  Te137  1  0.56360251  0.24880973  0.69457173  1
  Te  Te138  1  0.57840770  0.57645014  0.08279161  1
  Te  Te139  1  0.54753170  0.56256152  0.41432378  1
  Te  Te140  1  0.60323721  0.58621629  0.75530123  1
  Te  Te141  1  0.56592531  0.91147787  0.08113958  1
  Te  Te142  1  0.55122241  0.93896748  0.45076826  1
  Te  Te143  1  0.55704404  0.90919109  0.75094932  1
  Te  Te144  1  0.91515577  0.25528399  0.06485659  1
  Te  Te145  1  0.91266874  0.26226014  0.42217528  1
  Te  Te146  1  0.91173321  0.23614910  0.74903156  1
  Te  Te147  1  0.97345659  0.61770443  0.10425750  1
  Te  Te148  1  0.93023539  0.58475603  0.41137686  1
  Te  Te149  1  0.94313749  0.58658677  0.73765579  1
  Te  Te150  1  0.91260652  0.91117056  0.09648177  1
  Te  Te151  1  0.90236119  0.92158391  0.42532852  1
  Te  Te152  1  0.93977582  0.89711048  0.78538537  1
  Te  Te153  1  0.24490133  0.07229541  0.23709294  1
  Te  Te154  1  0.25729751  0.07553254  0.57008137  1
  Te  Te155  1  0.27289112  0.09383688  0.92844146  1
  Te  Te156  1  0.25332766  0.42627356  0.27641566  1
  Te  Te157  1  0.27602948  0.41496678  0.55366339  1
  Te  Te158  1  0.24291999  0.40962273  0.91874978  1
  Te  Te159  1  0.26275778  0.71157570  0.24427627  1
  Te  Te160  1  0.27335693  0.75430875  0.55130191  1
  Te  Te161  1  0.24161577  0.74409567  0.90477103  1
  Te  Te162  1  0.58148775  0.07974106  0.25271434  1
  Te  Te163  1  0.58386771  0.08069630  0.53334765  1
  Te  Te164  1  0.58874169  0.07488596  0.90516272  1
  Te  Te165  1  0.54550719  0.42377173  0.25772964  1
  Te  Te166  1  0.58602874  0.40162809  0.59333339  1
  Te  Te167  1  0.55911095  0.38847785  0.91180655  1
  Te  Te168  1  0.58497829  0.73840184  0.25287081  1
  Te  Te169  1  0.55131114  0.77737190  0.58439887  1
  Te  Te170  1  0.55801129  0.76663261  0.92149870  1
  Te  Te171  1  0.91349349  0.09205839  0.25981202  1
  Te  Te172  1  0.92036343  0.07857257  0.59745613  1
  Te  Te173  1  0.89894311  0.08249799  0.93878838  1
  Te  Te174  1  0.93073588  0.41821645  0.23804923  1
  Te  Te175  1  0.89621696  0.40827821  0.58411915  1
  Te  Te176  1  0.91224207  0.42830838  0.91542117  1
  Te  Te177  1  0.91144408  0.75393389  0.25750881  1
  Te  Te178  1  0.92722370  0.75816056  0.58674438  1
  Te  Te179  1  0.94206602  0.73433967  0.92777181  1
