# generated using pymatgen
data_In2Te3
_symmetry_space_group_name_H-M   'P 1'
_cell_length_a   18.80858505
_cell_length_b   18.80645769
_cell_length_c   18.80307427
_cell_angle_alpha   89.95550357
_cell_angle_beta   89.89899534
_cell_angle_gamma   89.93227772
_symmetry_Int_Tables_number   1
_chemical_formula_structural   In2Te3
_chemical_formula_sum   'In72 Te108'
_cell_volume   6651.06021131
_cell_formula_units_Z   36
loop_
 _symmetry_equiv_pos_site_id
 _symmetry_equiv_pos_as_xyz
  1  'x, y, z'
loop_
 _atom_site_type_symbol
 _atom_site_label
 _atom_site_symmetry_multiplicity
 _atom_site_fract_x
 _atom_site_fract_y
 _atom_site_fract_z
 _atom_site_occupancy
  In  In0  1  -0.00994527  -0.01148007  -0.00496744  1
  In  In1  1  0.84911219  0.33681168  0.84570914  1
  In  In2  1  0.17014743  0.50461814  0.01917653  1
  In  In3  1  0.51865882  0.50553677  0.33281447  1
  In  In4  1  0.17490734  0.48588840  0.33316723  1
  In  In5  1  0.49801066  -0.01562047  0.50710191  1
  In  In6  1  0.01074726  0.32340416  0.67907406  1
  In  In7  1  0.83284862  0.16785959  0.33696765  1
  In  In8  1  0.50960106  0.01327490  0.80097687  1
  In  In9  1  0.32894495  0.14684325  0.17756840  1
  In  In10  1  0.67416231  0.49764199  0.17208846  1
  In  In11  1  0.49476487  0.49213895  0.66311777  1
  In  In12  1  0.33925578  0.50675477  0.50859640  1
  In  In13  1  0.64124256  0.48676931  0.50472662  1
  In  In14  1  0.64266037  0.67265403  0.65758572  1
  In  In15  1  0.16283544  0.18059969  -0.02187905  1
  In  In16  1  0.82584805  -0.00673812  0.14001704  1
  In  In17  1  0.02174349  0.00685389  0.34734884  1
  In  In18  1  0.83329229  0.66272588  0.82498380  1
  In  In19  1  0.52830506  0.20536587  0.02422190  1
  In  In20  1  0.32172055  -0.00335095  -0.01692050  1
  In  In21  1  0.18279943  0.32562257  0.51725150  1
  In  In22  1  0.16729181  0.13993258  0.66950160  1
  In  In23  1  0.50932481  0.32447850  0.82790990  1
  In  In24  1  0.84090553  0.48949677  0.69402413  1
  In  In25  1  0.83513836  0.85499446  -0.00596097  1
  In  In26  1  0.50839557  0.17190495  0.32758419  1
  In  In27  1  0.67748557  0.34396179  0.33572695  1
  In  In28  1  0.50250847  0.66324434  0.16847164  1
  In  In29  1  0.66807976  -0.00610630  0.66782102  1
  In  In30  1  0.32995103  0.85117733  0.49139244  1
  In  In31  1  -0.01810309  0.70205393  0.29388687  1
  In  In32  1  0.32356801  0.16444133  0.52321245  1
  In  In33  1  0.67059932  0.66395266  0.35146600  1
  In  In34  1  0.65786300  0.48334736  0.84780399  1
  In  In35  1  0.84743982  0.49911054  0.30649918  1
  In  In36  1  0.66661938  -0.00634025  -0.00395224  1
  In  In37  1  0.15303005  0.34219392  0.15758092  1
  In  In38  1  0.34536667  0.33348469  0.66549100  1
  In  In39  1  0.33820791  0.85016170  0.16616801  1
  In  In40  1  -0.00018306  0.84665985  0.49148787  1
  In  In41  1  0.31680750  -0.01167886  0.33721978  1
  In  In42  1  0.67503269  0.83180365  0.17312999  1
  In  In43  1  0.67668927  0.16642387  0.81900116  1
  In  In44  1  0.15408715  0.69251757  0.52428996  1
  In  In45  1  -0.00730385  0.65578555  0.69314714  1
  In  In46  1  0.00593274  0.49747827  0.49164735  1
  In  In47  1  0.17706146  0.66781811  0.16017013  1
  In  In48  1  0.65595904  0.83083979  0.50171579  1
  In  In49  1  0.17111126  -0.01908926  0.16629387  1
  In  In50  1  0.00598094  0.64849699  0.01074562  1
  In  In51  1  0.81061675  0.66796822  0.49186056  1
  In  In52  1  0.00731081  0.18212222  0.16932156  1
  In  In53  1  -0.01482063  0.02838158  0.63603176  1
  In  In54  1  0.02473368  0.83624857  0.81564293  1
  In  In55  1  0.84763655  0.29959814  0.48359011  1
  In  In56  1  0.82682518  0.15718673  -0.01736639  1
  In  In57  1  0.65446813  0.86391529  0.85571658  1
  In  In58  1  0.14800133  0.33626038  0.84215508  1
  In  In59  1  0.34206183  0.14529344  0.82633491  1
  In  In60  1  0.82826220  0.84146010  0.65679279  1
  In  In61  1  0.33934200  0.68503405  0.33937313  1
  In  In62  1  0.31333995  0.56169788  0.84047297  1
  In  In63  1  0.18001480  0.82932504  0.67571150  1
  In  In64  1  0.35776630  0.35865587  0.01927255  1
  In  In65  1  0.67620877  0.16369336  0.49459166  1
  In  In66  1  0.50360926  0.00988324  0.18239834  1
  In  In67  1  0.33588957  0.34277460  0.32717580  1
  In  In68  1  0.47584043  0.81279863  -0.01795651  1
  In  In69  1  0.83058497  0.34871145  0.16216982  1
  In  In70  1  0.66421707  0.65770370  0.00106493  1
  In  In71  1  -0.00343134  0.48656119  0.15919074  1
  Te  Te72  1  0.09064553  0.08265521  0.07976808  1
  Te  Te73  1  0.06208185  0.10343906  0.45078317  1
  Te  Te74  1  0.07025078  0.06555412  0.75223995  1
  Te  Te75  1  0.05822909  0.39363820  0.04650683  1
  Te  Te76  1  0.08686590  0.39334359  0.41631268  1
  Te  Te77  1  0.08921630  0.42956084  0.74431699  1
  Te  Te78  1  0.09004211  0.75097205  0.07514960  1
  Te  Te79  1  0.07875130  0.75036927  0.40319720  1
  Te  Te80  1  0.11243373  0.71302362  0.77207368  1
  Te  Te81  1  0.41892056  0.07763424  0.07396164  1
  Te  Te82  1  0.41241478  0.08592629  0.41084783  1
  Te  Te83  1  0.40034285  0.06694549  0.71410320  1
  Te  Te84  1  0.44606339  0.45878931  0.07755114  1
  Te  Te85  1  0.42823056  0.41679144  0.42304657  1
  Te  Te86  1  0.40508322  0.42690044  0.77038315  1
  Te  Te87  1  0.39464460  0.73300742  0.08308916  1
  Te  Te88  1  0.42964704  0.76278402  0.42366606  1
  Te  Te89  1  0.38811392  0.69470720  0.79310347  1
  Te  Te90  1  0.72884557  0.09875239  0.08547652  1
  Te  Te91  1  0.75484595  0.06868519  0.41334719  1
  Te  Te92  1  0.76984149  0.08220731  0.73512820  1
  Te  Te93  1  0.74794741  0.42512211  0.06701269  1
  Te  Te94  1  0.76256463  0.43641873  0.42426418  1
  Te  Te95  1  0.73622192  0.39679468  0.75011840  1
  Te  Te96  1  0.75897599  0.74818434  0.07571760  1
  Te  Te97  1  0.76454956  0.77486364  0.39780364  1
  Te  Te98  1  0.74061530  0.75982266  0.75206980  1
  Te  Te99  1  0.10282254  0.24867323  0.25986406  1
  Te  Te100  1  0.08021489  0.22946833  0.57868537  1
  Te  Te101  1  0.05114171  0.23888065  0.90000466  1
  Te  Te102  1  0.08002121  0.57753341  0.25257950  1
  Te  Te103  1  0.08315100  0.57646300  0.59462264  1
  Te  Te104  1  0.10224395  0.58603574  0.91682564  1
  Te  Te105  1  0.08337832  0.90599926  0.25780093  1
  Te  Te106  1  0.08742112  0.91826911  0.59183999  1
  Te  Te107  1  0.09220959  0.90518476  0.92715063  1
  Te  Te108  1  0.41985995  0.25521493  0.23319268  1
  Te  Te109  1  0.42790926  0.25488625  0.57339425  1
  Te  Te110  1  0.40726418  0.24197555  0.92417186  1
  Te  Te111  1  0.40861887  0.57780504  0.25533848  1
  Te  Te112  1  0.41868753  0.59756013  0.59182580  1
  Te  Te113  1  0.42670271  0.61268486  0.91796483  1
  Te  Te114  1  0.43042289  0.90930784  0.27052663  1
  Te  Te115  1  0.39736195  0.92807997  0.60209955  1
  Te  Te116  1  0.42061794  0.92237640  0.89272298  1
  Te  Te117  1  0.74430396  0.24675101  0.23992241  1
  Te  Te118  1  0.75956543  0.24551580  0.59124598  1
  Te  Te119  1  0.73384618  0.26140351  0.92207751  1
  Te  Te120  1  0.75841447  0.60414636  0.24099275  1
  Te  Te121  1  0.75111386  0.57747687  0.60116055  1
  Te  Te122  1  0.76094522  0.56984205  0.92236030  1
  Te  Te123  1  0.74425464  0.93600867  0.24962341  1
  Te  Te124  1  0.75812050  0.93236098  0.55999058  1
  Te  Te125  1  0.77150675  0.95160594  0.89291817  1
  Te  Te126  1  0.25583533  0.24735322  0.08045174  1
  Te  Te127  1  0.25455891  0.24412299  0.40979156  1
  Te  Te128  1  0.24860501  0.24908258  0.75171891  1
  Te  Te129  1  0.27430428  0.58769357  0.08234131  1
  Te  Te130  1  0.23629683  0.59296157  0.42341470  1
  Te  Te131  1  0.23924653  0.62639481  0.72980075  1
  Te  Te132  1  0.23891736  0.89337007  0.05817210  1
  Te  Te133  1  0.21831226  0.91787256  0.42084066  1
  Te  Te134  1  0.25356179  0.88843375  0.79014584  1
  Te  Te135  1  0.60040003  0.28049757  0.12392473  1
  Te  Te136  1  0.58270250  0.26466390  0.42407684  1
  Te  Te137  1  0.56771631  0.22435345  0.73743892  1
  Te  Te138  1  0.56564622  0.56302151  0.07047776  1
  Te  Te139  1  0.56499212  0.60197272  0.44280843  1
  Te  Te140  1  0.57867490  0.57925246  0.75901947  1
  Te  Te141  1  0.57071083  0.90344767  0.07586662  1
  Te  Te142  1  0.58605974  0.92111941  0.40783464  1
  Te  Te143  1  0.57173373  0.89196204  0.73122858  1
  Te  Te144  1  0.90932610  0.24912623  0.07517589  1
  Te  Te145  1  0.95268922  0.21245687  0.41974688  1
  Te  Te146  1  0.90621000  0.24110579  0.74578856  1
  Te  Te147  1  0.90336578  0.57271003  0.08480541  1
  Te  Te148  1  0.92200885  0.59595644  0.40811071  1
  Te  Te149  1  0.93674901  0.55313802  0.79327492  1
  Te  Te150  1  0.93933753  0.88764837  0.10960523  1
  Te  Te151  1  0.91091720  0.93921655  0.42101621  1
  Te  Te152  1  0.92527203  0.92274973  0.73848588  1
  Te  Te153  1  0.22247723  0.08731266  0.26593070  1
  Te  Te154  1  0.25182765  0.05117042  0.58488306  1
  Te  Te155  1  0.22477810  0.07082131  0.89115414  1
  Te  Te156  1  0.26274487  0.42813791  0.22313842  1
  Te  Te157  1  0.24540706  0.43341578  0.60425908  1
  Te  Te158  1  0.25599601  0.41452345  0.92128897  1
  Te  Te159  1  0.24396205  0.76794621  0.25500854  1
  Te  Te160  1  0.27823823  0.74268292  0.59462983  1
  Te  Te161  1  0.27737690  0.76558613  0.87070419  1
  Te  Te162  1  0.60495121  0.08223488  0.25916941  1
  Te  Te163  1  0.57933700  0.08691838  0.58637745  1
  Te  Te164  1  0.57328858  0.08904441  0.91802135  1
  Te  Te165  1  0.57188404  0.39825435  0.23338962  1
  Te  Te166  1  0.58809602  0.39277818  0.60275269  1
  Te  Te167  1  0.56214500  0.41038697  0.93642172  1
  Te  Te168  1  0.57918970  0.75217817  0.26338422  1
  Te  Te169  1  0.55175591  0.76000088  0.58186537  1
  Te  Te170  1  0.58146639  0.73655707  0.90127707  1
  Te  Te171  1  0.91751861  0.07868322  0.23519695  1
  Te  Te172  1  0.87222064  0.12596151  0.61665869  1
  Te  Te173  1  0.92793618  0.08486608  0.90228653  1
  Te  Te174  1  0.93938310  0.38709705  0.26425511  1
  Te  Te175  1  0.91297029  0.41254865  0.58037340  1
  Te  Te176  1  0.94691831  0.39871825  0.93520977  1
  Te  Te177  1  0.89146538  0.78087160  0.21308463  1
  Te  Te178  1  0.91986737  0.73772958  0.58486947  1
  Te  Te179  1  0.91915382  0.75816045  0.90802443  1
