# generated using pymatgen
data_In2Te3
_symmetry_space_group_name_H-M   'P 1'
_cell_length_a   18.91308454
_cell_length_b   18.91184265
_cell_length_c   18.90544504
_cell_angle_alpha   89.94864845
_cell_angle_beta   89.96573152
_cell_angle_gamma   89.99894042
_symmetry_Int_Tables_number   1
_chemical_formula_structural   In2Te3
_chemical_formula_sum   'In72 Te108'
_cell_volume   6762.11983039
_cell_formula_units_Z   36
loop_
 _symmetry_equiv_pos_site_id
 _symmetry_equiv_pos_as_xyz
  1  'x, y, z'
loop_
 _atom_site_type_symbol
 _atom_site_label
 _atom_site_symmetry_multiplicity
 _atom_site_fract_x
 _atom_site_fract_y
 _atom_site_fract_z
 _atom_site_occupancy
  In  In0  1  0.48737504  0.51973364  -0.00535482  1
  In  In1  1  0.84985000  0.36754145  0.82123429  1
  In  In2  1  0.18009843  0.47672829  0.33974357  1
  In  In3  1  0.51870875  0.50177616  0.34137809  1
  In  In4  1  0.51175660  0.67006778  0.16850571  1
  In  In5  1  0.03253336  0.14741669  0.81799817  1
  In  In6  1  0.49427274  -0.01728026  0.83036477  1
  In  In7  1  0.64205116  -0.01497251  -0.00761201  1
  In  In8  1  0.01396907  0.16143324  0.20424438  1
  In  In9  1  0.16572623  0.17803782  -0.00065568  1
  In  In10  1  0.31330228  0.81367640  0.16747988  1
  In  In11  1  0.81072567  0.35888142  0.16784697  1
  In  In12  1  0.83892617  0.82348980  0.31443499  1
  In  In13  1  0.65012023  0.18333663  0.51707715  1
  In  In14  1  -0.00786720  0.50386842  0.52288562  1
  In  In15  1  0.18006715  0.01247635  0.50560148  1
  In  In16  1  0.31704912  0.17299205  0.84187133  1
  In  In17  1  0.16493984  0.81988839  -0.01948013  1
  In  In18  1  0.47990127  0.30360431  0.19328543  1
  In  In19  1  0.79430330  0.81599955  0.01345226  1
  In  In20  1  0.83366196  0.18351161  0.64745408  1
  In  In21  1  0.15335422  0.52250810  0.65593143  1
  In  In22  1  0.00677963  0.69397295  0.36973613  1
  In  In23  1  0.00359538  0.66849490  -0.01112784  1
  In  In24  1  0.87780026  -0.00991071  0.81171618  1
  In  In25  1  0.31845488  0.33672086  -0.01162012  1
  In  In26  1  0.64973076  0.17860085  0.19006504  1
  In  In27  1  0.68231354  0.51510550  0.82986728  1
  In  In28  1  -0.01148496  0.32402522  0.33622635  1
  In  In29  1  0.16624087  -0.01001616  0.18891649  1
  In  In30  1  0.50377840  0.83988596  0.32500596  1
  In  In31  1  0.31330800  0.48501793  0.16647166  1
  In  In32  1  0.48514815  0.18802778  0.04690741  1
  In  In33  1  0.47811880  0.79498675  -0.07265426  1
  In  In34  1  0.02708281  -0.02697979  0.67407660  1
  In  In35  1  0.00777162  0.33905024  0.66404571  1
  In  In36  1  0.33550258  0.66800030  0.66887889  1
  In  In37  1  0.16065645  0.65426319  0.16273730  1
  In  In38  1  0.00051366  -0.02785893  0.00364695  1
  In  In39  1  0.48852486  0.02723685  0.16127182  1
  In  In40  1  0.14865500  0.49901791  -0.02335246  1
  In  In41  1  0.66906946  0.81420936  0.15674680  1
  In  In42  1  0.49657796  0.17891623  0.68471219  1
  In  In43  1  0.68278026  0.19385262  0.85340230  1
  In  In44  1  0.33296959  0.85395785  0.50995185  1
  In  In45  1  0.84179051  0.02435091  0.15756689  1
  In  In46  1  -0.00801080  0.16095608  0.47667286  1
  In  In47  1  0.65210386  0.83386030  0.49285404  1
  In  In48  1  0.01274813  -0.02122734  0.35862106  1
  In  In49  1  0.50325932  0.50230624  0.66592985  1
  In  In50  1  0.21173488  0.16572430  0.65085455  1
  In  In51  1  0.68261062  0.34763776  0.34078558  1
  In  In52  1  0.66515733  -0.02296384  0.36143094  1
  In  In53  1  0.32000867  0.65214332  0.35175651  1
  In  In54  1  0.81936619  0.00380976  0.51348994  1
  In  In55  1  0.84371450  0.68399154  0.51964127  1
  In  In56  1  0.67071033  0.51700385  0.50246119  1
  In  In57  1  0.47708248  0.33191946  0.49391965  1
  In  In58  1  -0.00203290  0.48024277  0.15062370  1
  In  In59  1  0.50982580  0.35039725  0.81872524  1
  In  In60  1  0.32042752  0.48786137  0.50702439  1
  In  In61  1  0.66467347  0.82327820  0.85066783  1
  In  In62  1  0.83534364  0.18477040  0.00518630  1
  In  In63  1  0.18837378  0.84401140  0.66076331  1
  In  In64  1  0.65753496  0.01878473  0.67903766  1
  In  In65  1  0.85337590  0.65500561  0.80826314  1
  In  In66  1  0.66100475  0.66868613  0.65648916  1
  In  In67  1  0.33588319  0.02828653  0.34076238  1
  In  In68  1  0.01299790  0.81732620  0.81415801  1
  In  In69  1  0.18639314  0.29971030  0.48276534  1
  In  In70  1  -0.01524200  0.33974439  -0.00929387  1
  In  In71  1  0.33500647  0.67671311  -0.04257137  1
  Te  Te72  1  0.07056720  0.07975925  0.08630589  1
  Te  Te73  1  0.10459289  0.09412137  0.40180953  1
  Te  Te74  1  0.12873980  0.06256178  0.73832414  1
  Te  Te75  1  0.09945607  0.39599004  0.07652376  1
  Te  Te76  1  0.07789585  0.40596402  0.43829770  1
  Te  Te77  1  0.06999972  0.44052506  0.75386919  1
  Te  Te78  1  0.07779235  0.75700996  0.08851862  1
  Te  Te79  1  0.08960311  0.78816392  0.44065968  1
  Te  Te80  1  0.09399282  0.73898860  0.71792707  1
  Te  Te81  1  0.39448987  0.07393853  0.05828648  1
  Te  Te82  1  0.41340530  0.13219476  0.41590894  1
  Te  Te83  1  0.40595580  0.07997667  0.75548286  1
  Te  Te84  1  0.42181635  0.41124623  0.08849560  1
  Te  Te85  1  0.40139254  0.42134445  0.39584847  1
  Te  Te86  1  0.40976884  0.39745550  0.71857035  1
  Te  Te87  1  0.41701091  0.74742682  0.07601528  1
  Te  Te88  1  0.40813852  0.75908837  0.41302219  1
  Te  Te89  1  0.41186883  0.76795580  0.75969102  1
  Te  Te90  1  0.73172475  0.09038753  0.07357399  1
  Te  Te91  1  0.73931781  0.09384365  0.42459958  1
  Te  Te92  1  0.76521634  0.09400973  0.75941968  1
  Te  Te93  1  0.77818780  0.46607912  0.07224093  1
  Te  Te94  1  0.75533359  0.46219022  0.39466481  1
  Te  Te95  1  0.74506377  0.42132669  0.73517035  1
  Te  Te96  1  0.76551057  0.70860169  0.11351180  1
  Te  Te97  1  0.75211846  0.74869669  0.41607297  1
  Te  Te98  1  0.74992321  0.75152888  0.74746630  1
  Te  Te99  1  0.10131944  0.26354781  0.26273650  1
  Te  Te100  1  0.08026804  0.22794362  0.58347007  1
  Te  Te101  1  0.08401427  0.26270312  0.90085220  1
  Te  Te102  1  0.08490138  0.55812407  0.25203386  1
  Te  Te103  1  0.04828688  0.62200900  0.60059467  1
  Te  Te104  1  0.09682996  0.60812269  0.89240766  1
  Te  Te105  1  0.06261504  0.90315613  0.24388804  1
  Te  Te106  1  0.08033024  0.89572503  0.55394404  1
  Te  Te107  1  0.09063441  0.92261174  0.89291036  1
  Te  Te108  1  0.40415699  0.20545599  0.27605602  1
  Te  Te109  1  0.40483784  0.27252025  0.61165010  1
  Te  Te110  1  0.43699399  0.25560728  0.91414482  1
  Te  Te111  1  0.40804804  0.58442812  0.24664086  1
  Te  Te112  1  0.41875976  0.58417467  0.56928338  1
  Te  Te113  1  0.41655651  0.58095327  0.88063338  1
  Te  Te114  1  0.40171553  0.91645245  0.24077213  1
  Te  Te115  1  0.39997533  0.87530047  0.64388154  1
  Te  Te116  1  0.40811611  0.92354851  0.93411985  1
  Te  Te117  1  0.76634327  0.24384822  0.25796540  1
  Te  Te118  1  0.75536848  0.27630213  0.56475997  1
  Te  Te119  1  0.76337504  0.29512912  0.93187139  1
  Te  Te120  1  0.72806207  0.55717621  0.17901221  1
  Te  Te121  1  0.76963949  0.57846100  0.60188926  1
  Te  Te122  1  0.75266418  0.61758498  0.91065915  1
  Te  Te123  1  0.74198869  0.92833258  0.23830153  1
  Te  Te124  1  0.73227142  0.91251457  0.59662604  1
  Te  Te125  1  0.76256996  0.93384247  0.90966570  1
  Te  Te126  1  0.26252650  0.24534944  0.08747257  1
  Te  Te127  1  0.29693487  0.23670845  0.40969851  1
  Te  Te128  1  0.23868882  0.26269582  0.75657562  1
  Te  Te129  1  0.25916938  0.58891928  0.06723623  1
  Te  Te130  1  0.21823289  0.58293681  0.44119193  1
  Te  Te131  1  0.26403428  0.56314629  0.74407253  1
  Te  Te132  1  0.23923258  0.90999188  0.07744912  1
  Te  Te133  1  0.24770180  0.92096050  0.40332742  1
  Te  Te134  1  0.29508468  0.87404526  0.76427560  1
  Te  Te135  1  0.60108084  0.27327272  0.08438221  1
  Te  Te136  1  0.57751491  0.25752893  0.40586678  1
  Te  Te137  1  0.60979684  0.26419636  0.74019151  1
  Te  Te138  1  0.59400032  0.56934560  0.09409251  1
  Te  Te139  1  0.57418954  0.60449390  0.42989684  1
  Te  Te140  1  0.57314023  0.59899899  0.75888834  1
  Te  Te141  1  0.56572890  0.90882670  0.09581293  1
  Te  Te142  1  0.54416376  0.93010856  0.44124230  1
  Te  Te143  1  0.58428068  0.89997807  0.74170366  1
  Te  Te144  1  0.92491375  0.25243958  0.10706478  1
  Te  Te145  1  0.89501373  0.26053424  0.43189759  1
  Te  Te146  1  0.91977375  0.23800048  0.76199718  1
  Te  Te147  1  0.91900250  0.57601690  0.06948390  1
  Te  Te148  1  0.91341662  0.58737954  0.42215737  1
  Te  Te149  1  0.95021460  0.54553883  0.78180501  1
  Te  Te150  1  0.89919110  0.90106781  0.09081018  1
  Te  Te151  1  0.89888137  0.90559345  0.42951061  1
  Te  Te152  1  0.90975613  0.88268289  0.71136736  1
  Te  Te153  1  0.25830141  0.09546662  0.23433854  1
  Te  Te154  1  0.29295274  0.06288300  0.58466943  1
  Te  Te155  1  0.23416233  0.07727181  0.91684182  1
  Te  Te156  1  0.24940697  0.38255842  0.25015166  1
  Te  Te157  1  0.22526926  0.40188755  0.58717207  1
  Te  Te158  1  0.25930175  0.43728787  0.90078590  1
  Te  Te159  1  0.22687404  0.74119017  0.26902232  1
  Te  Te160  1  0.24916420  0.73990446  0.56595898  1
  Te  Te161  1  0.23350435  0.74416936  0.87274304  1
  Te  Te162  1  0.58019753  0.07340050  0.27198983  1
  Te  Te163  1  0.55739204  0.08221615  0.58334660  1
  Te  Te164  1  0.58101645  0.09159981  0.90318924  1
  Te  Te165  1  0.58329578  0.40956582  0.24215701  1
  Te  Te166  1  0.58093063  0.41365535  0.57064448  1
  Te  Te167  1  0.58812926  0.43132110  0.91950627  1
  Te  Te168  1  0.60175177  0.73717119  0.27105590  1
  Te  Te169  1  0.56883748  0.73097697  0.55912558  1
  Te  Te170  1  0.60586530  0.72361846  0.94420764  1
  Te  Te171  1  0.91499337  0.07423072  0.27865663  1
  Te  Te172  1  0.93153910  0.06991124  0.59464500  1
  Te  Te173  1  0.92405912  0.08917984  0.92668408  1
  Te  Te174  1  0.90759526  0.42948602  0.26183942  1
  Te  Te175  1  0.90160784  0.41005444  0.59199342  1
  Te  Te176  1  0.93103644  0.45613971  0.91184919  1
  Te  Te177  1  0.92410925  0.72241022  0.25175851  1
  Te  Te178  1  0.94109931  0.72875167  0.62179636  1
  Te  Te179  1  0.90786123  0.76935968  0.91478567  1
