# generated using pymatgen
data_In2Te3
_symmetry_space_group_name_H-M   'P 1'
_cell_length_a   18.95747935
_cell_length_b   18.94866842
_cell_length_c   18.94871316
_cell_angle_alpha   90.05327586
_cell_angle_beta   89.87934151
_cell_angle_gamma   90.10908693
_symmetry_Int_Tables_number   1
_chemical_formula_structural   In2Te3
_chemical_formula_sum   'In72 Te108'
_cell_volume   6806.70726143
_cell_formula_units_Z   36
loop_
 _symmetry_equiv_pos_site_id
 _symmetry_equiv_pos_as_xyz
  1  'x, y, z'
loop_
 _atom_site_type_symbol
 _atom_site_label
 _atom_site_symmetry_multiplicity
 _atom_site_fract_x
 _atom_site_fract_y
 _atom_site_fract_z
 _atom_site_occupancy
  In  In0  1  0.69363383  0.33068038  -0.02414290  1
  In  In1  1  0.36262489  0.50189330  0.53782775  1
  In  In2  1  0.47806889  0.33176160  0.81605315  1
  In  In3  1  0.03733831  0.67646942  0.29377985  1
  In  In4  1  0.01809425  0.69901854  -0.00437619  1
  In  In5  1  0.33375034  0.82892986  0.12496008  1
  In  In6  1  0.32515556  0.14761907  0.50217904  1
  In  In7  1  0.01695974  0.17468468  0.50963405  1
  In  In8  1  0.83581500  0.01231550  0.47584813  1
  In  In9  1  0.31534679  -0.01777907  0.71120112  1
  In  In10  1  0.14780222  0.84730291  0.33276606  1
  In  In11  1  0.65861675  0.31930301  0.33858610  1
  In  In12  1  0.47380844  0.13880189  0.70032563  1
  In  In13  1  -0.01852291  0.00517108  0.30480810  1
  In  In14  1  0.68211884  0.85345482  0.85687906  1
  In  In15  1  0.17753578  0.51640682  -0.00177751  1
  In  In16  1  0.48758053  0.67975044  0.82620911  1
  In  In17  1  0.48818859  0.83285843  0.33989959  1
  In  In18  1  0.82968776  0.49314196  0.30759165  1
  In  In19  1  -0.01282660  0.32090179  0.31324056  1
  In  In20  1  0.49634753  0.53644894  -0.02360362  1
  In  In21  1  0.15229484  0.47862801  0.33348930  1
  In  In22  1  0.17177694  0.33511102  0.15689373  1
  In  In23  1  0.27548275  0.84977788  0.88818473  1
  In  In24  1  0.30156688  0.14536008  0.13239798  1
  In  In25  1  0.01217975  0.84761857  0.14473685  1
  In  In26  1  0.66716397  -0.01161491  0.65049803  1
  In  In27  1  -0.00967591  0.31104603  0.02161155  1
  In  In28  1  0.16775673  -0.00885732  0.50266174  1
  In  In29  1  0.64056390  -0.01561402  0.29519561  1
  In  In30  1  0.82103111  -0.00065796  0.13842081  1
  In  In31  1  0.85011840  0.33696907  0.47845652  1
  In  In32  1  0.31704561  0.83722703  0.52933732  1
  In  In33  1  0.50525465  -0.00367877  0.15835742  1
  In  In34  1  0.31744089  0.68725390  0.32434995  1
  In  In35  1  0.29818232  0.31588054  0.67251674  1
  In  In36  1  0.51886411  0.18873540  0.00865029  1
  In  In37  1  0.84237997  0.68745040  0.85802571  1
  In  In38  1  0.69281728  0.16528733  0.15413026  1
  In  In39  1  0.47485421  0.50282639  0.34104164  1
  In  In40  1  0.66591662  0.21145181  0.48455005  1
  In  In41  1  0.02147676  0.69197523  0.70982018  1
  In  In42  1  0.65829880  0.64957164  0.32171851  1
  In  In43  1  0.20100667  0.65496017  0.52416504  1
  In  In44  1  0.82402247  0.64712965  0.50892456  1
  In  In45  1  0.83548357  0.32504798  0.83900350  1
  In  In46  1  0.50224685  0.02801293  0.49841338  1
  In  In47  1  0.50111064  0.84411223  0.68871422  1
  In  In48  1  0.69029131  0.16707155  0.83922843  1
  In  In49  1  0.61569354  0.48786545  0.49790531  1
  In  In50  1  0.68479691  0.81860953  0.50727873  1
  In  In51  1  0.67245077  0.83175740  0.15217415  1
  In  In52  1  0.16249580  0.32263042  0.84448002  1
  In  In53  1  0.85924131  0.51901681  -0.01458675  1
  In  In54  1  0.61669008  0.51651494  0.80571366  1
  In  In55  1  0.68183727  0.49599637  0.14230531  1
  In  In56  1  0.18515572  0.16400459  0.32261018  1
  In  In57  1  0.63509570  0.66504604  0.70610293  1
  In  In58  1  0.87046249  0.12662776  0.67045405  1
  In  In59  1  0.19351469  0.51180152  0.69632456  1
  In  In60  1  0.83523105  0.52454374  0.67655483  1
  In  In61  1  0.02030747  0.32792555  0.66587755  1
  In  In62  1  0.01614522  0.51192724  0.49257387  1
  In  In63  1  0.68175742  0.67330175  -0.00749975  1
  In  In64  1  0.00196225  0.82394830  0.50895007  1
  In  In65  1  0.67917378  0.32900228  0.65115564  1
  In  In66  1  0.32425378  0.51275427  0.17172457  1
  In  In67  1  0.06286731  0.07496309  0.90669671  1
  In  In68  1  0.34312356  0.34009318  0.01863359  1
  In  In69  1  0.87211986  0.85057030  0.71397468  1
  In  In70  1  0.81422117  0.13959892  0.29774144  1
  In  In71  1  0.48790224  0.33342392  0.19626525  1
  Te  Te72  1  0.10533419  0.06348112  0.05330483  1
  Te  Te73  1  0.07803711  0.07217189  0.40594961  1
  Te  Te74  1  0.05429286  0.07326011  0.75617415  1
  Te  Te75  1  0.08333678  0.42477002  0.07372307  1
  Te  Te76  1  0.06911624  0.38810495  0.42521016  1
  Te  Te77  1  0.08552521  0.42553562  0.76065563  1
  Te  Te78  1  0.11621232  0.75553484  0.09193498  1
  Te  Te79  1  0.09803820  0.73028972  0.43001805  1
  Te  Te80  1  0.08255030  0.79582259  0.79610402  1
  Te  Te81  1  0.42418030  0.08270445  0.06409500  1
  Te  Te82  1  0.40647573  0.07610480  0.40150378  1
  Te  Te83  1  0.40744822  0.05530207  0.80448450  1
  Te  Te84  1  0.43718547  0.43980522  0.08849744  1
  Te  Te85  1  0.40664372  0.41067192  0.43147253  1
  Te  Te86  1  0.38116185  0.41387902  0.74573783  1
  Te  Te87  1  0.38077668  0.72168773  0.03820444  1
  Te  Te88  1  0.40202146  0.75101000  0.43464917  1
  Te  Te89  1  0.39296123  0.79099247  0.78067889  1
  Te  Te90  1  0.70904553  0.05389434  0.05703420  1
  Te  Te91  1  0.72003858  0.08549505  0.40694887  1
  Te  Te92  1  0.75842660  0.06432535  0.74922498  1
  Te  Te93  1  0.78291930  0.41230709  0.06828455  1
  Te  Te94  1  0.74370902  0.43139344  0.42525583  1
  Te  Te95  1  0.74770944  0.41874008  0.75408399  1
  Te  Te96  1  0.76979582  0.76206415  0.06741673  1
  Te  Te97  1  0.75815281  0.73646715  0.40507140  1
  Te  Te98  1  0.74795283  0.75689418  0.74952856  1
  Te  Te99  1  0.08483729  0.23731208  0.23310360  1
  Te  Te100  1  0.11313082  0.23294899  0.60363804  1
  Te  Te101  1  0.05978970  0.23401567  0.91279666  1
  Te  Te102  1  0.10664190  0.56830648  0.22704224  1
  Te  Te103  1  0.07958356  0.58885746  0.60639073  1
  Te  Te104  1  0.08405792  0.59252109  0.91183716  1
  Te  Te105  1  0.09950389  0.94718673  0.22980581  1
  Te  Te106  1  0.10082807  0.89339397  0.59028363  1
  Te  Te107  1  0.11890974  0.92758227  0.98185241  1
  Te  Te108  1  0.38135917  0.23991064  0.22517628  1
  Te  Te109  1  0.40829969  0.22930578  0.60287441  1
  Te  Te110  1  0.40927595  0.24440994  0.91880400  1
  Te  Te111  1  0.41922999  0.60595633  0.24509320  1
  Te  Te112  1  0.38653152  0.61869332  0.62180596  1
  Te  Te113  1  0.39213531  0.57821289  0.87972436  1
  Te  Te114  1  0.40864322  0.90779119  0.23669231  1
  Te  Te115  1  0.42276281  0.93655011  0.59228186  1
  Te  Te116  1  0.40962588  0.91042724  0.88483617  1
  Te  Te117  1  0.76411737  0.27169286  0.24239872  1
  Te  Te118  1  0.78591054  0.23601812  0.58334222  1
  Te  Te119  1  0.79454860  0.21933856  0.94244854  1
  Te  Te120  1  0.76198803  0.59876100  0.22254944  1
  Te  Te121  1  0.71836074  0.57709304  0.59420958  1
  Te  Te122  1  0.73549523  0.57033972  0.89526312  1
  Te  Te123  1  0.76447586  0.91511137  0.25210300  1
  Te  Te124  1  0.78074779  0.90980466  0.58361282  1
  Te  Te125  1  0.78255727  0.94407391  0.91148543  1
  Te  Te126  1  0.22646828  0.24670922  0.04717505  1
  Te  Te127  1  0.23360887  0.24193133  0.43519697  1
  Te  Te128  1  0.24350479  0.22423158  0.77305809  1
  Te  Te129  1  0.27836655  0.61246646  0.06489455  1
  Te  Te130  1  0.25020256  0.57604576  0.40504489  1
  Te  Te131  1  0.25405140  0.61125759  0.78562556  1
  Te  Te132  1  0.25996129  0.93769202  0.05092988  1
  Te  Te133  1  0.26053597  0.91402468  0.40991152  1
  Te  Te134  1  0.19871725  0.92238336  0.78103494  1
  Te  Te135  1  0.60100098  0.28329433  0.09617504  1
  Te  Te136  1  0.54820220  0.25567494  0.41044799  1
  Te  Te137  1  0.59115755  0.24681563  0.75471472  1
  Te  Te138  1  0.58559469  0.59817639  0.08367099  1
  Te  Te139  1  0.55680638  0.60512395  0.42638258  1
  Te  Te140  1  0.51236111  0.57251573  0.69878953  1
  Te  Te141  1  0.57662204  0.90441041  0.06849488  1
  Te  Te142  1  0.59100826  0.91029968  0.42866699  1
  Te  Te143  1  0.58857173  0.93712177  0.76934023  1
  Te  Te144  1  0.90345294  0.21029707  0.08233047  1
  Te  Te145  1  0.90602927  0.21668607  0.40292314  1
  Te  Te146  1  0.92814820  0.24066376  0.75117990  1
  Te  Te147  1  0.91684976  0.61974496  0.07263980  1
  Te  Te148  1  0.91599602  0.58161497  0.40450988  1
  Te  Te149  1  0.92805096  0.59069013  0.77590354  1
  Te  Te150  1  0.92221224  0.92933235  0.05589539  1
  Te  Te151  1  0.92321102  0.90621390  0.40774932  1
  Te  Te152  1  0.96534144  0.95752626  0.77563565  1
  Te  Te153  1  0.24668617  0.05986382  0.23942657  1
  Te  Te154  1  0.24580175  0.06933181  0.60707108  1
  Te  Te155  1  0.21920292  0.04862657  0.94551046  1
  Te  Te156  1  0.26310614  0.40314130  0.25721981  1
  Te  Te157  1  0.23717469  0.42712803  0.57924969  1
  Te  Te158  1  0.26055564  0.41805985  0.91891330  1
  Te  Te159  1  0.23091402  0.76737255  0.23028314  1
  Te  Te160  1  0.25285423  0.74637693  0.62697156  1
  Te  Te161  1  0.19197136  0.71997820  0.87782784  1
  Te  Te162  1  0.57871401  0.10773426  0.23927235  1
  Te  Te163  1  0.59566760  0.10746596  0.58975904  1
  Te  Te164  1  0.59868386  0.09179909  0.92940051  1
  Te  Te165  1  0.59195904  0.43864505  0.25808656  1
  Te  Te166  1  0.56074199  0.39346716  0.59438800  1
  Te  Te167  1  0.57556872  0.41060515  0.91543590  1
  Te  Te168  1  0.57798072  0.75407693  0.24642901  1
  Te  Te169  1  0.57879393  0.75478593  0.59325352  1
  Te  Te170  1  0.58020534  0.75818799  0.91748695  1
  Te  Te171  1  0.92735177  0.10536591  0.19700554  1
  Te  Te172  1  0.95108362  0.05036315  0.56850599  1
  Te  Te173  1  0.91081590  0.03195345  0.91037857  1
  Te  Te174  1  0.93248296  0.42637552  0.22868381  1
  Te  Te175  1  0.91393620  0.42583656  0.58966014  1
  Te  Te176  1  0.93499401  0.41132710  0.91130993  1
  Te  Te177  1  0.93877865  0.77175232  0.25006970  1
  Te  Te178  1  0.91273843  0.73301062  0.59891146  1
  Te  Te179  1  0.94223083  0.78695910  0.89967572  1
