# generated using pymatgen
data_In2Te3
_symmetry_space_group_name_H-M   'P 1'
_cell_length_a   18.96220610
_cell_length_b   18.96051283
_cell_length_c   18.96542313
_cell_angle_alpha   90.13346622
_cell_angle_beta   89.97070556
_cell_angle_gamma   89.96372440
_symmetry_Int_Tables_number   1
_chemical_formula_structural   In2Te3
_chemical_formula_sum   'In72 Te108'
_cell_volume   6818.67759704
_cell_formula_units_Z   36
loop_
 _symmetry_equiv_pos_site_id
 _symmetry_equiv_pos_as_xyz
  1  'x, y, z'
loop_
 _atom_site_type_symbol
 _atom_site_label
 _atom_site_symmetry_multiplicity
 _atom_site_fract_x
 _atom_site_fract_y
 _atom_site_fract_z
 _atom_site_occupancy
  In  In0  1  0.18325752  0.48972315  0.32391850  1
  In  In1  1  0.79993590  0.63136236  0.19383023  1
  In  In2  1  0.50019310  0.83143106  0.31637078  1
  In  In3  1  0.50733562  0.19942944  0.65611265  1
  In  In4  1  0.33945947  0.00912092  0.01052112  1
  In  In5  1  -0.00461902  0.83612864  0.50708168  1
  In  In6  1  0.68516119  0.50362102  0.82172373  1
  In  In7  1  -0.01343156  0.50762066  0.48988461  1
  In  In8  1  0.68061694  0.84976125  0.81822984  1
  In  In9  1  0.13049599  0.83720280  0.31995800  1
  In  In10  1  0.16774762  0.64964658  0.15276317  1
  In  In11  1  0.31962629  0.33252476  0.65467479  1
  In  In12  1  0.01288944  0.34071475  0.66476723  1
  In  In13  1  0.30634003  0.82579955  0.83040761  1
  In  In14  1  -0.01655656  0.33947546  0.32469828  1
  In  In15  1  0.17216003  0.68814692  0.48545025  1
  In  In16  1  0.52775762  0.50464490  -0.01696688  1
  In  In17  1  0.83243768  0.33400714  0.83648583  1
  In  In18  1  0.82996086  0.33571050  0.47955840  1
  In  In19  1  0.47544332  0.81707691  0.65370004  1
  In  In20  1  0.51711490  0.36039993  0.83557277  1
  In  In21  1  0.83144884  0.20482132  0.65829731  1
  In  In22  1  0.66411876  0.66469959  0.66254607  1
  In  In23  1  0.66382729  0.02024499  0.34287344  1
  In  In24  1  0.46293688  0.01146815  0.82582375  1
  In  In25  1  -0.00547888  -0.00116063  0.00236487  1
  In  In26  1  0.67399380  -0.01972317  0.00424875  1
  In  In27  1  0.13369262  0.34375523  0.84826226  1
  In  In28  1  0.47910655  0.63877413  0.53547571  1
  In  In29  1  0.17725053  0.49035049  0.00683174  1
  In  In30  1  0.14948667  0.00118517  0.19773962  1
  In  In31  1  0.67364291  0.17175186  0.18889775  1
  In  In32  1  0.33979914  0.81750233  0.16224612  1
  In  In33  1  0.19067443  0.30454028  0.47946970  1
  In  In34  1  0.81165306  0.83117418  0.66760396  1
  In  In35  1  0.30446803  0.50510642  0.81732497  1
  In  In36  1  0.32966920  0.17616524  0.84569641  1
  In  In37  1  0.83064639  0.81916568  0.32646459  1
  In  In38  1  -0.00727344  0.81326541  0.86315897  1
  In  In39  1  0.52308620  0.64568593  0.15662911  1
  In  In40  1  0.50359636  0.45803861  0.37227639  1
  In  In41  1  0.00058775  0.65785037  0.68056141  1
  In  In42  1  0.66393170  0.17888561  0.83068542  1
  In  In43  1  0.85739678  0.01435765  0.15974750  1
  In  In44  1  0.01489695  0.00614482  0.66748601  1
  In  In45  1  0.00043491  0.32792735  0.01992730  1
  In  In46  1  0.82295820  0.02452074  0.48939832  1
  In  In47  1  0.17280953  0.14881337  0.65336601  1
  In  In48  1  0.66281095  0.64419836  0.00537156  1
  In  In49  1  0.67073870  0.83904109  0.15489681  1
  In  In50  1  0.34033659  0.84051095  0.48950124  1
  In  In51  1  0.67186118  0.48899876  0.49996603  1
  In  In52  1  0.15307206  0.08333521  0.43179961  1
  In  In53  1  0.53175648  0.33545581  0.18084159  1
  In  In54  1  0.51728565  0.22034017  0.35621300  1
  In  In55  1  0.15176831  0.84356276  0.67205637  1
  In  In56  1  0.84973582  0.00577839  0.83740652  1
  In  In57  1  0.34348256  0.63778108  0.31423950  1
  In  In58  1  0.82370467  0.65453758  0.46619603  1
  In  In59  1  0.49397661  -0.00179177  0.49556663  1
  In  In60  1  0.33466061  0.01507716  0.34544095  1
  In  In61  1  0.19359675  0.33479671  0.16022182  1
  In  In62  1  -0.01122257  0.63860252  0.02462200  1
  In  In63  1  0.50430019  0.13959639  0.02217194  1
  In  In64  1  0.51037708  0.82347202  0.02967307  1
  In  In65  1  0.36011185  0.31257720  0.01967033  1
  In  In66  1  -0.00247063  0.50309519  0.83934961  1
  In  In67  1  0.80081628  0.34948470  0.17543697  1
  In  In68  1  0.15922164  0.83000902  -0.00955426  1
  In  In69  1  0.00583421  0.18132409  0.17422819  1
  In  In70  1  0.51936491  0.64900941  0.83319923  1
  In  In71  1  0.65666099  0.00270544  0.65473616  1
  Te  Te72  1  0.08730823  0.08526785  0.08858591  1
  Te  Te73  1  0.01279227  0.10139550  0.39885564  1
  Te  Te74  1  0.08701476  0.09325575  0.75846372  1
  Te  Te75  1  0.08347470  0.42363096  0.10317397  1
  Te  Te76  1  0.08688574  0.41258492  0.42236500  1
  Te  Te77  1  0.09736109  0.44238548  0.73999756  1
  Te  Te78  1  0.07573487  0.75061973  0.08795959  1
  Te  Te79  1  0.05309135  0.73902394  0.40534894  1
  Te  Te80  1  0.08963916  0.74358653  0.76756485  1
  Te  Te81  1  0.39124485  0.10670620  0.10843073  1
  Te  Te82  1  0.42574032  0.10912522  0.41937912  1
  Te  Te83  1  0.40576244  0.10885038  0.72739376  1
  Te  Te84  1  0.44793934  0.41838265  0.07952033  1
  Te  Te85  1  0.38922749  0.39396891  0.45020426  1
  Te  Te86  1  0.41093048  0.41689582  0.74644096  1
  Te  Te87  1  0.41375340  0.71640503  0.07599008  1
  Te  Te88  1  0.42014661  0.73982322  0.40884206  1
  Te  Te89  1  0.41558412  0.73653502  0.76405819  1
  Te  Te90  1  0.74716411  0.08517014  0.08365638  1
  Te  Te91  1  0.75536506  0.12161358  0.39984349  1
  Te  Te92  1  0.75320755  0.08216428  0.74008114  1
  Te  Te93  1  0.72229497  0.42161751  0.07297849  1
  Te  Te94  1  0.77469138  0.44897256  0.39588213  1
  Te  Te95  1  0.75723733  0.40939667  0.73532807  1
  Te  Te96  1  0.75370555  0.73717913  0.08382184  1
  Te  Te97  1  0.72993234  0.74671173  0.40430863  1
  Te  Te98  1  0.75609471  0.72916737  0.76531514  1
  Te  Te99  1  0.09943980  0.26525437  0.25866365  1
  Te  Te100  1  0.08338502  0.24278293  0.57464013  1
  Te  Te101  1  0.08981581  0.24163322  0.94121756  1
  Te  Te102  1  0.09488338  0.58973712  0.26374522  1
  Te  Te103  1  0.08257310  0.59573100  0.56948487  1
  Te  Te104  1  0.09430051  0.58415663  0.92387472  1
  Te  Te105  1  0.03720364  0.91678673  0.24112306  1
  Te  Te106  1  0.09604207  0.93505143  0.56046149  1
  Te  Te107  1  0.08472266  0.92688419  0.90190199  1
  Te  Te108  1  0.41894935  0.27427968  0.25759435  1
  Te  Te109  1  0.41464220  0.26594992  0.55999799  1
  Te  Te110  1  0.45543039  0.24136838  0.90905714  1
  Te  Te111  1  0.45350915  0.55481227  0.25615383  1
  Te  Te112  1  0.37853526  0.57148214  0.61413660  1
  Te  Te113  1  0.41485145  0.56973615  0.90884455  1
  Te  Te114  1  0.40843093  0.92728755  0.24445181  1
  Te  Te115  1  0.39889911  0.93390294  0.59429354  1
  Te  Te116  1  0.42432277  0.90571365  0.92904385  1
  Te  Te117  1  0.76564273  0.24510166  0.27721756  1
  Te  Te118  1  0.73288547  0.25737621  0.56142681  1
  Te  Te119  1  0.77182010  0.22513577  0.91704220  1
  Te  Te120  1  0.71333524  0.53546889  0.27206486  1
  Te  Te121  1  0.76064002  0.57951627  0.58375164  1
  Te  Te122  1  0.76223305  0.57660884  0.92273129  1
  Te  Te123  1  0.74672618  0.93524307  0.24563778  1
  Te  Te124  1  0.74055627  0.91520189  0.56457193  1
  Te  Te125  1  0.77631375  0.90261781  0.92337272  1
  Te  Te126  1  0.25252783  0.22975527  0.07366706  1
  Te  Te127  1  0.29778263  0.30381353  0.37376052  1
  Te  Te128  1  0.23154960  0.25659509  0.75977497  1
  Te  Te129  1  0.27272756  0.55920144  0.09877119  1
  Te  Te130  1  0.26080427  0.57949812  0.42589654  1
  Te  Te131  1  0.27093147  0.60480602  0.71807328  1
  Te  Te132  1  0.24101937  0.91325323  0.09783284  1
  Te  Te133  1  0.23864323  0.90982152  0.40196417  1
  Te  Te134  1  0.25040739  0.92686955  0.74259797  1
  Te  Te135  1  0.59866312  0.24260316  0.07700843  1
  Te  Te136  1  0.60248809  0.29955353  0.45205298  1
  Te  Te137  1  0.60551673  0.28303119  0.73701160  1
  Te  Te138  1  0.62769417  0.53640382  0.11421736  1
  Te  Te139  1  0.57194211  0.58405436  0.43152275  1
  Te  Te140  1  0.57651243  0.55894349  0.72639304  1
  Te  Te141  1  0.56644854  0.94119707  0.10513045  1
  Te  Te142  1  0.58565082  0.90993531  0.41399927  1
  Te  Te143  1  0.56399631  0.91594814  0.74268201  1
  Te  Te144  1  0.89647287  0.25173849  0.09822459  1
  Te  Te145  1  0.93865470  0.24432660  0.43087300  1
  Te  Te146  1  0.93608067  0.25003636  0.75882028  1
  Te  Te147  1  0.90220335  0.55425592  0.11278929  1
  Te  Te148  1  0.90994529  0.57109750  0.38114079  1
  Te  Te149  1  0.90723181  0.56618612  0.74329866  1
  Te  Te150  1  0.91280707  0.90520796  0.08015398  1
  Te  Te151  1  0.90572564  0.91719348  0.41702190  1
  Te  Te152  1  0.92273341  0.90197928  0.74341870  1
  Te  Te153  1  0.21856888  0.09738402  0.29289155  1
  Te  Te154  1  0.25122042  0.09908106  0.53885854  1
  Te  Te155  1  0.25423497  0.06803062  0.90797400  1
  Te  Te156  1  0.27814680  0.44345193  0.21776279  1
  Te  Te157  1  0.22037412  0.40912951  0.57853358  1
  Te  Te158  1  0.26672762  0.39591439  0.92496546  1
  Te  Te159  1  0.24868129  0.74633150  0.26047353  1
  Te  Te160  1  0.25371867  0.76412544  0.58780232  1
  Te  Te161  1  0.24990135  0.73415008  0.92776140  1
  Te  Te162  1  0.56383568  0.10126372  0.26431894  1
  Te  Te163  1  0.58468379  0.09895344  0.56605290  1
  Te  Te164  1  0.58910922  0.06265636  0.90443575  1
  Te  Te165  1  0.61704048  0.41183765  0.28004431  1
  Te  Te166  1  0.54449350  0.41376370  0.53538866  1
  Te  Te167  1  0.62858168  0.40284091  0.93202520  1
  Te  Te168  1  0.59952208  0.74054638  0.24715074  1
  Te  Te169  1  0.58248481  0.75288613  0.57135579  1
  Te  Te170  1  0.59331650  0.76145121  0.91744635  1
  Te  Te171  1  0.92780574  0.09194710  0.26719049  1
  Te  Te172  1  0.91024475  0.09038652  0.59469427  1
  Te  Te173  1  0.90891904  0.09860747  0.93300575  1
  Te  Te174  1  0.91993143  0.42741912  0.22293580  1
  Te  Te175  1  0.91071695  0.41644801  0.58349208  1
  Te  Te176  1  0.91487354  0.41850546  0.93325034  1
  Te  Te177  1  0.90127593  0.72867158  0.23653026  1
  Te  Te178  1  0.90409530  0.74295492  0.58360099  1
  Te  Te179  1  0.90845294  0.71167457  0.92427049  1
