# generated using pymatgen
data_In2Te3
_symmetry_space_group_name_H-M   'P 1'
_cell_length_a   18.81502175
_cell_length_b   18.82046790
_cell_length_c   18.82962267
_cell_angle_alpha   89.97323240
_cell_angle_beta   89.99144713
_cell_angle_gamma   89.96188557
_symmetry_Int_Tables_number   1
_chemical_formula_structural   In2Te3
_chemical_formula_sum   'In72 Te108'
_cell_volume   6667.70857239
_cell_formula_units_Z   36
loop_
 _symmetry_equiv_pos_site_id
 _symmetry_equiv_pos_as_xyz
  1  'x, y, z'
loop_
 _atom_site_type_symbol
 _atom_site_label
 _atom_site_symmetry_multiplicity
 _atom_site_fract_x
 _atom_site_fract_y
 _atom_site_fract_z
 _atom_site_occupancy
  In  In0  1  -0.00746822  0.67487830  0.35709567  1
  In  In1  1  0.83433903  0.49368926  0.31884932  1
  In  In2  1  0.32869923  0.16306693  0.17915462  1
  In  In3  1  0.18141445  0.14954005  0.67206340  1
  In  In4  1  0.00768055  0.87706955  0.17563502  1
  In  In5  1  0.46341851  0.15358993  0.63947120  1
  In  In6  1  0.68682175  0.02909458  -0.00084134  1
  In  In7  1  0.64993410  0.45366599  0.18248471  1
  In  In8  1  -0.01341492  0.33224738  0.66655688  1
  In  In9  1  0.17581737  0.67187601  0.17808877  1
  In  In10  1  0.68689085  0.18951021  0.83431942  1
  In  In11  1  0.67161400  0.63355343  0.01722770  1
  In  In12  1  0.34088838  0.33558389  0.32733627  1
  In  In13  1  0.15570297  -0.00407067  0.82300819  1
  In  In14  1  0.48093151  0.85101723  0.31340145  1
  In  In15  1  0.48966514  -0.00533531  0.16231638  1
  In  In16  1  0.83678506  0.65473945  0.18038942  1
  In  In17  1  0.32934177  0.65652532  0.34519855  1
  In  In18  1  0.34854308  0.34003795  0.66650002  1
  In  In19  1  0.51437763  0.48240064  0.00061633  1
  In  In20  1  -0.00452689  0.66425165  0.00929699  1
  In  In21  1  0.48292329  0.67682074  0.83642209  1
  In  In22  1  0.00048635  0.01037325  0.30972946  1
  In  In23  1  0.84212561  0.66097451  0.83927192  1
  In  In24  1  -0.00520694  0.17129556  0.50205447  1
  In  In25  1  0.67707877  -0.00000576  0.33199508  1
  In  In26  1  0.49787981  0.32853568  0.84355903  1
  In  In27  1  0.12493714  0.29497107  0.17984697  1
  In  In28  1  0.32677659  0.01657638  0.01754724  1
  In  In29  1  0.49621749  0.51801242  0.64613471  1
  In  In30  1  0.16230574  0.51093316  0.67255435  1
  In  In31  1  0.16590745  0.46679293  0.34275696  1
  In  In32  1  0.66201766  0.84419621  0.19284366  1
  In  In33  1  0.65848566  0.81394632  0.48843016  1
  In  In34  1  0.86906551  0.03419919  0.85527135  1
  In  In35  1  0.31114722  0.85499976  0.84611193  1
  In  In36  1  0.14687119  0.84964130  0.34722331  1
  In  In37  1  0.01778745  -0.00289466  0.65559606  1
  In  In38  1  0.84845358  0.34972541  0.87137153  1
  In  In39  1  0.48714150  0.65463640  0.50471330  1
  In  In40  1  0.66745811  0.64903579  0.63914946  1
  In  In41  1  0.66796062  0.83863409  0.84164335  1
  In  In42  1  0.15013889  0.48202303  0.00862972  1
  In  In43  1  -0.00098066  0.83495297  0.50477950  1
  In  In44  1  0.81140020  0.83592742  0.33861273  1
  In  In45  1  0.86239027  0.83362507  0.01904034  1
  In  In46  1  0.84095419  0.15666129  0.66203839  1
  In  In47  1  0.83627452  0.31507933  0.15661251  1
  In  In48  1  0.67010415  0.17235539  0.45961909  1
  In  In49  1  0.16062415  0.66206172  0.82652350  1
  In  In50  1  0.51434867  0.02835113  0.82404211  1
  In  In51  1  0.64672145  0.00462821  0.65139913  1
  In  In52  1  0.67139632  0.50201640  0.48376901  1
  In  In53  1  0.65164145  0.19345428  0.16073734  1
  In  In54  1  0.35907789  0.68812708  0.00858835  1
  In  In55  1  0.00780028  0.67676357  0.67189731  1
  In  In56  1  0.84103657  0.32484228  0.49257126  1
  In  In57  1  0.16600433  0.32037043  0.45789925  1
  In  In58  1  0.16176537  -0.00744047  0.50314781  1
  In  In59  1  0.34008488  0.33506490  -0.00622797  1
  In  In60  1  0.68012191  0.33440127  0.70310385  1
  In  In61  1  0.34134650  0.49093205  0.49705160  1
  In  In62  1  0.51288048  0.32363485  0.48689821  1
  In  In63  1  0.47815636  0.82659721  0.01926273  1
  In  In64  1  0.15903951  0.32004609  0.84255319  1
  In  In65  1  0.42399190  0.84682126  0.62200343  1
  In  In66  1  0.14758869  0.14628669  0.00849077  1
  In  In67  1  0.35230874  0.49134848  0.15657065  1
  In  In68  1  0.83327382  0.84895537  0.66045839  1
  In  In69  1  0.16164409  0.88026922  0.00749981  1
  In  In70  1  0.01376367  0.49266603  0.14859713  1
  In  In71  1  0.66342515  0.46482543  0.82403760  1
  Te  Te72  1  0.05954328  0.07175972  0.10208193  1
  Te  Te73  1  0.08666246  0.08770209  0.41124919  1
  Te  Te74  1  0.06399746  0.10160717  0.75546814  1
  Te  Te75  1  0.05375647  0.37050526  0.05482048  1
  Te  Te76  1  0.05526316  0.41145479  0.42293514  1
  Te  Te77  1  0.07599775  0.41612524  0.75725203  1
  Te  Te78  1  0.08119988  0.75982533  0.09333621  1
  Te  Te79  1  0.10179573  0.73887101  0.44222743  1
  Te  Te80  1  0.09566189  0.76848231  0.74917212  1
  Te  Te81  1  0.43203125  0.10717404  0.07683641  1
  Te  Te82  1  0.43396300  0.08982875  0.46350214  1
  Te  Te83  1  0.40028215  0.06267433  0.73694250  1
  Te  Te84  1  0.44325653  0.37754000  0.10061344  1
  Te  Te85  1  0.44159221  0.43403477  0.40001609  1
  Te  Te86  1  0.42733866  0.43289143  0.75669430  1
  Te  Te87  1  0.42164312  0.74703376  0.12927884  1
  Te  Te88  1  0.40946494  0.76226769  0.42596734  1
  Te  Te89  1  0.39316332  0.76293782  0.75342778  1
  Te  Te90  1  0.75532904  0.09751554  0.10820152  1
  Te  Te91  1  0.77450079  0.08512199  0.40365754  1
  Te  Te92  1  0.74441062  0.06718899  0.75251658  1
  Te  Te93  1  0.75876997  0.42335347  0.08926752  1
  Te  Te94  1  0.74410060  0.39852135  0.39993440  1
  Te  Te95  1  0.79076501  0.42758550  0.74790374  1
  Te  Te96  1  0.75163018  0.75019463  0.08479733  1
  Te  Te97  1  0.75444034  0.72680189  0.41815878  1
  Te  Te98  1  0.74408680  0.74747574  0.74425790  1
  Te  Te99  1  0.04643610  0.23157074  0.28789860  1
  Te  Te100  1  0.09404693  0.25006522  0.58983569  1
  Te  Te101  1  0.06626498  0.22266192  0.90764105  1
  Te  Te102  1  0.07771975  0.58389748  0.25537848  1
  Te  Te103  1  0.08594264  0.59224036  0.57752165  1
  Te  Te104  1  0.07065176  0.57252885  0.91359031  1
  Te  Te105  1  0.13197970  0.95411673  0.23133061  1
  Te  Te106  1  0.10714339  0.88652845  0.60001419  1
  Te  Te107  1  0.05973633  0.93573054  0.91858282  1
  Te  Te108  1  0.42747176  0.22963280  0.26805741  1
  Te  Te109  1  0.39120670  0.25419548  0.54685525  1
  Te  Te110  1  0.40444243  0.23456545  0.90665250  1
  Te  Te111  1  0.41725247  0.58188760  0.25248890  1
  Te  Te112  1  0.37434824  0.59855049  0.60105671  1
  Te  Te113  1  0.41536598  0.57206770  0.92521927  1
  Te  Te114  1  0.38746133  0.95955298  0.26636779  1
  Te  Te115  1  0.38558928  0.96803733  0.53115837  1
  Te  Te116  1  0.42993622  0.92841516  0.91621607  1
  Te  Te117  1  0.75261476  0.24523576  0.25756584  1
  Te  Te118  1  0.73793092  0.24187025  0.58748941  1
  Te  Te119  1  0.77153973  0.24260736  0.94389069  1
  Te  Te120  1  0.72779568  0.57722511  0.24813496  1
  Te  Te121  1  0.76585793  0.55711522  0.58393821  1
  Te  Te122  1  0.75045005  0.56152393  0.91163594  1
  Te  Te123  1  0.77717135  0.93530821  0.22751728  1
  Te  Te124  1  0.74118364  0.92223341  0.56406089  1
  Te  Te125  1  0.77147811  0.92048211  0.91754620  1
  Te  Te126  1  0.24123875  0.25252051  0.08007923  1
  Te  Te127  1  0.24965370  0.22957953  0.37805291  1
  Te  Te128  1  0.26394614  0.24812671  0.75460604  1
  Te  Te129  1  0.24776111  0.58242014  0.07724341  1
  Te  Te130  1  0.23211178  0.57392893  0.42852720  1
  Te  Te131  1  0.26189188  0.57956187  0.75799078  1
  Te  Te132  1  0.27975328  0.89914707  0.09232393  1
  Te  Te133  1  0.26012368  0.91540764  0.42044220  1
  Te  Te134  1  0.25438594  0.93165957  0.73237426  1
  Te  Te135  1  0.57328633  0.28635751  0.07602147  1
  Te  Te136  1  0.58247981  0.25791512  0.36922790  1
  Te  Te137  1  0.56695495  0.23338290  0.73422377  1
  Te  Te138  1  0.56736520  0.57504040  0.10707589  1
  Te  Te139  1  0.58438486  0.59608879  0.41109107  1
  Te  Te140  1  0.58421041  0.58604023  0.76167863  1
  Te  Te141  1  0.59701500  0.91905520  0.07054847  1
  Te  Te142  1  0.57712971  0.91803372  0.41303553  1
  Te  Te143  1  0.57238383  0.90839789  0.74558328  1
  Te  Te144  1  0.92725328  0.21870836  0.08376930  1
  Te  Te145  1  0.91411132  0.23779600  0.39490290  1
  Te  Te146  1  0.90401852  0.24848741  0.76228922  1
  Te  Te147  1  0.89918505  0.56529884  0.07417805  1
  Te  Te148  1  0.90774514  0.57365972  0.42038292  1
  Te  Te149  1  0.93062772  0.58088809  0.75471922  1
  Te  Te150  1  0.93563653  0.95411223  0.06957076  1
  Te  Te151  1  0.92074808  0.91928818  0.40595046  1
  Te  Te152  1  0.92190660  0.92742994  0.75372863  1
  Te  Te153  1  0.24733498  0.06103651  0.24576435  1
  Te  Te154  1  0.26137820  0.08969608  0.56229470  1
  Te  Te155  1  0.24825553  0.08623304  0.90945227  1
  Te  Te156  1  0.23714668  0.40893000  0.22217467  1
  Te  Te157  1  0.24209036  0.40522079  0.57556721  1
  Te  Te158  1  0.25073365  0.42459960  0.90847626  1
  Te  Te159  1  0.25149068  0.76459954  0.26788442  1
  Te  Te160  1  0.31844450  0.76161417  0.56320345  1
  Te  Te161  1  0.23921929  0.75297561  0.93601523  1
  Te  Te162  1  0.58014789  0.08050799  0.24821776  1
  Te  Te163  1  0.57179333  0.08490674  0.54334650  1
  Te  Te164  1  0.58542194  0.11612656  0.92630504  1
  Te  Te165  1  0.56528342  0.38996662  0.28440733  1
  Te  Te166  1  0.58868998  0.40791037  0.59499210  1
  Te  Te167  1  0.61068407  0.37656953  0.93960757  1
  Te  Te168  1  0.58355954  0.75099347  0.27280525  1
  Te  Te169  1  0.56388445  0.75522490  0.60052531  1
  Te  Te170  1  0.58821970  0.74076894  0.93005584  1
  Te  Te171  1  0.95897265  0.12227432  0.21252596  1
  Te  Te172  1  0.91059779  0.06066346  0.56750256  1
  Te  Te173  1  0.91300077  0.14264371  0.94703469  1
  Te  Te174  1  0.93291204  0.40644422  0.24309497  1
  Te  Te175  1  0.92151692  0.42194405  0.56915091  1
  Te  Te176  1  0.95503701  0.42015038  0.94295186  1
  Te  Te177  1  0.92705998  0.76013318  0.24503675  1
  Te  Te178  1  0.89980584  0.74476254  0.57485111  1
  Te  Te179  1  0.93607988  0.76113715  0.90637455  1
