# generated using pymatgen
data_In2Te3
_symmetry_space_group_name_H-M   'P 1'
_cell_length_a   18.81721478
_cell_length_b   18.80763478
_cell_length_c   18.81535618
_cell_angle_alpha   89.91393078
_cell_angle_beta   89.92067341
_cell_angle_gamma   89.95609162
_symmetry_Int_Tables_number   1
_chemical_formula_structural   In2Te3
_chemical_formula_sum   'In72 Te108'
_cell_volume   6658.87612408
_cell_formula_units_Z   36
loop_
 _symmetry_equiv_pos_site_id
 _symmetry_equiv_pos_as_xyz
  1  'x, y, z'
loop_
 _atom_site_type_symbol
 _atom_site_label
 _atom_site_symmetry_multiplicity
 _atom_site_fract_x
 _atom_site_fract_y
 _atom_site_fract_z
 _atom_site_occupancy
  In  In0  1  0.83855398  0.13883310  0.69126749  1
  In  In1  1  0.00991901  0.52777832  0.77401426  1
  In  In2  1  0.49261805  0.50920383  -0.00705548  1
  In  In3  1  0.33002480  0.14338252  0.15835111  1
  In  In4  1  0.17915705  0.52482624  0.39060804  1
  In  In5  1  0.49187346  0.83152946  0.31353871  1
  In  In6  1  0.70678045  0.84182030  0.50737070  1
  In  In7  1  0.31717859  0.34192181  0.67034925  1
  In  In8  1  0.51029895  0.32641877  0.16410146  1
  In  In9  1  0.14676601  0.83972374  0.67762588  1
  In  In10  1  0.17944553  0.47334135  -0.03350219  1
  In  In11  1  0.49985889  0.48559629  0.66633209  1
  In  In12  1  0.86101608  0.02639764  0.50134483  1
  In  In13  1  0.01269284  0.35645001  0.35516194  1
  In  In14  1  0.32123352  -0.00501325  0.67558978  1
  In  In15  1  0.01615669  0.00270107  0.36031200  1
  In  In16  1  0.31764865  0.83333941  0.51120433  1
  In  In17  1  0.32537807  0.33619699  0.35077703  1
  In  In18  1  0.85015927  0.67199845  0.50902099  1
  In  In19  1  0.51489789  0.02966332  0.49978406  1
  In  In20  1  0.67351486  0.31811909  0.36297904  1
  In  In21  1  0.16708202  0.65180880  0.17854134  1
  In  In22  1  0.64991331  0.33512863  0.66457943  1
  In  In23  1  0.35001610  0.49219070  0.18127552  1
  In  In24  1  0.32276723  0.16948054  0.50561966  1
  In  In25  1  0.83023688  0.83372041  -0.03597428  1
  In  In26  1  0.17714457  0.31519881  0.17562064  1
  In  In27  1  0.67239486  0.66309715  0.66002671  1
  In  In28  1  -0.02671014  0.83134955  0.17154148  1
  In  In29  1  0.32911434  0.01103225  -0.02498326  1
  In  In30  1  0.65736336  0.82903988  0.82482058  1
  In  In31  1  0.48188760  0.81821056  0.68342178  1
  In  In32  1  0.66183517  0.18902516  0.49944752  1
  In  In33  1  0.17377951  0.00421902  0.51853932  1
  In  In34  1  0.16013062  0.01367410  0.16549047  1
  In  In35  1  0.54009878  0.86381292  -0.00135673  1
  In  In36  1  0.49884944  0.17748279  0.67471439  1
  In  In37  1  0.15659154  0.52025225  0.63649485  1
  In  In38  1  0.01995823  0.16397043  0.15695069  1
  In  In39  1  0.48867735  0.51049488  0.34838210  1
  In  In40  1  0.83111863  0.84291658  0.32874893  1
  In  In41  1  -0.02622039  0.32645307  0.00348676  1
  In  In42  1  0.84964544  0.18185881  0.33207144  1
  In  In43  1  0.82726663  0.50992225  -0.02082050  1
  In  In44  1  0.14043009  0.81208823  0.37527660  1
  In  In45  1  0.83217237  0.68585174  0.16076643  1
  In  In46  1  0.66634709  0.49783693  0.15155736  1
  In  In47  1  0.67898049  -0.01519709  0.31505760  1
  In  In48  1  0.49718070  0.65196685  0.51130718  1
  In  In49  1  0.17569841  0.14832537  -0.00810087  1
  In  In50  1  0.49751968  -0.00535417  0.83303709  1
  In  In51  1  0.33168586  0.66591178  0.66932869  1
  In  In52  1  0.47383286  0.18289095  -0.03624896  1
  In  In53  1  0.17476836  0.34885327  0.82478052  1
  In  In54  1  0.16681475  0.67058216  0.81033568  1
  In  In55  1  0.67617427  0.33771588  -0.00644918  1
  In  In56  1  0.85745802  0.36154021  0.53017597  1
  In  In57  1  0.67441011  0.13272987  0.17309329  1
  In  In58  1  0.13237419  0.85071439  -0.02374242  1
  In  In59  1  0.52093264  0.15931760  0.33395571  1
  In  In60  1  0.84561240  0.15669670  -0.01568728  1
  In  In61  1  0.50965272  0.64525511  0.17627916  1
  In  In62  1  0.66232392  0.52287097  0.83678289  1
  In  In63  1  0.02503463  0.15258779  0.81387295  1
  In  In64  1  0.34255120  0.66401900  -0.00199400  1
  In  In65  1  0.83301360  -0.00395342  0.14593886  1
  In  In66  1  0.84872903  0.51321253  0.33940426  1
  In  In67  1  0.32016120  0.82906322  0.17376798  1
  In  In68  1  0.01025558  0.49279873  0.19110028  1
  In  In69  1  0.86030752  0.86566887  0.68470069  1
  In  In70  1  -0.01721953  0.68024443  -0.01371053  1
  In  In71  1  0.84324778  0.33766344  0.82642287  1
  Te  Te72  1  0.06467424  0.06247769  0.05429858  1
  Te  Te73  1  0.09178868  0.10737007  0.43642492  1
  Te  Te74  1  0.09771461  0.03875275  0.75272470  1
  Te  Te75  1  0.08178576  0.40469451  0.08559417  1
  Te  Te76  1  0.09852522  0.41606789  0.46123227  1
  Te  Te77  1  0.07844420  0.40491801  0.71618022  1
  Te  Te78  1  0.08214009  0.74659802  0.09254027  1
  Te  Te79  1  0.06385293  0.72995432  0.47092552  1
  Te  Te80  1  0.05527283  0.73893096  0.74094087  1
  Te  Te81  1  0.43013598  0.07400682  0.06918476  1
  Te  Te82  1  0.40775957  0.08521401  0.40702718  1
  Te  Te83  1  0.40500878  0.09183104  0.75902160  1
  Te  Te84  1  0.41485973  0.40412949  0.07542513  1
  Te  Te85  1  0.40129738  0.42911412  0.43527831  1
  Te  Te86  1  0.43182899  0.38650090  0.75543600  1
  Te  Te87  1  0.42369840  0.74862788  0.09508663  1
  Te  Te88  1  0.41954215  0.75633347  0.42836159  1
  Te  Te89  1  0.39616820  0.74403518  0.77737717  1
  Te  Te90  1  0.73861563  0.06794891  0.05071117  1
  Te  Te91  1  0.74542048  0.08755141  0.40898130  1
  Te  Te92  1  0.76860461  0.06045842  0.79686143  1
  Te  Te93  1  0.77321863  0.41203356  0.08376854  1
  Te  Te94  1  0.75816624  0.42305712  0.42881378  1
  Te  Te95  1  0.74190688  0.42323262  0.75206782  1
  Te  Te96  1  0.75017274  0.74827419  0.05639270  1
  Te  Te97  1  0.74939708  0.73937946  0.40649363  1
  Te  Te98  1  0.76092492  0.75821741  0.73817281  1
  Te  Te99  1  0.08001290  0.24442504  0.26957666  1
  Te  Te100  1  0.04284049  0.19885228  0.55586503  1
  Te  Te101  1  0.08168725  0.25655143  0.92120379  1
  Te  Te102  1  0.08027098  0.58758876  0.28672589  1
  Te  Te103  1  0.05223747  0.59858723  0.55694878  1
  Te  Te104  1  0.08310260  0.58438754  0.91792640  1
  Te  Te105  1  0.08143089  0.90763640  0.25089163  1
  Te  Te106  1  0.06898354  0.92213782  0.58276532  1
  Te  Te107  1  0.07560860  0.92573277  0.85973751  1
  Te  Te108  1  0.41336760  0.24636380  0.25011149  1
  Te  Te109  1  0.41695354  0.26269687  0.58002130  1
  Te  Te110  1  0.37890088  0.26233997  0.88734546  1
  Te  Te111  1  0.39505038  0.60453716  0.27079436  1
  Te  Te112  1  0.39497158  0.56019986  0.57820986  1
  Te  Te113  1  0.40264146  0.57584846  0.89713209  1
  Te  Te114  1  0.39720286  0.92676792  0.25309281  1
  Te  Te115  1  0.42338392  0.93164994  0.57747414  1
  Te  Te116  1  0.41271027  0.89847559  0.91702302  1
  Te  Te117  1  0.74251258  0.24928917  0.24640225  1
  Te  Te118  1  0.77101325  0.24426644  0.59153534  1
  Te  Te119  1  0.75021129  0.24206624  0.90046776  1
  Te  Te120  1  0.75073106  0.58437204  0.24424768  1
  Te  Te121  1  0.76131320  0.57407555  0.58129328  1
  Te  Te122  1  0.76211525  0.61303572  0.89892392  1
  Te  Te123  1  0.74036081  0.88903035  0.21047917  1
  Te  Te124  1  0.76634920  0.94977335  0.59564885  1
  Te  Te125  1  0.74151569  0.93387965  0.89411315  1
  Te  Te126  1  0.26208221  0.24803942  0.06919495  1
  Te  Te127  1  0.22964935  0.25520654  0.42813959  1
  Te  Te128  1  0.21954631  0.24458150  0.72930935  1
  Te  Te129  1  0.24817455  0.56544796  0.08162337  1
  Te  Te130  1  0.26159479  0.62124067  0.46386691  1
  Te  Te131  1  0.25166259  0.55988110  0.75063718  1
  Te  Te132  1  0.24081404  0.91858372  0.07354819  1
  Te  Te133  1  0.24343245  0.92112183  0.40986279  1
  Te  Te134  1  0.26700622  0.88151594  0.75311345  1
  Te  Te135  1  0.59626665  0.23561786  0.07925151  1
  Te  Te136  1  0.54890554  0.27050611  0.43418447  1
  Te  Te137  1  0.59394662  0.24423860  0.76606433  1
  Te  Te138  1  0.59822034  0.59645760  0.05893742  1
  Te  Te139  1  0.59246458  0.58448977  0.42176392  1
  Te  Te140  1  0.56477982  0.59927971  0.74698436  1
  Te  Te141  1  0.60488243  0.92430648  0.11260836  1
  Te  Te142  1  0.59293027  0.91971282  0.42449708  1
  Te  Te143  1  0.58210885  0.92262115  0.72832757  1
  Te  Te144  1  0.89819445  0.23802484  0.10275627  1
  Te  Te145  1  0.92741206  0.25080114  0.44234718  1
  Te  Te146  1  0.93231213  0.24893210  0.73969593  1
  Te  Te147  1  0.92642646  0.57676917  0.09280399  1
  Te  Te148  1  0.94030927  0.56352400  0.44774650  1
  Te  Te149  1  0.88714754  0.57341182  0.70425812  1
  Te  Te150  1  0.92618209  0.91682651  0.05564995  1
  Te  Te151  1  0.92503658  0.90449000  0.43242338  1
  Te  Te152  1  0.94336550  0.95371350  0.77520914  1
  Te  Te153  1  0.23293495  0.09896581  0.25960284  1
  Te  Te154  1  0.23580050  0.10704030  0.61591696  1
  Te  Te155  1  0.23935636  0.07798970  0.87876809  1
  Te  Te156  1  0.23170630  0.43163670  0.25936179  1
  Te  Te157  1  0.23185549  0.40999481  0.56565459  1
  Te  Te158  1  0.29427776  0.39443453  0.90654935  1
  Te  Te159  1  0.23902854  0.74646582  0.27328863  1
  Te  Te160  1  0.22757380  0.72718635  0.57364850  1
  Te  Te161  1  0.23150857  0.74687270  0.92683946  1
  Te  Te162  1  0.56194688  0.04889942  0.23506799  1
  Te  Te163  1  0.60642373  0.09166893  0.60393829  1
  Te  Te164  1  0.57599533  0.08796614  0.91623970  1
  Te  Te165  1  0.58700600  0.41841575  0.25712275  1
  Te  Te166  1  0.59280628  0.42820983  0.56630332  1
  Te  Te167  1  0.57848497  0.41395131  0.90788113  1
  Te  Te168  1  0.59041901  0.74036806  0.25400125  1
  Te  Te169  1  0.58675642  0.76705126  0.57937276  1
  Te  Te170  1  0.56972648  0.74930431  0.91255078  1
  Te  Te171  1  0.91656272  0.06629257  0.25465168  1
  Te  Te172  1  0.95901677  0.08269452  0.60471853  1
  Te  Te173  1  0.91485168  0.06642903  0.88479468  1
  Te  Te174  1  0.90660164  0.39943788  0.25344216  1
  Te  Te175  1  0.92971102  0.44655552  0.63295744  1
  Te  Te176  1  0.93834683  0.43536035  0.89987948  1
  Te  Te177  1  0.92504201  0.73264130  0.27627171  1
  Te  Te178  1  0.92939574  0.76868699  0.59161927  1
  Te  Te179  1  0.92837572  0.76139141  0.87664862  1
