# generated using pymatgen
data_In2Te3
_symmetry_space_group_name_H-M   'P 1'
_cell_length_a   18.94793621
_cell_length_b   18.94316672
_cell_length_c   18.96648112
_cell_angle_alpha   89.94306221
_cell_angle_beta   89.86154516
_cell_angle_gamma   90.06985325
_symmetry_Int_Tables_number   1
_chemical_formula_structural   In2Te3
_chemical_formula_sum   'In72 Te108'
_cell_volume   6807.68499639
_cell_formula_units_Z   36
loop_
 _symmetry_equiv_pos_site_id
 _symmetry_equiv_pos_as_xyz
  1  'x, y, z'
loop_
 _atom_site_type_symbol
 _atom_site_label
 _atom_site_symmetry_multiplicity
 _atom_site_fract_x
 _atom_site_fract_y
 _atom_site_fract_z
 _atom_site_occupancy
  In  In0  1  -0.01778072  0.83115917  0.48562975  1
  In  In1  1  0.63852588  0.66945267  0.00553734  1
  In  In2  1  0.17087401  0.81877063  0.64919115  1
  In  In3  1  0.20108799  0.48705932  -0.00502518  1
  In  In4  1  0.86451926  0.50060704  0.33523433  1
  In  In5  1  0.67587188  0.51904271  0.84637931  1
  In  In6  1  0.65198786  0.68381501  0.34127213  1
  In  In7  1  0.01402770  -0.00739280  0.31480507  1
  In  In8  1  0.51827915  0.01315043  0.50929486  1
  In  In9  1  0.68405319  0.31394238  0.68693069  1
  In  In10  1  0.01026547  0.35964709  0.66926912  1
  In  In11  1  0.33883034  0.31243032  0.65661934  1
  In  In12  1  0.17031908  0.33523475  0.16606276  1
  In  In13  1  0.82917200  0.67540731  0.83923764  1
  In  In14  1  0.67297266  0.86862752  0.54100278  1
  In  In15  1  0.21684508  0.01749611  0.15074748  1
  In  In16  1  -0.00680110  0.16625637  0.12972180  1
  In  In17  1  0.65213856  0.17033341  0.17134124  1
  In  In18  1  0.48393169  0.85253239  -0.01021053  1
  In  In19  1  0.48319469  0.70863897  0.84333454  1
  In  In20  1  -0.01522403  0.31053042  0.33282035  1
  In  In21  1  0.18095824  0.01985840  0.83859781  1
  In  In22  1  0.81922575  0.81640837  0.00583071  1
  In  In23  1  -0.00273332  0.67979289  0.65595051  1
  In  In24  1  0.02011218  0.16826124  0.84026451  1
  In  In25  1  0.32540332  0.01944699  0.68009991  1
  In  In26  1  0.65961172  -0.01233248  0.02037693  1
  In  In27  1  0.52359952  0.48638735  0.69219585  1
  In  In28  1  0.31934551  0.65174101  0.32316451  1
  In  In29  1  0.32911916  0.83749348  0.48443259  1
  In  In30  1  0.00740440  0.48022735  0.49018204  1
  In  In31  1  0.22733126  0.16759683  0.02229859  1
  In  In32  1  0.16857666  -0.01940512  0.48717657  1
  In  In33  1  0.67141475  0.51020692  0.15969788  1
  In  In34  1  0.79895870  0.00629059  0.18654600  1
  In  In35  1  0.19179122  0.66833462  0.82757441  1
  In  In36  1  0.50190117  0.31248640  0.50498375  1
  In  In37  1  0.31594969  0.32611205  0.31299050  1
  In  In38  1  0.81628530  0.15981330  0.67028954  1
  In  In39  1  0.68252520  0.34163295  0.33816214  1
  In  In40  1  0.31680701  0.66320097  0.00769279  1
  In  In41  1  0.80579564  0.84297703  0.32737814  1
  In  In42  1  0.43646559  0.47064040  0.00470541  1
  In  In43  1  0.15702063  0.81699384  0.00564345  1
  In  In44  1  0.32718801  0.50109822  0.51635733  1
  In  In45  1  0.16359097  0.68238699  0.48147400  1
  In  In46  1  0.83021375  0.01668093  0.81925198  1
  In  In47  1  0.49876129  0.16380983  0.32128908  1
  In  In48  1  0.83709310  0.65011910  0.50673982  1
  In  In49  1  0.63085320  0.15969378  0.85357157  1
  In  In50  1  0.81391611  0.15203043  0.35877695  1
  In  In51  1  0.17640274  0.49725142  0.68372210  1
  In  In52  1  0.01531467  0.52167685  0.19457467  1
  In  In53  1  0.37725957  0.14669151  0.83443809  1
  In  In54  1  -0.02387221  -0.00169394  0.00174628  1
  In  In55  1  0.33335313  0.81006893  0.17117610  1
  In  In56  1  -0.03491672  0.84521723  0.83694063  1
  In  In57  1  0.65277783  0.73054791  0.67335996  1
  In  In58  1  0.01653464  0.50723485  0.82228241  1
  In  In59  1  0.49025773  0.32548083  0.84263311  1
  In  In60  1  0.83323704  0.34101084  0.83378881  1
  In  In61  1  0.53037812  0.66737998  0.51143860  1
  In  In62  1  0.01246026  0.81740818  0.16510961  1
  In  In63  1  0.48338176  0.82718076  0.32164479  1
  In  In64  1  0.47491304  0.47914040  0.30289308  1
  In  In65  1  0.64771128  0.33027289  0.02136320  1
  In  In66  1  0.67813309  0.51523621  0.49887601  1
  In  In67  1  0.33209342  0.16998963  0.47605495  1
  In  In68  1  0.16668891  0.14167373  0.34208194  1
  In  In69  1  0.83808905  0.67234921  0.16395572  1
  In  In70  1  0.15591426  0.19284929  0.66864901  1
  In  In71  1  0.01526913  0.32730782  -0.02250585  1
  Te  Te72  1  0.09747970  0.07869291  0.05921222  1
  Te  Te73  1  0.06237864  0.07802067  0.43058761  1
  Te  Te74  1  0.08329462  0.07689387  0.73760152  1
  Te  Te75  1  0.08071698  0.42289318  0.07763238  1
  Te  Te76  1  0.08027363  0.40892676  0.38603572  1
  Te  Te77  1  0.11138505  0.39748662  0.77761900  1
  Te  Te78  1  0.08992740  0.71413421  0.08995621  1
  Te  Te79  1  0.09302262  0.78252579  0.40190479  1
  Te  Te80  1  0.07544075  0.75568820  0.76256898  1
  Te  Te81  1  0.33810332  0.10162352  0.10071185  1
  Te  Te82  1  0.41642921  0.06759567  0.40603163  1
  Te  Te83  1  0.45390235  0.05291772  0.74608936  1
  Te  Te84  1  0.41228167  0.37582000  0.11799607  1
  Te  Te85  1  0.40862430  0.40174381  0.42515204  1
  Te  Te86  1  0.40446697  0.41208230  0.75088024  1
  Te  Te87  1  0.42816594  0.73933886  0.07652449  1
  Te  Te88  1  0.41640921  0.71915727  0.42056291  1
  Te  Te89  1  0.41153271  0.78798999  0.74537787  1
  Te  Te90  1  0.75014194  0.09623728  0.07663277  1
  Te  Te91  1  0.72424521  0.05876408  0.43111408  1
  Te  Te92  1  0.71062229  0.07949334  0.75252301  1
  Te  Te93  1  0.75036873  0.41377408  0.08381741  1
  Te  Te94  1  0.77432527  0.42102143  0.42936074  1
  Te  Te95  1  0.75348068  0.43605157  0.74582408  1
  Te  Te96  1  0.72418527  0.75352407  0.10471962  1
  Te  Te97  1  0.73958855  0.75517260  0.44185784  1
  Te  Te98  1  0.76417729  0.77961136  0.75997281  1
  Te  Te99  1  0.08975068  0.22288385  0.23363529  1
  Te  Te100  1  0.06252333  0.25789491  0.57795993  1
  Te  Te101  1  0.12484608  0.23537430  0.92654570  1
  Te  Te102  1  0.10713465  0.62911187  0.23499500  1
  Te  Te103  1  0.09436923  0.58581466  0.58792960  1
  Te  Te104  1  0.10662176  0.58202317  0.91805462  1
  Te  Te105  1  0.10491347  0.92697505  0.21528328  1
  Te  Te106  1  0.07292814  0.91041440  0.58182219  1
  Te  Te107  1  0.07907714  0.92334265  0.91478241  1
  Te  Te108  1  0.43051428  0.26737848  0.23647445  1
  Te  Te109  1  0.42725374  0.20974337  0.58757789  1
  Te  Te110  1  0.44116506  0.22715428  0.94239311  1
  Te  Te111  1  0.39831298  0.57542620  0.22286680  1
  Te  Te112  1  0.44229760  0.56592971  0.58906829  1
  Te  Te113  1  0.41400181  0.59423829  0.91253743  1
  Te  Te114  1  0.40535172  0.91939799  0.23928925  1
  Te  Te115  1  0.39911903  0.93807119  0.57310665  1
  Te  Te116  1  0.43501129  0.94509402  0.88279077  1
  Te  Te117  1  0.75985820  0.24468343  0.25093003  1
  Te  Te118  1  0.75629406  0.25509131  0.57504263  1
  Te  Te119  1  0.73085283  0.25913552  0.90972476  1
  Te  Te120  1  0.75513380  0.58687655  0.27376024  1
  Te  Te121  1  0.72785514  0.60908560  0.60414762  1
  Te  Te122  1  0.75816691  0.59430219  0.94711364  1
  Te  Te123  1  0.70230535  0.92141227  0.25753322  1
  Te  Te124  1  0.77509979  0.97874325  0.56056615  1
  Te  Te125  1  0.75869917  0.92388710  0.92107997  1
  Te  Te126  1  0.28595316  0.29996063  0.07408357  1
  Te  Te127  1  0.22623473  0.25961113  0.41774426  1
  Te  Te128  1  0.26767628  0.23108450  0.76325171  1
  Te  Te129  1  0.26805236  0.56167842  0.10499828  1
  Te  Te130  1  0.23414605  0.56444540  0.41541743  1
  Te  Te131  1  0.27590833  0.58780862  0.73996516  1
  Te  Te132  1  0.26701143  0.90001728  0.06611766  1
  Te  Te133  1  0.25061808  0.91350928  0.38693627  1
  Te  Te134  1  0.24137319  0.91118498  0.74640151  1
  Te  Te135  1  0.55722481  0.22253258  0.06868263  1
  Te  Te136  1  0.59538026  0.24016558  0.41174825  1
  Te  Te137  1  0.56393349  0.24219319  0.74001375  1
  Te  Te138  1  0.55988565  0.56027353  0.07254749  1
  Te  Te139  1  0.57117631  0.55785268  0.40009630  1
  Te  Te140  1  0.58307006  0.60612339  0.76458731  1
  Te  Te141  1  0.54723435  0.93050277  0.09762775  1
  Te  Te142  1  0.56894203  0.89123973  0.43490521  1
  Te  Te143  1  0.61766566  0.87954380  0.68088775  1
  Te  Te144  1  0.91078189  0.26014797  0.05561610  1
  Te  Te145  1  0.90439351  0.24020293  0.43321566  1
  Te  Te146  1  0.92434119  0.25023829  0.75257872  1
  Te  Te147  1  0.92246717  0.57617180  0.09498236  1
  Te  Te148  1  0.94713725  0.59982775  0.41562941  1
  Te  Te149  1  0.91419383  0.58950697  0.74555220  1
  Te  Te150  1  0.90132615  0.91122306  0.10234338  1
  Te  Te151  1  0.90419823  0.93117809  0.40172757  1
  Te  Te152  1  0.92228736  0.93963463  0.73200603  1
  Te  Te153  1  0.27940855  0.11436947  0.24827861  1
  Te  Te154  1  0.23593590  0.09231518  0.57284793  1
  Te  Te155  1  0.30991257  0.03380129  0.91476682  1
  Te  Te156  1  0.23773200  0.43416397  0.25253825  1
  Te  Te157  1  0.23755855  0.39848453  0.58380506  1
  Te  Te158  1  0.31462837  0.41949325  0.93108396  1
  Te  Te159  1  0.22349100  0.73529615  0.24349948  1
  Te  Te160  1  0.27052527  0.73113864  0.57846467  1
  Te  Te161  1  0.26627818  0.77087264  0.90972095  1
  Te  Te162  1  0.58901404  0.06668293  0.25594346  1
  Te  Te163  1  0.63745383  0.08705608  0.55620440  1
  Te  Te164  1  0.55893111  0.05092342  0.92682550  1
  Te  Te165  1  0.58982112  0.40463708  0.23662152  1
  Te  Te166  1  0.59398923  0.40964992  0.57867479  1
  Te  Te167  1  0.57797652  0.42659369  0.91640660  1
  Te  Te168  1  0.56300796  0.73455332  0.23935872  1
  Te  Te169  1  0.50293617  0.76429600  0.62814636  1
  Te  Te170  1  0.59822406  0.77947985  0.91103161  1
  Te  Te171  1  0.91838795  0.08756820  0.24034983  1
  Te  Te172  1  0.90060913  0.05838519  0.60576025  1
  Te  Te173  1  0.90672558  0.10357101  0.91855419  1
  Te  Te174  1  0.91897934  0.40387683  0.23384052  1
  Te  Te175  1  0.91331053  0.43986816  0.59376680  1
  Te  Te176  1  0.92105013  0.43311027  0.91449359  1
  Te  Te177  1  0.91444968  0.75521281  0.26470191  1
  Te  Te178  1  0.89236669  0.76630490  0.59044382  1
  Te  Te179  1  0.93063234  0.73943576  0.93848076  1
