# generated using pymatgen
data_In2Te3
_symmetry_space_group_name_H-M   'P 1'
_cell_length_a   18.88643820
_cell_length_b   18.89360438
_cell_length_c   18.89542865
_cell_angle_alpha   89.76758982
_cell_angle_beta   89.98102513
_cell_angle_gamma   89.92134697
_symmetry_Int_Tables_number   1
_chemical_formula_structural   In2Te3
_chemical_formula_sum   'In72 Te108'
_cell_volume   6742.44826052
_cell_formula_units_Z   36
loop_
 _symmetry_equiv_pos_site_id
 _symmetry_equiv_pos_as_xyz
  1  'x, y, z'
loop_
 _atom_site_type_symbol
 _atom_site_label
 _atom_site_symmetry_multiplicity
 _atom_site_fract_x
 _atom_site_fract_y
 _atom_site_fract_z
 _atom_site_occupancy
  In  In0  1  0.77561234  -0.02654261  0.18189448  1
  In  In1  1  -0.00424806  0.81284081  0.16148557  1
  In  In2  1  0.34822909  0.17475356  0.19617963  1
  In  In3  1  0.65065538  0.68639177  0.32997249  1
  In  In4  1  0.00476274  0.18415076  0.81977430  1
  In  In5  1  0.52691501  0.34583369  0.81085373  1
  In  In6  1  0.83743410  0.01152721  0.48525461  1
  In  In7  1  0.51622476  -0.00302232  0.18498033  1
  In  In8  1  0.32895820  0.17074082  0.79330312  1
  In  In9  1  0.65499266  0.01092469  0.63721612  1
  In  In10  1  0.06247948  0.35455959  0.62322191  1
  In  In11  1  0.31979646  0.82012158  0.47094611  1
  In  In12  1  0.16156981  0.51410024  0.01979476  1
  In  In13  1  0.83739535  0.36160586  0.19139143  1
  In  In14  1  0.84132820  0.34321589  0.49872004  1
  In  In15  1  0.65233185  0.83624890  0.84083897  1
  In  In16  1  0.65099514  0.14185076  0.82972652  1
  In  In17  1  0.00065788  0.82997395  0.47219792  1
  In  In18  1  0.17518968  0.83483685  0.66692630  1
  In  In19  1  0.31629140  0.68100251  0.01425255  1
  In  In20  1  0.19795428  0.01269154  0.17159164  1
  In  In21  1  0.00702837  0.36064949  0.34503818  1
  In  In22  1  0.16733800  0.00378080  0.48248737  1
  In  In23  1  0.81483062  0.16876543  0.34116563  1
  In  In24  1  0.18528987  0.14966674  0.00863137  1
  In  In25  1  -0.00008065  0.00321103  0.32171684  1
  In  In26  1  0.01078753  0.37797421  -0.01163317  1
  In  In27  1  0.66409380  0.15632584  0.17343403  1
  In  In28  1  0.30730400  0.47464421  0.51687181  1
  In  In29  1  0.68825925  0.33377647  0.03765506  1
  In  In30  1  0.01379672  0.66259607  0.65246476  1
  In  In31  1  0.14920649  0.01216452  0.83934853  1
  In  In32  1  0.65965299  0.48788304  0.50813431  1
  In  In33  1  0.48688271  -0.00291637  0.49769033  1
  In  In34  1  0.50715767  0.68600597  0.84897004  1
  In  In35  1  0.48015530  0.35873970  0.19297178  1
  In  In36  1  0.35197237  -0.00179498  0.66963621  1
  In  In37  1  0.69500141  0.51493147  0.83400591  1
  In  In38  1  -0.00717907  0.19080079  0.20022052  1
  In  In39  1  0.86465983  0.81602953  0.66148873  1
  In  In40  1  0.52670414  0.46231305  0.63845489  1
  In  In41  1  0.33183247  0.67151892  0.31012377  1
  In  In42  1  0.32861612  0.30817582  -0.01763101  1
  In  In43  1  0.52163045  0.51657979  0.00774521  1
  In  In44  1  0.14725553  0.37016017  0.17255075  1
  In  In45  1  0.33695092  0.49558750  0.81656318  1
  In  In46  1  0.49830743  0.80039188  0.68099204  1
  In  In47  1  0.67667012  0.63172241  0.66892012  1
  In  In48  1  0.33642761  0.66234171  0.68545015  1
  In  In49  1  0.35913854  0.17266192  0.50565560  1
  In  In50  1  -0.00044945  -0.00153112  0.00471991  1
  In  In51  1  0.34071237  0.52349325  0.15445536  1
  In  In52  1  0.81898560  0.15091571  0.67507024  1
  In  In53  1  0.33997297  0.83899575  0.17168298  1
  In  In54  1  0.83290684  0.80505898  0.01903299  1
  In  In55  1  0.18061388  0.65934823  0.84173495  1
  In  In56  1  0.66773638  -0.03558528  0.02625372  1
  In  In57  1  0.83527468  0.67923432  0.84868679  1
  In  In58  1  0.86055276  0.17583000  -0.00682775  1
  In  In59  1  0.64514799  0.32520147  0.60446627  1
  In  In60  1  0.83759322  0.34119339  0.84619223  1
  In  In61  1  0.66237980  0.49312485  0.18592182  1
  In  In62  1  0.47322615  0.66831299  0.48758920  1
  In  In63  1  0.36539617  -0.04188197  -0.01034042  1
  In  In64  1  0.67703720  0.82671119  0.48720526  1
  In  In65  1  0.16272625  0.32777205  0.81347300  1
  In  In66  1  0.84289554  0.48713494  0.66269108  1
  In  In67  1  0.32558458  0.32994462  0.35197828  1
  In  In68  1  -0.01210965  0.00156356  0.68033658  1
  In  In69  1  0.11800536  0.63255976  0.43621987  1
  In  In70  1  0.85024581  0.66269190  0.18533269  1
  In  In71  1  0.50858974  0.15191799  0.00268297  1
  Te  Te72  1  0.07032313  0.10085888  0.09683336  1
  Te  Te73  1  0.06490029  0.09030970  0.41979268  1
  Te  Te74  1  0.09351943  0.10179745  0.72865778  1
  Te  Te75  1  0.04100651  0.46152528  0.11338742  1
  Te  Te76  1  0.11073118  0.45137060  0.40293759  1
  Te  Te77  1  0.05369171  0.40827149  0.76033251  1
  Te  Te78  1  0.05123509  0.71465002  0.06521327  1
  Te  Te79  1  0.11166796  0.77731046  0.38808771  1
  Te  Te80  1  0.08507875  0.75028296  0.75331562  1
  Te  Te81  1  0.40293620  0.08154826  0.08598937  1
  Te  Te82  1  0.38928588  0.06353631  0.40883457  1
  Te  Te83  1  0.43884941  0.08489272  0.74983540  1
  Te  Te84  1  0.41176918  0.41377740  0.06120130  1
  Te  Te85  1  0.40220671  0.44730686  0.40456383  1
  Te  Te86  1  0.40908036  0.39618980  0.72756706  1
  Te  Te87  1  0.42230655  0.74189402  0.09530241  1
  Te  Te88  1  0.43297909  0.76932939  0.38328346  1
  Te  Te89  1  0.38762023  0.76833345  0.78874072  1
  Te  Te90  1  0.74986833  0.09371161  0.06493481  1
  Te  Te91  1  0.72645429  0.07200113  0.40922387  1
  Te  Te92  1  0.74751561  0.04836660  0.75863545  1
  Te  Te93  1  0.77287257  0.44840496  0.08261826  1
  Te  Te94  1  0.74219532  0.41151974  0.41304727  1
  Te  Te95  1  0.73909887  0.40548936  0.73816790  1
  Te  Te96  1  0.74461897  0.75500758  0.12797298  1
  Te  Te97  1  0.76359427  0.73623554  0.41159675  1
  Te  Te98  1  0.73970168  0.74971673  0.74055374  1
  Te  Te99  1  0.10374464  0.26197686  0.27145976  1
  Te  Te100  1  0.10477144  0.25411233  0.52418995  1
  Te  Te101  1  0.08763983  0.24857309  0.93476756  1
  Te  Te102  1  0.10283892  0.56138204  0.29521409  1
  Te  Te103  1  0.09796205  0.57346839  0.57385245  1
  Te  Te104  1  0.08314167  0.57302560  0.91147678  1
  Te  Te105  1  0.08345324  0.92592330  0.22270669  1
  Te  Te106  1  0.07290823  0.91226265  0.58079128  1
  Te  Te107  1  0.08785517  0.91170476  0.92708988  1
  Te  Te108  1  0.44073140  0.24770796  0.29243707  1
  Te  Te109  1  0.40896665  0.26959820  0.60616012  1
  Te  Te110  1  0.44185679  0.24733305  0.90045737  1
  Te  Te111  1  0.43935412  0.59959272  0.23399428  1
  Te  Te112  1  0.42140103  0.57192342  0.59581992  1
  Te  Te113  1  0.40785252  0.58262200  0.91895144  1
  Te  Te114  1  0.40202415  0.94081842  0.25959750  1
  Te  Te115  1  0.41001548  0.88267764  0.58386188  1
  Te  Te116  1  0.43554945  0.86997714  0.89878442  1
  Te  Te117  1  0.73616349  0.26596884  0.25304156  1
  Te  Te118  1  0.75740205  0.22745227  0.55941080  1
  Te  Te119  1  0.74031734  0.24157481  0.91184125  1
  Te  Te120  1  0.74914515  0.58372770  0.27146815  1
  Te  Te121  1  0.76989257  0.57879766  0.56253433  1
  Te  Te122  1  0.73356603  0.61285061  0.93694726  1
  Te  Te123  1  0.69651018  0.90765095  0.28934866  1
  Te  Te124  1  0.76776468  0.91124754  0.58789524  1
  Te  Te125  1  0.76144140  0.90392248  0.92283243  1
  Te  Te126  1  0.24606513  0.26013510  0.10153726  1
  Te  Te127  1  0.23997344  0.24916378  0.44507866  1
  Te  Te128  1  0.24002867  0.25383781  0.71074486  1
  Te  Te129  1  0.22256216  0.61205059  0.11626827  1
  Te  Te130  1  0.27230002  0.59497277  0.42635112  1
  Te  Te131  1  0.23096760  0.56212086  0.73131139  1
  Te  Te132  1  0.24380954  0.91357451  0.06724000  1
  Te  Te133  1  0.22225495  0.89988455  0.39058740  1
  Te  Te134  1  0.24959695  0.92773745  0.75893067  1
  Te  Te135  1  0.56426381  0.25723861  0.09702232  1
  Te  Te136  1  0.60683066  0.26004990  0.47529815  1
  Te  Te137  1  0.59688152  0.24059693  0.72751753  1
  Te  Te138  1  0.57299874  0.59449007  0.12063604  1
  Te  Te139  1  0.57619074  0.58054678  0.41983023  1
  Te  Te140  1  0.56664678  0.57040534  0.75708074  1
  Te  Te141  1  0.55916830  0.88818329  0.09222895  1
  Te  Te142  1  0.58205211  0.91549147  0.41445111  1
  Te  Te143  1  0.57753949  0.91773035  0.73388170  1
  Te  Te144  1  0.92234958  0.27652844  0.08834975  1
  Te  Te145  1  0.92227660  0.24871710  0.41036808  1
  Te  Te146  1  0.90565099  0.26140270  0.73427179  1
  Te  Te147  1  0.94924793  0.60883444  0.08587782  1
  Te  Te148  1  0.98421168  0.56744360  0.38881165  1
  Te  Te149  1  0.91049248  0.59367757  0.74594501  1
  Te  Te150  1  0.89920440  0.92614472  0.09615323  1
  Te  Te151  1  0.89995837  0.91056417  0.39025578  1
  Te  Te152  1  0.92818074  0.89773229  0.76427789  1
  Te  Te153  1  0.24297998  0.10672716  0.27334707  1
  Te  Te154  1  0.25825767  0.07591130  0.57922360  1
  Te  Te155  1  0.27553891  0.08208659  0.90872497  1
  Te  Te156  1  0.26520973  0.42855818  0.24659906  1
  Te  Te157  1  0.21110291  0.38713964  0.58860744  1
  Te  Te158  1  0.24437677  0.41863432  0.91793706  1
  Te  Te159  1  0.23453160  0.76048455  0.24268237  1
  Te  Te160  1  0.25232059  0.73731699  0.58141096  1
  Te  Te161  1  0.23198098  0.76621622  0.92888090  1
  Te  Te162  1  0.58332795  0.09169254  0.27674466  1
  Te  Te163  1  0.56394729  0.10314339  0.56724861  1
  Te  Te164  1  0.57892646  0.04573784  0.92332564  1
  Te  Te165  1  0.58547547  0.40864534  0.28024037  1
  Te  Te166  1  0.49630288  0.35950478  0.51788045  1
  Te  Te167  1  0.60284618  0.41358115  0.92703331  1
  Te  Te168  1  0.61676848  0.79470457  0.22780609  1
  Te  Te169  1  0.58810697  0.72953638  0.57958037  1
  Te  Te170  1  0.61134023  0.73363053  0.94128427  1
  Te  Te171  1  0.88899383  0.08432568  0.23571342  1
  Te  Te172  1  0.92414590  0.09452984  0.57833266  1
  Te  Te173  1  0.92302448  0.07972096  0.89508040  1
  Te  Te174  1  0.90720191  0.45403026  0.28337401  1
  Te  Te175  1  0.94320404  0.43587379  0.56188307  1
  Te  Te176  1  0.90292351  0.44942876  0.91911980  1
  Te  Te177  1  0.93637913  0.74222387  0.27649282  1
  Te  Te178  1  0.91907802  0.72837704  0.55053030  1
  Te  Te179  1  0.93905379  0.74297264  0.93484622  1
