# generated using pymatgen
data_In2Te3
_symmetry_space_group_name_H-M   'P 1'
_cell_length_a   18.96752031
_cell_length_b   18.95793080
_cell_length_c   18.97182550
_cell_angle_alpha   89.80022015
_cell_angle_beta   89.90557007
_cell_angle_gamma   89.97982226
_symmetry_Int_Tables_number   1
_chemical_formula_structural   In2Te3
_chemical_formula_sum   'In72 Te108'
_cell_volume   6821.93154518
_cell_formula_units_Z   36
loop_
 _symmetry_equiv_pos_site_id
 _symmetry_equiv_pos_as_xyz
  1  'x, y, z'
loop_
 _atom_site_type_symbol
 _atom_site_label
 _atom_site_symmetry_multiplicity
 _atom_site_fract_x
 _atom_site_fract_y
 _atom_site_fract_z
 _atom_site_occupancy
  In  In0  1  0.82364625  0.83530810  0.30383277  1
  In  In1  1  0.13387609  0.35125285  0.81758108  1
  In  In2  1  0.69761968  0.82642590  0.82839057  1
  In  In3  1  0.67922144  0.18931093  0.83939243  1
  In  In4  1  -0.04012793  -0.03155317  0.68770707  1
  In  In5  1  0.49873869  0.80952690  0.00109930  1
  In  In6  1  0.68890045  0.65116521  0.33081446  1
  In  In7  1  0.16791464  0.83818766  0.66156904  1
  In  In8  1  0.83627852  0.63505531  0.18676515  1
  In  In9  1  -0.00077214  0.83827795  0.50239293  1
  In  In10  1  0.52339684  0.14856492  0.29844029  1
  In  In11  1  0.50851268  0.50748505  -0.00014440  1
  In  In12  1  0.84542746  0.15248165  0.02840569  1
  In  In13  1  0.00508654  0.36539103  -0.02004865  1
  In  In14  1  0.50207753  0.35862531  0.48895809  1
  In  In15  1  0.84288957  0.63953761  0.51276605  1
  In  In16  1  0.15356670  0.66369654  0.82416178  1
  In  In17  1  -0.00215502  0.63988955  0.36578514  1
  In  In18  1  0.33580786  0.65090611  0.29848599  1
  In  In19  1  0.67644468  0.00909255  0.67192337  1
  In  In20  1  0.17780619  0.81859944  -0.02491101  1
  In  In21  1  0.33984648  0.82525807  0.16699778  1
  In  In22  1  -0.01226712  0.16452197  0.84989306  1
  In  In23  1  0.67375282  0.16634167  0.52274944  1
  In  In24  1  0.68363298  0.34883887  0.63777077  1
  In  In25  1  0.33274148  -0.00260895  0.33241727  1
  In  In26  1  0.02446985  0.20336615  0.20181515  1
  In  In27  1  0.48717524  0.17311149  0.00383019  1
  In  In28  1  0.33878511  0.00537276  0.01456334  1
  In  In29  1  0.31943977  0.33939399  0.69336428  1
  In  In30  1  0.68710503  0.32869359  0.00142824  1
  In  In31  1  0.84129091  0.50401094  0.68700610  1
  In  In32  1  0.68320211  0.53583401  0.81843312  1
  In  In33  1  0.00961688  0.19041754  0.47927773  1
  In  In34  1  0.84148529  0.17715887  0.34368916  1
  In  In35  1  0.68143349  0.34233476  0.35017646  1
  In  In36  1  0.46964523  0.16579646  0.65463466  1
  In  In37  1  0.31922174  0.66447779  0.65953702  1
  In  In38  1  0.64818531  0.84454385  0.15224458  1
  In  In39  1  0.32560365  0.16260101  0.48190714  1
  In  In40  1  0.00136284  0.66034441  -0.01154659  1
  In  In41  1  0.31000508  0.15764099  0.85524817  1
  In  In42  1  0.67570959  0.67152055  -0.00748959  1
  In  In43  1  0.49871667  0.85406538  0.34101359  1
  In  In44  1  0.32986288  0.49893204  0.49201859  1
  In  In45  1  0.82282237  0.82228269  -0.01713926  1
  In  In46  1  0.51338119  0.34534700  0.80752521  1
  In  In47  1  0.82612676  0.33553957  0.16525180  1
  In  In48  1  0.00411895  0.46601147  0.17082989  1
  In  In49  1  0.16077941  0.01100917  0.18651348  1
  In  In50  1  0.47280485  0.82163562  0.66944094  1
  In  In51  1  0.30439523  0.30729616  0.00584264  1
  In  In52  1  0.47410140  0.33508029  0.16771593  1
  In  In53  1  0.81715234  0.00308401  0.50901206  1
  In  In54  1  -0.00717708  0.65253869  0.68155521  1
  In  In55  1  -0.00217184  0.03358306  0.34281069  1
  In  In56  1  0.32658668  -0.00725162  0.64031470  1
  In  In57  1  0.49465238  0.67172873  0.16349186  1
  In  In58  1  0.80557378  -0.00968990  0.15360848  1
  In  In59  1  0.02656590  0.79905528  0.14229020  1
  In  In60  1  0.50041213  -0.01299668  0.84963467  1
  In  In61  1  0.02154627  0.50568973  0.52422232  1
  In  In62  1  0.33870259  0.50770226  0.83356667  1
  In  In63  1  0.19115354  0.49029903  0.29383414  1
  In  In64  1  0.49554608  0.70230538  0.50248332  1
  In  In65  1  0.85534695  0.19274953  0.66621651  1
  In  In66  1  0.16619126  0.86122063  0.34525236  1
  In  In67  1  0.15982568  -0.00425980  0.83024413  1
  In  In68  1  0.65335718  0.82024302  0.50709294  1
  In  In69  1  0.16565628  0.33403417  0.50061327  1
  In  In70  1  0.01161875  -0.00927778  0.01470261  1
  In  In71  1  0.51935719  0.50695638  0.34584443  1
  Te  Te72  1  0.07361020  0.09849303  0.09789199  1
  Te  Te73  1  0.10453325  0.09878521  0.41550008  1
  Te  Te74  1  0.05646862  0.07229315  0.75080716  1
  Te  Te75  1  0.10570959  0.42345047  0.07194803  1
  Te  Te76  1  0.09885781  0.43878924  0.41364393  1
  Te  Te77  1  0.04330002  0.38142413  0.70320496  1
  Te  Te78  1  0.12397397  0.71043545  0.06833058  1
  Te  Te79  1  0.08740775  0.74866057  0.42086027  1
  Te  Te80  1  0.06895372  0.76625715  0.75033024  1
  Te  Te81  1  0.39571639  0.10934127  0.09930142  1
  Te  Te82  1  0.43169331  0.08525785  0.40885049  1
  Te  Te83  1  0.40964610  0.08102342  0.76666938  1
  Te  Te84  1  0.40353686  0.41178879  0.05702036  1
  Te  Te85  1  0.40341584  0.41603753  0.38893469  1
  Te  Te86  1  0.42945312  0.43981312  0.72760699  1
  Te  Te87  1  0.38906735  0.72263897  0.06811034  1
  Te  Te88  1  0.40131915  0.75395622  0.39658100  1
  Te  Te89  1  0.39907172  0.73573643  0.76187074  1
  Te  Te90  1  0.71918937  0.09512102  0.08986389  1
  Te  Te91  1  0.73843693  0.08637309  0.41085374  1
  Te  Te92  1  0.76656540  0.10015192  0.75168424  1
  Te  Te93  1  0.75785802  0.43037670  0.07742396  1
  Te  Te94  1  0.75155428  0.45691078  0.40594906  1
  Te  Te95  1  0.74791299  0.40640030  0.75980417  1
  Te  Te96  1  0.75626089  0.74575283  0.10926715  1
  Te  Te97  1  0.76743003  0.74903696  0.41887256  1
  Te  Te98  1  0.80447593  0.74065574  0.77520817  1
  Te  Te99  1  0.13030303  0.26721967  0.28206401  1
  Te  Te100  1  0.07363286  0.26042923  0.59373853  1
  Te  Te101  1  0.08824327  0.25004386  0.92328891  1
  Te  Te102  1  0.07068858  0.57960976  0.24938863  1
  Te  Te103  1  0.09865076  0.61054591  0.58875923  1
  Te  Te104  1  0.07680655  0.56315044  0.90404753  1
  Te  Te105  1  0.05678394  0.91728782  0.25280925  1
  Te  Te106  1  0.07355218  0.93560301  0.58960505  1
  Te  Te107  1  0.06921414  0.90035190  0.90768047  1
  Te  Te108  1  0.41473673  0.24041668  0.26243933  1
  Te  Te109  1  0.40167949  0.27615427  0.57540839  1
  Te  Te110  1  0.41973730  0.26228805  0.89338184  1
  Te  Te111  1  0.42963231  0.54688436  0.22585208  1
  Te  Te112  1  0.42058121  0.58974082  0.57200920  1
  Te  Te113  1  0.44178256  0.58941274  0.89872733  1
  Te  Te114  1  0.42813861  0.92822710  0.23019415  1
  Te  Te115  1  0.42504154  0.91438722  0.56740380  1
  Te  Te116  1  0.40000973  0.90262681  0.92309442  1
  Te  Te117  1  0.74124504  0.24378922  0.25132603  1
  Te  Te118  1  0.78139595  0.26781306  0.55546419  1
  Te  Te119  1  0.78938231  0.24966034  0.92354139  1
  Te  Te120  1  0.74814242  0.53708831  0.25691676  1
  Te  Te121  1  0.74316078  0.58648411  0.60914955  1
  Te  Te122  1  0.77215452  0.58567860  0.92240030  1
  Te  Te123  1  0.71466813  0.92997333  0.26076012  1
  Te  Te124  1  0.75096012  0.89949791  0.59619476  1
  Te  Te125  1  0.72643581  0.92104033  0.93629971  1
  Te  Te126  1  0.24317530  0.24057181  0.12169965  1
  Te  Te127  1  0.24713619  0.25982585  0.40002315  1
  Te  Te128  1  0.22644395  0.23920887  0.75936168  1
  Te  Te129  1  0.27386104  0.56551460  0.18995290  1
  Te  Te130  1  0.24633525  0.58617788  0.40383189  1
  Te  Te131  1  0.23425033  0.56538009  0.74007943  1
  Te  Te132  1  0.23367928  0.91133744  0.09014822  1
  Te  Te133  1  0.24313544  0.94329392  0.43638360  1
  Te  Te134  1  0.26174304  0.91483291  0.75429171  1
  Te  Te135  1  0.58036548  0.26143470  0.08393459  1
  Te  Te136  1  0.58283929  0.24573967  0.42763979  1
  Te  Te137  1  0.58810950  0.24188568  0.72341971  1
  Te  Te138  1  0.59838463  0.58617845  0.09300268  1
  Te  Te139  1  0.59249423  0.60261467  0.43739621  1
  Te  Te140  1  0.60999577  0.60489167  0.71277376  1
  Te  Te141  1  0.56164216  0.92478127  0.06627828  1
  Te  Te142  1  0.59054836  0.92606225  0.42832494  1
  Te  Te143  1  0.58227624  0.91331490  0.74640544  1
  Te  Te144  1  0.93738041  0.25993325  0.08420458  1
  Te  Te145  1  0.92830522  0.28381825  0.39809123  1
  Te  Te146  1  0.92956513  0.27456118  0.76559464  1
  Te  Te147  1  0.92484799  0.56953843  0.08592445  1
  Te  Te148  1  0.89174316  0.54111120  0.41024547  1
  Te  Te149  1  0.94934925  0.54965925  0.78509308  1
  Te  Te150  1  0.91550350  0.89576233  0.09260985  1
  Te  Te151  1  0.90257142  0.92022030  0.41050830  1
  Te  Te152  1  0.85659896  0.88605189  0.75548254  1
  Te  Te153  1  0.25512043  0.09758367  0.25518998  1
  Te  Te154  1  0.25357554  0.11179626  0.59961090  1
  Te  Te155  1  0.22142314  0.07463188  0.94421620  1
  Te  Te156  1  0.21620531  0.36764980  0.19966936  1
  Te  Te157  1  0.24341821  0.42582489  0.59378390  1
  Te  Te158  1  0.24884298  0.40556672  0.90258656  1
  Te  Te159  1  0.23482817  0.76206431  0.25437775  1
  Te  Te160  1  0.24767374  0.75701128  0.57090909  1
  Te  Te161  1  0.26390807  0.73557988  0.89083130  1
  Te  Te162  1  0.60612413  0.08472692  0.19773508  1
  Te  Te163  1  0.56926052  0.07430867  0.58522007  1
  Te  Te164  1  0.58371688  0.09625975  0.91332953  1
  Te  Te165  1  0.58303785  0.40540477  0.25265663  1
  Te  Te166  1  0.58681785  0.43846274  0.57652701  1
  Te  Te167  1  0.59714246  0.41892435  0.90907851  1
  Te  Te168  1  0.58338877  0.74439430  0.26248260  1
  Te  Te169  1  0.59770758  0.73515269  0.62156421  1
  Te  Te170  1  0.58470791  0.74237560  0.89642946  1
  Te  Te171  1  0.90162582  0.08194338  0.23641104  1
  Te  Te172  1  0.92163820  0.08515489  0.57849366  1
  Te  Te173  1  0.90730460  0.05765418  0.92734145  1
  Te  Te174  1  0.92050110  0.38923761  0.26695954  1
  Te  Te175  1  0.92324933  0.41920964  0.59388561  1
  Te  Te176  1  0.91889607  0.46011770  0.90904549  1
  Te  Te177  1  0.92960724  0.73527002  0.26024787  1
  Te  Te178  1  0.91435587  0.74850246  0.58891957  1
  Te  Te179  1  0.91552368  0.74334441  0.89767662  1
