# generated using pymatgen
data_In2Te3
_symmetry_space_group_name_H-M   'P 1'
_cell_length_a   18.81996806
_cell_length_b   18.83255266
_cell_length_c   18.82074279
_cell_angle_alpha   90.02403492
_cell_angle_beta   89.99270300
_cell_angle_gamma   89.97251769
_symmetry_Int_Tables_number   1
_chemical_formula_structural   In2Te3
_chemical_formula_sum   'In72 Te108'
_cell_volume   6670.59756120
_cell_formula_units_Z   36
loop_
 _symmetry_equiv_pos_site_id
 _symmetry_equiv_pos_as_xyz
  1  'x, y, z'
loop_
 _atom_site_type_symbol
 _atom_site_label
 _atom_site_symmetry_multiplicity
 _atom_site_fract_x
 _atom_site_fract_y
 _atom_site_fract_z
 _atom_site_occupancy
  In  In0  1  0.35333832  0.83766529  0.84890543  1
  In  In1  1  0.49691364  0.12178489  0.02084094  1
  In  In2  1  0.68458100  0.34098930  0.02337862  1
  In  In3  1  0.34955011  0.49810986  0.51748416  1
  In  In4  1  0.18308683  0.82597199  0.31701429  1
  In  In5  1  0.14679868  0.48973518  -0.01269629  1
  In  In6  1  0.66938869  0.68714352  -0.02074306  1
  In  In7  1  -0.00602990  -0.01259937  0.68261926  1
  In  In8  1  -0.01722201  -0.00815431  -0.01969754  1
  In  In9  1  0.81418852  0.84631698  -0.01305219  1
  In  In10  1  0.48748371  0.52904897  0.67413119  1
  In  In11  1  0.83770281  0.66924480  0.15046705  1
  In  In12  1  0.65804876  0.31026054  0.33519161  1
  In  In13  1  0.18972193  0.00988615  0.17865615  1
  In  In14  1  0.52258890  0.50184977  0.33723538  1
  In  In15  1  0.83805519  0.15532296  0.00078439  1
  In  In16  1  0.14582498  0.65352528  0.51485800  1
  In  In17  1  0.68415614  0.33383713  0.64635520  1
  In  In18  1  0.16087340  0.83147211  0.66376443  1
  In  In19  1  0.51133724  0.32047233  0.48841228  1
  In  In20  1  -0.02715595  0.47267095  0.18775610  1
  In  In21  1  -0.00013120  0.31090681  0.00713126  1
  In  In22  1  0.82170996  0.68516714  0.83328561  1
  In  In23  1  0.83010622  0.83186300  0.65819148  1
  In  In24  1  0.48990849  0.32986771  0.83844743  1
  In  In25  1  0.34514973  0.31873259  0.64840520  1
  In  In26  1  0.52448514  0.14775106  0.64379034  1
  In  In27  1  0.46842565  0.29718762  0.17309492  1
  In  In28  1  0.15929129  0.84739984  0.00984785  1
  In  In29  1  -0.00841757  0.33000990  0.67894739  1
  In  In30  1  0.49778971  0.51824981  0.01542496  1
  In  In31  1  0.32933041  0.29659977  0.33070469  1
  In  In32  1  0.66803440  0.52916849  0.84078555  1
  In  In33  1  0.83130451  0.49610628  0.66528786  1
  In  In34  1  0.16602296  0.18263644  0.01122987  1
  In  In35  1  0.15131067  0.01942874  0.84978482  1
  In  In36  1  0.49925482  0.84404215  0.66245734  1
  In  In37  1  0.85322751  0.30927463  0.84498095  1
  In  In38  1  0.15208264  0.32839374  0.47321647  1
  In  In39  1  0.67770023  0.12930129  0.80759564  1
  In  In40  1  0.01648247  -0.02304322  0.34636497  1
  In  In41  1  0.30509039  0.30339483  0.03945867  1
  In  In42  1  0.50503476  0.00306093  0.82664620  1
  In  In43  1  0.66661391  0.84823613  0.50010991  1
  In  In44  1  -0.00060250  0.16553555  0.48536899  1
  In  In45  1  0.18364127  0.00756475  0.48567260  1
  In  In46  1  0.68949008  0.50094453  0.17686139  1
  In  In47  1  0.33883858  0.69291398  0.34046562  1
  In  In48  1  0.65748479  0.66551009  0.31954632  1
  In  In49  1  0.14770750  0.32522681  0.85136162  1
  In  In50  1  0.01440502  0.16887665  0.18527577  1
  In  In51  1  0.36145683  0.84505217  0.50084341  1
  In  In52  1  0.85493208  0.66578538  0.51157803  1
  In  In53  1  0.34971027  0.67669073  0.00952515  1
  In  In54  1  0.31798495  -0.00555983  0.65362469  1
  In  In55  1  0.18303715  0.68562765  0.16631332  1
  In  In56  1  -0.00299658  0.65867469  0.33400189  1
  In  In57  1  0.63686081  0.00069771  0.31961784  1
  In  In58  1  0.15504409  0.67305622  0.80368054  1
  In  In59  1  0.82795133  -0.01979276  0.49953960  1
  In  In60  1  0.16874588  0.48724923  0.33928961  1
  In  In61  1  0.29116947  0.52942239  0.82615878  1
  In  In62  1  0.68957472  0.50023713  0.49280697  1
  In  In63  1  -0.00855291  0.50851051  0.82898974  1
  In  In64  1  0.83201803  0.00026200  0.15530892  1
  In  In65  1  0.50407648  0.71285320  0.84192698  1
  In  In66  1  0.82191860  0.18000380  0.32654549  1
  In  In67  1  0.50244215  0.71631756  0.16370330  1
  In  In68  1  0.32155763  0.50509754  0.19629907  1
  In  In69  1  0.31491633  0.16875950  0.84278123  1
  In  In70  1  0.83461924  0.84479302  0.32636018  1
  In  In71  1  0.83029776  0.31097246  0.49166860  1
  Te  Te72  1  0.07131691  0.07275633  0.07799930  1
  Te  Te73  1  0.09840632  0.09664430  0.39135317  1
  Te  Te74  1  0.08874084  0.08753806  0.73641647  1
  Te  Te75  1  0.08473451  0.40182807  0.09247834  1
  Te  Te76  1  0.06025956  0.43518684  0.42439066  1
  Te  Te77  1  0.09087602  0.42427609  0.75007315  1
  Te  Te78  1  0.08138462  0.74308325  0.07877197  1
  Te  Te79  1  0.08924049  0.75241503  0.41295144  1
  Te  Te80  1  0.05498945  0.76291729  0.74130711  1
  Te  Te81  1  0.40718686  0.06874253  0.12635207  1
  Te  Te82  1  0.39248399  0.06492222  0.36255586  1
  Te  Te83  1  0.41056469  0.09766527  0.74671821  1
  Te  Te84  1  0.40849648  0.41789507  0.08766377  1
  Te  Te85  1  0.41144254  0.41588011  0.40064127  1
  Te  Te86  1  0.40367568  0.42165377  0.75023227  1
  Te  Te87  1  0.44031411  0.78719978  0.04948182  1
  Te  Te88  1  0.44707647  0.77180438  0.40202195  1
  Te  Te89  1  0.39968187  0.74796108  0.73625301  1
  Te  Te90  1  0.73693006  0.08394253  0.08074273  1
  Te  Te91  1  0.75104142  0.06810469  0.40148221  1
  Te  Te92  1  0.77966736  0.04169708  0.74729082  1
  Te  Te93  1  0.78344165  0.41942500  0.09781023  1
  Te  Te94  1  0.76013415  0.41186169  0.39316857  1
  Te  Te95  1  0.74285289  0.41676876  0.76358434  1
  Te  Te96  1  0.73161842  0.76358764  0.09544598  1
  Te  Te97  1  0.75814533  0.74632828  0.41638419  1
  Te  Te98  1  0.73264955  0.76546412  0.74712285  1
  Te  Te99  1  0.12224797  0.25598508  0.23171897  1
  Te  Te100  1  0.08025289  0.24803126  0.58469192  1
  Te  Te101  1  0.05789473  0.21571111  0.90350514  1
  Te  Te102  1  0.09666261  0.58062120  0.24078153  1
  Te  Te103  1  0.09707724  0.57301528  0.62585368  1
  Te  Te104  1  0.07424919  0.60151834  0.91660059  1
  Te  Te105  1  0.08696449  0.90719022  0.23141150  1
  Te  Te106  1  0.08660677  0.92745272  0.57212110  1
  Te  Te107  1  0.07078119  0.89940675  0.89606117  1
  Te  Te108  1  0.44881477  0.20997632  0.29450555  1
  Te  Te109  1  0.41833169  0.21999247  0.55775536  1
  Te  Te110  1  0.41562937  0.23780994  0.93566615  1
  Te  Te111  1  0.43393417  0.59513630  0.24591242  1
  Te  Te112  1  0.42170488  0.61298390  0.57299705  1
  Te  Te113  1  0.42405973  0.58624795  0.89968847  1
  Te  Te114  1  0.43820428  0.96452056  0.24140789  1
  Te  Te115  1  0.43940499  0.95619987  0.57213201  1
  Te  Te116  1  0.41803184  0.94148118  0.93048638  1
  Te  Te117  1  0.72966231  0.23803769  0.22812493  1
  Te  Te118  1  0.74008688  0.22269822  0.56869799  1
  Te  Te119  1  0.73147799  0.24625450  0.91118940  1
  Te  Te120  1  0.77657992  0.58734815  0.26697783  1
  Te  Te121  1  0.74264532  0.59791565  0.59525752  1
  Te  Te122  1  0.76793956  0.57771124  0.94109148  1
  Te  Te123  1  0.73491280  0.91314804  0.23625688  1
  Te  Te124  1  0.71783722  0.95961925  0.60546360  1
  Te  Te125  1  0.70430577  0.90828894  0.90971719  1
  Te  Te126  1  0.24526408  0.20702110  0.13824455  1
  Te  Te127  1  0.25445057  0.22717598  0.43740333  1
  Te  Te128  1  0.24123391  0.25946698  0.74741556  1
  Te  Te129  1  0.25404222  0.57094919  0.07281283  1
  Te  Te130  1  0.25768081  0.58736220  0.41556465  1
  Te  Te131  1  0.23406127  0.59280502  0.70118428  1
  Te  Te132  1  0.26172873  0.91732725  0.08848828  1
  Te  Te133  1  0.27300540  0.91908707  0.39830786  1
  Te  Te134  1  0.24756936  0.91961156  0.76580590  1
  Te  Te135  1  0.57303182  0.24974472  0.07212471  1
  Te  Te136  1  0.57850711  0.21094478  0.41347414  1
  Te  Te137  1  0.58212217  0.24990160  0.74616253  1
  Te  Te138  1  0.59599386  0.60089492  0.09608076  1
  Te  Te139  1  0.58384053  0.59678059  0.43700985  1
  Te  Te140  1  0.58641084  0.61790993  0.75041061  1
  Te  Te141  1  0.53901089  0.96012775  0.12852754  1
  Te  Te142  1  0.56369755  0.92882618  0.42742826  1
  Te  Te143  1  0.59576728  0.90991792  0.75615063  1
  Te  Te144  1  0.90683618  0.24349499  0.10607613  1
  Te  Te145  1  0.93992523  0.26400939  0.38208456  1
  Te  Te146  1  0.89284283  0.23247408  0.72772053  1
  Te  Te147  1  0.93687135  0.57674582  0.09080367  1
  Te  Te148  1  0.93744164  0.56808734  0.43590751  1
  Te  Te149  1  0.91200043  0.60086341  0.73941636  1
  Te  Te150  1  0.92260210  0.90085504  0.08566567  1
  Te  Te151  1  0.93141106  0.88851262  0.43600255  1
  Te  Te152  1  0.88477467  0.92368471  0.76716093  1
  Te  Te153  1  0.26031173  0.07816290  0.29700740  1
  Te  Te154  1  0.24252862  0.10031996  0.58553082  1
  Te  Te155  1  0.25528869  0.07503310  0.94589124  1
  Te  Te156  1  0.23544021  0.38765223  0.24433774  1
  Te  Te157  1  0.24476442  0.40751597  0.57521883  1
  Te  Te158  1  0.26272842  0.40404006  0.92051268  1
  Te  Te159  1  0.29369288  0.77517633  0.22017996  1
  Te  Te160  1  0.25012161  0.76112956  0.56247587  1
  Te  Te161  1  0.24794121  0.74043739  0.91404366  1
  Te  Te162  1  0.57793593  0.08128689  0.20652233  1
  Te  Te163  1  0.61370922  0.06464487  0.56392408  1
  Te  Te164  1  0.60594258  0.06529478  0.92925269  1
  Te  Te165  1  0.57467546  0.40608670  0.23094529  1
  Te  Te166  1  0.57503685  0.42430251  0.58638991  1
  Te  Te167  1  0.58135745  0.42385146  0.92280021  1
  Te  Te168  1  0.57601225  0.78106663  0.27414234  1
  Te  Te169  1  0.58837776  0.75570980  0.58384222  1
  Te  Te170  1  0.58993402  0.80734157  0.92962231  1
  Te  Te171  1  0.91957089  0.06598933  0.26484932  1
  Te  Te172  1  0.91895739  0.07543411  0.57631694  1
  Te  Te173  1  0.89112632  0.06936528  0.89171349  1
  Te  Te174  1  0.90561617  0.39002932  0.28592555  1
  Te  Te175  1  0.91465394  0.41028030  0.57340944  1
  Te  Te176  1  0.91968725  0.41614679  0.92759544  1
  Te  Te177  1  0.92624671  0.75745547  0.24192660  1
  Te  Te178  1  0.93955385  0.75458920  0.59540510  1
  Te  Te179  1  0.91224435  0.75565128  0.92471313  1
