# generated using pymatgen
data_In2Te3
_symmetry_space_group_name_H-M   'P 1'
_cell_length_a   18.94978507
_cell_length_b   18.93834887
_cell_length_c   18.93410594
_cell_angle_alpha   90.13234267
_cell_angle_beta   90.04905204
_cell_angle_gamma   90.07989844
_symmetry_Int_Tables_number   1
_chemical_formula_structural   In2Te3
_chemical_formula_sum   'In72 Te108'
_cell_volume   6795.00002674
_cell_formula_units_Z   36
loop_
 _symmetry_equiv_pos_site_id
 _symmetry_equiv_pos_as_xyz
  1  'x, y, z'
loop_
 _atom_site_type_symbol
 _atom_site_label
 _atom_site_symmetry_multiplicity
 _atom_site_fract_x
 _atom_site_fract_y
 _atom_site_fract_z
 _atom_site_occupancy
  In  In0  1  0.17300383  0.84195258  -0.01853901  1
  In  In1  1  0.33730306  0.16465402  0.48980032  1
  In  In2  1  0.50058689  -0.00208709  0.83717826  1
  In  In3  1  0.34014999  -0.02991299  0.66627316  1
  In  In4  1  0.33685348  0.00236051  0.33427692  1
  In  In5  1  0.67013227  0.34660334  0.01860036  1
  In  In6  1  -0.00317244  0.84950591  0.16958392  1
  In  In7  1  0.66897506  0.82539437  0.82061617  1
  In  In8  1  0.50594427  0.15117112  0.65633704  1
  In  In9  1  0.15789818  0.32482119  0.83035654  1
  In  In10  1  0.64693789  0.82596232  0.48179339  1
  In  In11  1  0.53001522  0.68869403  0.20342800  1
  In  In12  1  0.50810465  -0.00086037  0.19003321  1
  In  In13  1  -0.01435240  0.66325947  0.01904572  1
  In  In14  1  0.49324536  0.66431453  0.51154772  1
  In  In15  1  0.15943175  0.65623347  0.18740455  1
  In  In16  1  0.32919779  0.34452046  0.65540055  1
  In  In17  1  0.14792719  0.49721553  0.34127296  1
  In  In18  1  0.84121809  0.02477065  0.50278373  1
  In  In19  1  0.83562416  -0.00452022  0.83619521  1
  In  In20  1  0.17531073  0.34825556  0.16931886  1
  In  In21  1  0.83864286  -0.01547677  0.19316031  1
  In  In22  1  0.83654439  0.16744436  0.00216438  1
  In  In23  1  0.82766846  0.80367710  0.66584346  1
  In  In24  1  -0.00740615  0.14996355  0.17686262  1
  In  In25  1  0.64188129  0.18167220  0.18220100  1
  In  In26  1  -0.00917252  0.31755516  0.65771806  1
  In  In27  1  0.49189521  0.33492911  0.18552328  1
  In  In28  1  0.69043629  0.17447225  0.49554447  1
  In  In29  1  0.33691342  0.82729899  0.50151424  1
  In  In30  1  0.16070949  0.16763478  0.67857362  1
  In  In31  1  0.31725983  0.66967161  0.32277241  1
  In  In32  1  0.33054063  0.67656131  0.66490508  1
  In  In33  1  0.17727489  0.52027991  0.63909312  1
  In  In34  1  0.66047873  0.14276582  0.83876252  1
  In  In35  1  0.32474717  0.80383650  0.16888487  1
  In  In36  1  0.50852239  0.32299303  0.84887877  1
  In  In37  1  0.66183154  0.35567915  0.63369325  1
  In  In38  1  0.50877674  0.50497980  0.32757083  1
  In  In39  1  0.01135701  0.15700270  0.49800218  1
  In  In40  1  0.66638471  0.33018346  0.33919057  1
  In  In41  1  0.51363869  0.50322878  0.01782154  1
  In  In42  1  0.32581989  0.02279725  -0.01490161  1
  In  In43  1  0.14297382  0.52025561  0.00866008  1
  In  In44  1  0.83859930  0.81618327  0.34553439  1
  In  In45  1  0.16674176  0.00199423  0.80410619  1
  In  In46  1  0.83738895  0.32929715  0.49711864  1
  In  In47  1  0.33573658  0.47997873  0.83099336  1
  In  In48  1  0.32176589  0.67056180  -0.00601870  1
  In  In49  1  0.81884866  0.35596779  0.17747278  1
  In  In50  1  0.02449194  0.81770360  0.47596324  1
  In  In51  1  0.84000269  0.54218217  0.37497812  1
  In  In52  1  -0.00495759  0.33207095  0.33534458  1
  In  In53  1  0.01325003  0.33834890  -0.00572309  1
  In  In54  1  0.51028991  0.63844490  0.78866295  1
  In  In55  1  0.01432763  0.82223174  0.83174921  1
  In  In56  1  0.68500672  0.68040663  0.00311899  1
  In  In57  1  0.00678708  0.49397584  0.83978341  1
  In  In58  1  0.15528702  -0.00463752  0.17471826  1
  In  In59  1  0.15061679  -0.00514495  0.50653517  1
  In  In60  1  0.33096561  0.32454538  0.33065979  1
  In  In61  1  0.83793131  0.66883865  0.84307584  1
  In  In62  1  0.66722827  -0.01021747  0.01821170  1
  In  In63  1  0.83798823  0.34366830  0.81682622  1
  In  In64  1  0.33960912  0.51079104  0.45995192  1
  In  In65  1  0.68309006  -0.00192576  0.67063230  1
  In  In66  1  0.34209362  0.31881215  -0.00551876  1
  In  In67  1  0.32682987  0.17740699  0.16004764  1
  In  In68  1  0.50157702  0.85295522  -0.00820650  1
  In  In69  1  0.00856064  0.67635992  0.66742174  1
  In  In70  1  0.81168087  0.53273858  0.61975232  1
  In  In71  1  0.82189545  0.66987493  0.17735836  1
  Te  Te72  1  0.07509096  0.07527556  0.08201452  1
  Te  Te73  1  0.07796330  0.06800772  0.40061724  1
  Te  Te74  1  0.06176989  0.06555257  0.71822653  1
  Te  Te75  1  0.06551796  0.43167584  0.10393097  1
  Te  Te76  1  0.07571087  0.40824235  0.43171353  1
  Te  Te77  1  0.09220586  0.42197016  0.73355509  1
  Te  Te78  1  0.09679868  0.75325046  0.08055757  1
  Te  Te79  1  0.08013233  0.69619231  0.41252938  1
  Te  Te80  1  0.10890692  0.76022982  0.73645956  1
  Te  Te81  1  0.41988448  0.07909671  0.09156219  1
  Te  Te82  1  0.42802491  0.05989684  0.43645454  1
  Te  Te83  1  0.41038284  0.08085184  0.74909281  1
  Te  Te84  1  0.40841180  0.41726263  0.08884780  1
  Te  Te85  1  0.43541699  0.40367421  0.41267123  1
  Te  Te86  1  0.43602602  0.40955892  0.74444987  1
  Te  Te87  1  0.43125204  0.74157938  0.07776533  1
  Te  Te88  1  0.41923053  0.74492621  0.40305896  1
  Te  Te89  1  0.43286807  0.75191784  0.74023542  1
  Te  Te90  1  0.74335611  0.09486994  0.09769402  1
  Te  Te91  1  0.73945856  0.06824181  0.40595317  1
  Te  Te92  1  0.76980948  0.09794946  0.74449872  1
  Te  Te93  1  0.75053982  0.44864533  0.08624355  1
  Te  Te94  1  0.74909191  0.42421564  0.42325398  1
  Te  Te95  1  0.75641668  0.43458742  0.72790689  1
  Te  Te96  1  0.75693476  0.77127220  0.09172588  1
  Te  Te97  1  0.75918959  0.73287461  0.44512546  1
  Te  Te98  1  0.73061195  0.71465034  0.73827815  1
  Te  Te99  1  0.08835558  0.25232331  0.24665153  1
  Te  Te100  1  0.10051862  0.25766496  0.57310763  1
  Te  Te101  1  0.06113164  0.23607137  0.89839946  1
  Te  Te102  1  0.06069871  0.56592959  0.24471168  1
  Te  Te103  1  0.06000007  0.57640434  0.56617682  1
  Te  Te104  1  0.07964025  0.60972100  0.90631610  1
  Te  Te105  1  0.06935617  0.92708340  0.27270442  1
  Te  Te106  1  0.07352351  0.89963186  0.58723519  1
  Te  Te107  1  0.07682668  0.93339669  0.91357732  1
  Te  Te108  1  0.42678817  0.22547778  0.26574846  1
  Te  Te109  1  0.42603225  0.25464446  0.57919884  1
  Te  Te110  1  0.41553373  0.22763298  0.90831911  1
  Te  Te111  1  0.41936824  0.59076897  0.24011162  1
  Te  Te112  1  0.40189226  0.56741896  0.58508063  1
  Te  Te113  1  0.42217321  0.57572642  0.91361825  1
  Te  Te114  1  0.41198519  0.89752639  0.25189160  1
  Te  Te115  1  0.42921084  0.93196141  0.55445588  1
  Te  Te116  1  0.39443299  0.91202833  0.90348590  1
  Te  Te117  1  0.75968439  0.24304878  0.25752541  1
  Te  Te118  1  0.76693378  0.25006153  0.60400575  1
  Te  Te119  1  0.74302874  0.25526798  0.91237951  1
  Te  Te120  1  0.74317803  0.60181870  0.28223829  1
  Te  Te121  1  0.71973895  0.60805807  0.53091640  1
  Te  Te122  1  0.73946443  0.58304294  0.90786453  1
  Te  Te123  1  0.74149252  0.89292385  0.26094274  1
  Te  Te124  1  0.75984683  0.90701614  0.57703707  1
  Te  Te125  1  0.74886250  0.90523056  0.92251234  1
  Te  Te126  1  0.22904095  0.24807495  0.06756173  1
  Te  Te127  1  0.24168667  0.24573420  0.41399583  1
  Te  Te128  1  0.26615875  0.25017771  0.75591368  1
  Te  Te129  1  0.25397745  0.58001963  0.09364871  1
  Te  Te130  1  0.22758748  0.60823211  0.42835910  1
  Te  Te131  1  0.24825322  0.57964400  0.75858161  1
  Te  Te132  1  0.26493899  0.91614941  0.08576633  1
  Te  Te133  1  0.24455398  0.91402170  0.41630134  1
  Te  Te134  1  0.23773253  0.89102346  0.73595754  1
  Te  Te135  1  0.56357157  0.25628400  0.07638818  1
  Te  Te136  1  0.58585009  0.25940311  0.43803948  1
  Te  Te137  1  0.59634277  0.24508209  0.74462793  1
  Te  Te138  1  0.59768004  0.59726935  0.10181852  1
  Te  Te139  1  0.58888826  0.58415403  0.42660991  1
  Te  Te140  1  0.59400123  0.56215135  0.69551978  1
  Te  Te141  1  0.58877353  0.89654009  0.10740079  1
  Te  Te142  1  0.58922478  0.89769117  0.36641351  1
  Te  Te143  1  0.57650767  0.91288173  0.73797789  1
  Te  Te144  1  0.91451350  0.26631876  0.09284052  1
  Te  Te145  1  0.91007847  0.23119860  0.41075948  1
  Te  Te146  1  0.93877501  0.24434829  0.77435301  1
  Te  Te147  1  0.89316689  0.57388949  0.08715445  1
  Te  Te148  1  0.95617042  0.60755438  0.44433745  1
  Te  Te149  1  0.91885678  0.57861191  0.74653292  1
  Te  Te150  1  0.92157247  0.93840288  0.08111790  1
  Te  Te151  1  0.91865498  0.91706934  0.42594657  1
  Te  Te152  1  0.91263487  0.89870252  0.74707001  1
  Te  Te153  1  0.24434067  0.09190016  0.25363663  1
  Te  Te154  1  0.25459200  0.07970422  0.59124743  1
  Te  Te155  1  0.23315807  0.09436190  0.89911340  1
  Te  Te156  1  0.26229536  0.43644691  0.25638022  1
  Te  Te157  1  0.25085961  0.42122372  0.55128362  1
  Te  Te158  1  0.23161544  0.42127255  0.92971397  1
  Te  Te159  1  0.21635692  0.77139718  0.26800255  1
  Te  Te160  1  0.23775552  0.75392953  0.58229389  1
  Te  Te161  1  0.25266971  0.75286742  0.89683995  1
  Te  Te162  1  0.59585367  0.07979485  0.27746433  1
  Te  Te163  1  0.59873983  0.07089608  0.56947568  1
  Te  Te164  1  0.57059116  0.08076325  0.94337789  1
  Te  Te165  1  0.60165043  0.42389558  0.23783667  1
  Te  Te166  1  0.59297605  0.47047114  0.57285938  1
  Te  Te167  1  0.59521742  0.43013344  0.91184401  1
  Te  Te168  1  0.61653918  0.76858550  0.29455202  1
  Te  Te169  1  0.56065342  0.77142758  0.58703248  1
  Te  Te170  1  0.57143361  0.74576138  0.90793859  1
  Te  Te171  1  0.92149446  0.07186341  0.27824250  1
  Te  Te172  1  0.93369088  0.08560402  0.60215448  1
  Te  Te173  1  0.92012932  0.07596537  0.92530400  1
  Te  Te174  1  0.89910229  0.43397129  0.27892292  1
  Te  Te175  1  0.91642645  0.42563198  0.58198937  1
  Te  Te176  1  0.90567727  0.42442431  0.92753483  1
  Te  Te177  1  0.93516370  0.74185200  0.25517692  1
  Te  Te178  1  0.91560455  0.73785315  0.56370672  1
  Te  Te179  1  0.91383086  0.76456233  0.93141649  1
