# generated using pymatgen
data_In2Te3
_symmetry_space_group_name_H-M   'P 1'
_cell_length_a   18.95913738
_cell_length_b   18.95246104
_cell_length_c   18.96172176
_cell_angle_alpha   89.97046897
_cell_angle_beta   90.00987030
_cell_angle_gamma   89.92268437
_symmetry_Int_Tables_number   1
_chemical_formula_structural   In2Te3
_chemical_formula_sum   'In72 Te108'
_cell_volume   6813.36249991
_cell_formula_units_Z   36
loop_
 _symmetry_equiv_pos_site_id
 _symmetry_equiv_pos_as_xyz
  1  'x, y, z'
loop_
 _atom_site_type_symbol
 _atom_site_label
 _atom_site_symmetry_multiplicity
 _atom_site_fract_x
 _atom_site_fract_y
 _atom_site_fract_z
 _atom_site_occupancy
  In  In0  1  0.66215745  0.47997492  0.85382879  1
  In  In1  1  0.63987616  -0.02203306  0.66124927  1
  In  In2  1  0.20002993  0.81556769  0.02198330  1
  In  In3  1  0.25688338  -0.04822811  0.84002062  1
  In  In4  1  0.63582479  0.84769699  0.16209887  1
  In  In5  1  0.14826249  0.62508458  0.82263660  1
  In  In6  1  0.35554151  0.80000605  0.16730368  1
  In  In7  1  0.64879418  0.32432459  0.33430211  1
  In  In8  1  0.83815471  0.51916285  -0.00216569  1
  In  In9  1  0.66882584  0.35742028  0.66881170  1
  In  In10  1  0.02306321  0.00476932  0.66657250  1
  In  In11  1  0.70094767  0.16175831  0.86201745  1
  In  In12  1  0.16169280  0.50844886  0.00255499  1
  In  In13  1  0.33020577  0.68659658  0.35725328  1
  In  In14  1  0.48818529  0.51769799  0.65579520  1
  In  In15  1  0.00601142  0.34144389  0.36840001  1
  In  In16  1  0.51064186  0.17476666  0.66789187  1
  In  In17  1  0.48686066  0.00716067  0.49725239  1
  In  In18  1  0.66321495  0.82064920  0.84879847  1
  In  In19  1  0.18087284  0.02588140  0.49762801  1
  In  In20  1  0.17313271  0.16723335  0.66317524  1
  In  In21  1  0.17391509  0.63365386  0.48712702  1
  In  In22  1  0.33588693  0.20743135  0.17278195  1
  In  In23  1  0.49406494  0.17305678  0.32826990  1
  In  In24  1  0.02888197  0.18255805  0.80459835  1
  In  In25  1  0.66758679  0.66634414  0.64943840  1
  In  In26  1  0.82133001  0.64901855  0.81981816  1
  In  In27  1  0.20624646  0.20427419  0.34423739  1
  In  In28  1  0.33837087  0.33102794  0.66809763  1
  In  In29  1  -0.00162247  0.80593994  0.16389974  1
  In  In30  1  -0.01818306  0.64738374  0.30930735  1
  In  In31  1  0.86130701  0.35773366  0.53063790  1
  In  In32  1  0.82505540  0.65576401  0.50130322  1
  In  In33  1  -0.01224042  0.49832866  0.14936111  1
  In  In34  1  0.46907686  0.49342877  0.30467613  1
  In  In35  1  0.17516838  -0.01378412  0.14198215  1
  In  In36  1  0.00377207  0.01631551  0.35240391  1
  In  In37  1  0.00954991  0.66082417  0.66640427  1
  In  In38  1  0.65575513  0.02118145  0.30914507  1
  In  In39  1  0.80714474  0.51209431  0.32096013  1
  In  In40  1  0.82060521  -0.01190316  0.48915456  1
  In  In41  1  0.81045643  0.34849446  0.16701399  1
  In  In42  1  0.34701326  0.00352734  0.29506175  1
  In  In43  1  0.82804399  0.15149826  0.65159071  1
  In  In44  1  0.14208072  0.84052906  0.35037647  1
  In  In45  1  0.87473559  0.01033370  0.82638959  1
  In  In46  1  0.66148695  0.51127412  0.48312617  1
  In  In47  1  0.17799235  0.18485075  -0.00746763  1
  In  In48  1  0.83442677  0.19039503  0.33160587  1
  In  In49  1  0.34573287  0.64246131  0.00874275  1
  In  In50  1  0.47870891  0.67440242  0.82358842  1
  In  In51  1  0.15979726  0.65368559  0.16113151  1
  In  In52  1  -0.00317516  0.83910659  0.51272522  1
  In  In53  1  0.17075903  0.33495880  0.51730585  1
  In  In54  1  0.47801321  -0.02052348  0.83845814  1
  In  In55  1  0.14648740  0.37561860  0.81371053  1
  In  In56  1  0.34424189  0.50003572  0.50240871  1
  In  In57  1  0.35074632  0.16520974  0.84165352  1
  In  In58  1  0.64626924  0.81677029  0.49546956  1
  In  In59  1  0.64632357  -0.01617569  -0.01166304  1
  In  In60  1  0.33482064  0.83202531  0.50568323  1
  In  In61  1  0.50283623  0.18866692  0.02119022  1
  In  In62  1  0.02086584  0.01274321  -0.02149342  1
  In  In63  1  0.64025249  0.65259005  0.30667281  1
  In  In64  1  0.01079054  0.82784644  0.84113639  1
  In  In65  1  0.51688176  0.32266581  0.86497872  1
  In  In66  1  0.82729228  0.16843804  0.03737938  1
  In  In67  1  0.34159983  0.51810337  0.81355378  1
  In  In68  1  0.85208209  0.33347141  0.85619095  1
  In  In69  1  0.00649854  0.18814293  0.20292606  1
  In  In70  1  0.81247994  0.81696257  0.00944889  1
  In  In71  1  0.82267607  -0.02057383  0.14784386  1
  Te  Te72  1  0.07568098  0.10257512  0.08852847  1
  Te  Te73  1  0.09507008  0.11804357  0.41333508  1
  Te  Te74  1  0.11546997  0.06423755  0.76961206  1
  Te  Te75  1  0.09417818  0.41396043  0.09335981  1
  Te  Te76  1  0.10264646  0.43233442  0.42845042  1
  Te  Te77  1  0.03612838  0.43871540  0.73956703  1
  Te  Te78  1  0.07636797  0.73150463  0.06043425  1
  Te  Te79  1  0.06108609  0.73231119  0.41708560  1
  Te  Te80  1  0.10030837  0.75424734  0.74612861  1
  Te  Te81  1  0.42243407  0.10139775  0.10913644  1
  Te  Te82  1  0.39472981  0.09079173  0.40898104  1
  Te  Te83  1  0.41689095  0.07753508  0.73788331  1
  Te  Te84  1  0.41787904  0.39509999  0.12538360  1
  Te  Te85  1  0.41441177  0.40330020  0.41403429  1
  Te  Te86  1  0.44425442  0.40374872  0.75755753  1
  Te  Te87  1  0.43965946  0.74654213  0.05778292  1
  Te  Te88  1  0.43197966  0.77964229  0.40743615  1
  Te  Te89  1  0.37176362  0.75570450  0.76364287  1
  Te  Te90  1  0.72094581  0.07442678  0.08791235  1
  Te  Te91  1  0.74639161  0.09332285  0.40983047  1
  Te  Te92  1  0.74745951  0.06133557  0.74457290  1
  Te  Te93  1  0.74240104  0.45843923  0.09548566  1
  Te  Te94  1  0.75672031  0.40278516  0.42125049  1
  Te  Te95  1  0.76946141  0.42195540  0.76287495  1
  Te  Te96  1  0.70798275  0.74705344  0.08088097  1
  Te  Te97  1  0.73360375  0.72909300  0.40740802  1
  Te  Te98  1  0.74928175  0.75670802  0.74140940  1
  Te  Te99  1  0.10449061  0.28451925  0.26379274  1
  Te  Te100  1  0.07663778  0.25565138  0.59991338  1
  Te  Te101  1  0.08165771  0.27165918  0.91240647  1
  Te  Te102  1  0.08826812  0.55708685  0.25282748  1
  Te  Te103  1  0.06841806  0.56467442  0.56765358  1
  Te  Te104  1  0.05308994  0.55905076  0.91493814  1
  Te  Te105  1  0.06645689  0.92490373  0.23925382  1
  Te  Te106  1  0.10897125  0.91676927  0.57798482  1
  Te  Te107  1  0.11585698  0.90777295  0.92330733  1
  Te  Te108  1  0.46627311  0.28576279  0.22025534  1
  Te  Te109  1  0.42121167  0.24929457  0.57977391  1
  Te  Te110  1  0.39858033  0.26773728  0.94236071  1
  Te  Te111  1  0.39947590  0.61929286  0.24094463  1
  Te  Te112  1  0.41008133  0.61057865  0.57512730  1
  Te  Te113  1  0.43922225  0.56004296  0.92131961  1
  Te  Te114  1  0.43543455  0.89125937  0.25545660  1
  Te  Te115  1  0.41631478  0.91949741  0.59373856  1
  Te  Te116  1  0.37985836  0.87565370  0.88385307  1
  Te  Te117  1  0.72988199  0.23866780  0.23420069  1
  Te  Te118  1  0.75074806  0.26217326  0.58222011  1
  Te  Te119  1  0.74607562  0.27547356  0.95605714  1
  Te  Te120  1  0.73406898  0.58267544  0.21392413  1
  Te  Te121  1  0.75744394  0.55671767  0.59364288  1
  Te  Te122  1  0.72487144  0.59858727  0.92414835  1
  Te  Te123  1  0.74563843  0.91042486  0.25544678  1
  Te  Te124  1  0.74291064  0.89858386  0.58288777  1
  Te  Te125  1  0.76633850  0.93121841  0.90894468  1
  Te  Te126  1  0.23481821  0.28117496  0.08878896  1
  Te  Te127  1  0.28704730  0.29256682  0.43104511  1
  Te  Te128  1  0.25046614  0.25757898  0.77107554  1
  Te  Te129  1  0.26543539  0.56015541  0.10802876  1
  Te  Te130  1  0.25690252  0.55770338  0.38652118  1
  Te  Te131  1  0.24634170  0.58109059  0.72193781  1
  Te  Te132  1  0.29412213  0.91792931  0.08256599  1
  Te  Te133  1  0.25217850  0.93107540  0.39862171  1
  Te  Te134  1  0.29489091  0.88234384  0.71466839  1
  Te  Te135  1  0.61467640  0.27599383  0.05293879  1
  Te  Te136  1  0.57824957  0.23909519  0.42886871  1
  Te  Te137  1  0.61426336  0.24959993  0.76343047  1
  Te  Te138  1  0.50199594  0.53615783  0.15934787  1
  Te  Te139  1  0.55383584  0.58024859  0.40700419  1
  Te  Te140  1  0.58981575  0.57848422  0.75355553  1
  Te  Te141  1  0.54523399  0.91373508  0.06514920  1
  Te  Te142  1  0.58793881  0.93176090  0.41395565  1
  Te  Te143  1  0.56327784  0.88673674  0.75246680  1
  Te  Te144  1  0.92426481  0.26556829  0.10143125  1
  Te  Te145  1  0.92041755  0.24232909  0.44365765  1
  Te  Te146  1  0.90752120  0.24559914  0.74200667  1
  Te  Te147  1  0.91140361  0.60843922  0.09137761  1
  Te  Te148  1  0.91177797  0.56520729  0.41697829  1
  Te  Te149  1  0.93220612  0.57085375  0.75878800  1
  Te  Te150  1  0.93056344  0.91802306  0.05862295  1
  Te  Te151  1  0.91362255  0.90353491  0.40284060  1
  Te  Te152  1  0.92937567  0.90587654  0.73425843  1
  Te  Te153  1  0.22893398  0.08841548  0.24036302  1
  Te  Te154  1  0.27326011  0.09445476  0.58700896  1
  Te  Te155  1  0.26571940  0.07784497  0.93163796  1
  Te  Te156  1  0.31944091  0.35102776  0.22820986  1
  Te  Te157  1  0.25070038  0.43628552  0.60665479  1
  Te  Te158  1  0.25363687  0.43324922  0.90332245  1
  Te  Te159  1  0.22473965  0.76295882  0.24887027  1
  Te  Te160  1  0.23604739  0.74089932  0.56360821  1
  Te  Te161  1  0.23381433  0.70486398  0.92694794  1
  Te  Te162  1  0.55236261  0.08419180  0.22374842  1
  Te  Te163  1  0.59481673  0.09037046  0.57307462  1
  Te  Te164  1  0.57115739  0.08874332  0.90298757  1
  Te  Te165  1  0.59964446  0.43580232  0.24887984  1
  Te  Te166  1  0.57339628  0.42259677  0.57158760  1
  Te  Te167  1  0.58387735  0.41304546  0.96254066  1
  Te  Te168  1  0.55679996  0.76677464  0.26097974  1
  Te  Te169  1  0.55876898  0.73868551  0.58445997  1
  Te  Te170  1  0.55846220  0.75049562  0.92377202  1
  Te  Te171  1  0.90398700  0.07625664  0.24487966  1
  Te  Te172  1  0.92491543  0.06798656  0.56984115  1
  Te  Te173  1  0.92009006  0.11864918  0.92250678  1
  Te  Te174  1  0.91224536  0.40874554  0.26434306  1
  Te  Te175  1  0.97040202  0.42931895  0.59877064  1
  Te  Te176  1  0.93519358  0.42563725  0.93498099  1
  Te  Te177  1  0.89242705  0.73767353  0.23598514  1
  Te  Te178  1  0.90652479  0.74648889  0.59108224  1
  Te  Te179  1  0.90245978  0.74687816  0.90826102  1
