# generated using pymatgen
data_In2Te3
_symmetry_space_group_name_H-M   'P 1'
_cell_length_a   18.85279875
_cell_length_b   18.84099229
_cell_length_c   18.85117788
_cell_angle_alpha   90.06259463
_cell_angle_beta   90.04762103
_cell_angle_gamma   90.06377652
_symmetry_Int_Tables_number   1
_chemical_formula_structural   In2Te3
_chemical_formula_sum   'In72 Te108'
_cell_volume   6696.03039033
_cell_formula_units_Z   36
loop_
 _symmetry_equiv_pos_site_id
 _symmetry_equiv_pos_as_xyz
  1  'x, y, z'
loop_
 _atom_site_type_symbol
 _atom_site_label
 _atom_site_symmetry_multiplicity
 _atom_site_fract_x
 _atom_site_fract_y
 _atom_site_fract_z
 _atom_site_occupancy
  In  In0  1  0.49387564  -0.00070325  0.81856807  1
  In  In1  1  0.34637063  0.83679048  0.49860591  1
  In  In2  1  0.17425847  0.63445197  0.50181201  1
  In  In3  1  0.84044605  0.31925999  0.15497213  1
  In  In4  1  -0.00330661  0.66112906  0.00078330  1
  In  In5  1  0.68614390  0.17928427  0.81707106  1
  In  In6  1  0.16000631  0.17221364  0.34028261  1
  In  In7  1  -0.00307864  0.84335324  0.50073609  1
  In  In8  1  0.17172221  0.66186116  0.16303144  1
  In  In9  1  0.63889738  0.67807365  0.33382164  1
  In  In10  1  0.83699531  0.01713510  0.50172355  1
  In  In11  1  0.33826597  0.51965983  0.84036075  1
  In  In12  1  0.80992805  0.81986761  0.31801873  1
  In  In13  1  0.34706436  0.82884866  0.84104151  1
  In  In14  1  0.84877564  0.84012104  0.00391484  1
  In  In15  1  0.32834791  0.48489860  0.18805127  1
  In  In16  1  -0.01255740  0.00240282  0.67013837  1
  In  In17  1  0.51821963  0.19801468  0.00635953  1
  In  In18  1  0.15543283  0.84052140  0.32597367  1
  In  In19  1  0.83700265  0.01701253  0.83111748  1
  In  In20  1  0.83001073  0.67565304  0.46789031  1
  In  In21  1  0.36012886  0.31818523  0.66267087  1
  In  In22  1  0.64710534  0.00034562  0.01953736  1
  In  In23  1  -0.00394578  0.32600068  0.34671232  1
  In  In24  1  -0.00208253  0.51539324  0.82579200  1
  In  In25  1  0.69560009  0.66150703  -0.00964686  1
  In  In26  1  0.69795374  0.15799736  0.17798262  1
  In  In27  1  0.32533449  0.48373584  0.47577932  1
  In  In28  1  0.84731725  0.65714751  0.15331059  1
  In  In29  1  0.16057430  0.48611988  0.03421408  1
  In  In30  1  0.33043194  0.68616862  0.68298588  1
  In  In31  1  0.00860596  0.01500140  0.32389052  1
  In  In32  1  0.15414948  0.01000593  0.47837318  1
  In  In33  1  0.82031974  0.84956944  0.66912637  1
  In  In34  1  0.65688173  0.84145634  0.81739253  1
  In  In35  1  0.31861307  -0.01072588  0.65581642  1
  In  In36  1  0.48948845  0.68351743  0.17984365  1
  In  In37  1  0.68427521  0.35746770  -0.03098377  1
  In  In38  1  0.14058773  0.49195797  0.66229735  1
  In  In39  1  0.85057804  0.00400086  0.17933203  1
  In  In40  1  0.50571010  0.52368611  0.65845183  1
  In  In41  1  0.70634143  0.29632181  0.64016324  1
  In  In42  1  0.64952015  0.51571378  0.50011241  1
  In  In43  1  0.00118084  0.16283742  0.83655591  1
  In  In44  1  0.32975635  0.32521374  0.04484054  1
  In  In45  1  0.14923133  0.70809971  0.84461608  1
  In  In46  1  0.32019128  0.14242175  0.17618170  1
  In  In47  1  0.84725546  0.33350018  0.83063868  1
  In  In48  1  0.16304034  0.82921282  0.71066673  1
  In  In49  1  0.34408130  0.83327222  0.18332519  1
  In  In50  1  0.16324644  0.35305807  0.83155060  1
  In  In51  1  0.66089793  0.32425526  0.32258129  1
  In  In52  1  0.49654814  0.67812389  0.82186354  1
  In  In53  1  0.67457928  0.50105113  0.17207243  1
  In  In54  1  0.83337140  0.47722253  0.34045015  1
  In  In55  1  -0.00163616  0.64247963  0.32307089  1
  In  In56  1  0.49233280  -0.01821214  0.16498366  1
  In  In57  1  0.49877380  0.33429752  0.49004298  1
  In  In58  1  0.50280587  0.68980414  0.50232702  1
  In  In59  1  0.67513586  0.68811645  0.65834269  1
  In  In60  1  0.14243925  0.17336122  0.65278467  1
  In  In61  1  0.16275281  0.85927814  -0.00049622  1
  In  In62  1  0.32296630  -0.00722131  -0.00355317  1
  In  In63  1  0.85015091  0.46068136  0.65461501  1
  In  In64  1  0.15937393  0.32579597  0.48657271  1
  In  In65  1  0.32236387  0.15258429  0.85287108  1
  In  In66  1  0.00515091  0.33721260  0.02100865  1
  In  In67  1  0.48019193  0.14412857  0.35396628  1
  In  In68  1  0.54062719  0.13150423  0.62509278  1
  In  In69  1  0.49291064  0.32524187  0.17311410  1
  In  In70  1  0.54005904  0.34382553  0.84936313  1
  In  In71  1  0.66220324  0.00094026  0.35320728  1
  Te  Te72  1  0.06438005  0.00827705  0.02028673  1
  Te  Te73  1  0.04945186  0.10875775  0.43571626  1
  Te  Te74  1  0.09445495  0.07198392  0.75458385  1
  Te  Te75  1  0.11085372  0.37657726  0.11915573  1
  Te  Te76  1  0.09568380  0.42759227  0.39828499  1
  Te  Te77  1  0.05046154  0.39787828  0.74129452  1
  Te  Te78  1  0.08288452  0.75481826  0.08239303  1
  Te  Te79  1  0.07859340  0.74177787  0.42020807  1
  Te  Te80  1  0.05151256  0.73800521  0.73937687  1
  Te  Te81  1  0.42541360  0.09368627  0.06745927  1
  Te  Te82  1  0.40903098  0.07507666  0.46297390  1
  Te  Te83  1  0.40744572  0.09465449  0.73778784  1
  Te  Te84  1  0.43556893  0.42572834  0.07671551  1
  Te  Te85  1  0.40715692  0.39494437  0.39208023  1
  Te  Te86  1  0.42601085  0.42424219  0.75312378  1
  Te  Te87  1  0.41185234  0.75705048  0.07688401  1
  Te  Te88  1  0.40260037  0.73740794  0.40654534  1
  Te  Te89  1  0.43764340  0.78429309  0.72647669  1
  Te  Te90  1  0.76711661  0.07883371  0.06978002  1
  Te  Te91  1  0.77459215  0.08998909  0.38793773  1
  Te  Te92  1  0.74529454  0.07567695  0.73074658  1
  Te  Te93  1  0.76876798  0.43072778  0.07631657  1
  Te  Te94  1  0.73254640  0.40869523  0.43114570  1
  Te  Te95  1  0.74079711  0.40271241  0.74438894  1
  Te  Te96  1  0.75335648  0.76010527  0.09491507  1
  Te  Te97  1  0.71795756  0.77032082  0.42950797  1
  Te  Te98  1  0.76420837  0.74537224  0.76794931  1
  Te  Te99  1  0.06497197  0.23852223  0.24622252  1
  Te  Te100  1  0.05708570  0.27356489  0.58332518  1
  Te  Te101  1  0.09014473  0.25507389  0.92072655  1
  Te  Te102  1  0.08559259  0.56100538  0.23415772  1
  Te  Te103  1  0.06240609  0.58832941  0.58406771  1
  Te  Te104  1  0.10845428  0.57255194  0.91826610  1
  Te  Te105  1  0.07291839  0.91826925  0.23258895  1
  Te  Te106  1  0.09701141  0.91854130  0.58936825  1
  Te  Te107  1  0.06118563  0.91353072  0.90805472  1
  Te  Te108  1  0.40163775  0.24185466  0.25968204  1
  Te  Te109  1  0.42352402  0.22151118  0.56452194  1
  Te  Te110  1  0.41629858  0.26238306  0.91205298  1
  Te  Te111  1  0.41768435  0.57911908  0.25786067  1
  Te  Te112  1  0.39219101  0.58817382  0.58079643  1
  Te  Te113  1  0.42274641  0.60371471  0.92531311  1
  Te  Te114  1  0.41472794  0.92644463  0.27569212  1
  Te  Te115  1  0.43025895  0.94593025  0.56378977  1
  Te  Te116  1  0.43714315  0.91371850  0.93034290  1
  Te  Te117  1  0.78019689  0.24268745  0.27411527  1
  Te  Te118  1  0.78441405  0.21868638  0.54325005  1
  Te  Te119  1  0.77149764  0.23938324  0.92641281  1
  Te  Te120  1  0.75656050  0.59352469  0.27130501  1
  Te  Te121  1  0.75862621  0.58597290  0.57847311  1
  Te  Te122  1  0.73618381  0.53337130  0.92983850  1
  Te  Te123  1  0.73361557  0.92451939  0.23983192  1
  Te  Te124  1  0.74033624  0.93026958  0.57442971  1
  Te  Te125  1  0.74232271  0.92422714  0.91910849  1
  Te  Te126  1  0.23229555  0.22534081  0.08878578  1
  Te  Te127  1  0.26159646  0.24973117  0.41503105  1
  Te  Te128  1  0.24513719  0.25165155  0.74881758  1
  Te  Te129  1  0.27071600  0.57938281  0.08182889  1
  Te  Te130  1  0.24051618  0.56909741  0.38478396  1
  Te  Te131  1  0.23503623  0.58702602  0.74913794  1
  Te  Te132  1  0.24712961  0.92658893  0.10850199  1
  Te  Te133  1  0.25476291  0.92255373  0.40723882  1
  Te  Te134  1  0.25238867  0.93161703  0.78070327  1
  Te  Te135  1  0.61867206  0.26989472  0.09534057  1
  Te  Te136  1  0.58898685  0.23244943  0.41932938  1
  Te  Te137  1  0.57726536  0.24353008  0.73234492  1
  Te  Te138  1  0.59868998  0.60531855  0.09654149  1
  Te  Te139  1  0.54914825  0.57661769  0.40729302  1
  Te  Te140  1  0.60202740  0.59042555  0.75253080  1
  Te  Te141  1  0.57675326  0.89034306  0.08567979  1
  Te  Te142  1  0.54676733  0.95062836  0.43286068  1
  Te  Te143  1  0.60045210  0.94773353  0.73065387  1
  Te  Te144  1  0.92783716  0.22531621  0.08122714  1
  Te  Te145  1  0.89209772  0.28330219  0.44690782  1
  Te  Te146  1  0.90160441  0.22478166  0.74595015  1
  Te  Te147  1  0.93403033  0.55940210  0.08685563  1
  Te  Te148  1  0.92488115  0.56202843  0.42978594  1
  Te  Te149  1  0.89400746  0.57306435  0.73970982  1
  Te  Te150  1  0.93959122  0.91404150  0.09815197  1
  Te  Te151  1  0.90881015  0.91301794  0.39878131  1
  Te  Te152  1  0.92301404  0.90614429  0.76756609  1
  Te  Te153  1  0.22824060  0.06641430  0.26191948  1
  Te  Te154  1  0.24263461  0.09328234  0.57185879  1
  Te  Te155  1  0.22286151  0.08801165  0.94151497  1
  Te  Te156  1  0.20944419  0.45272264  0.27511706  1
  Te  Te157  1  0.25610744  0.41102218  0.59716465  1
  Te  Te158  1  0.26380245  0.41472964  0.92903530  1
  Te  Te159  1  0.25227329  0.74038382  0.26518409  1
  Te  Te160  1  0.23779325  0.75884335  0.58585168  1
  Te  Te161  1  0.26135244  0.74853240  0.93550755  1
  Te  Te162  1  0.57469393  0.09509821  0.23788479  1
  Te  Te163  1  0.61732690  0.05212628  0.52034829  1
  Te  Te164  1  0.58414650  0.09830998  0.90955541  1
  Te  Te165  1  0.57151388  0.42798990  0.25726779  1
  Te  Te166  1  0.58552631  0.40922011  0.59413066  1
  Te  Te167  1  0.58977876  0.46442648  0.92410500  1
  Te  Te168  1  0.56692068  0.78241388  0.26122764  1
  Te  Te169  1  0.57932399  0.77682377  0.59152976  1
  Te  Te170  1  0.59063528  0.75076787  0.91880913  1
  Te  Te171  1  0.94449050  0.11083524  0.22808153  1
  Te  Te172  1  0.91000060  0.10695733  0.59833296  1
  Te  Te173  1  0.93585973  0.06635286  0.93315945  1
  Te  Te174  1  0.92491316  0.41528757  0.23891846  1
  Te  Te175  1  0.93286797  0.38396907  0.56036075  1
  Te  Te176  1  0.92463121  0.42434544  0.92427294  1
  Te  Te177  1  0.92598927  0.75177303  0.24571073  1
  Te  Te178  1  0.90229431  0.75414084  0.57756312  1
  Te  Te179  1  0.90336345  0.73494743  0.91553477  1
