# generated using pymatgen
data_In2Te3
_symmetry_space_group_name_H-M   'P 1'
_cell_length_a   19.02302916
_cell_length_b   18.99494654
_cell_length_c   19.01579779
_cell_angle_alpha   89.98208394
_cell_angle_beta   89.92227610
_cell_angle_gamma   90.13717442
_symmetry_Int_Tables_number   1
_chemical_formula_structural   In2Te3
_chemical_formula_sum   'In72 Te108'
_cell_volume   6871.16905400
_cell_formula_units_Z   36
loop_
 _symmetry_equiv_pos_site_id
 _symmetry_equiv_pos_as_xyz
  1  'x, y, z'
loop_
 _atom_site_type_symbol
 _atom_site_label
 _atom_site_symmetry_multiplicity
 _atom_site_fract_x
 _atom_site_fract_y
 _atom_site_fract_z
 _atom_site_occupancy
  In  In0  1  0.85101265  0.02634216  0.16661741  1
  In  In1  1  0.81906249  0.48896875  0.63071027  1
  In  In2  1  0.83504079  0.20871611  0.36590092  1
  In  In3  1  -0.01855503  -0.01670999  0.68038009  1
  In  In4  1  0.67739118  0.15825725  0.83840079  1
  In  In5  1  0.81468669  -0.00317103  0.83861368  1
  In  In6  1  0.36043723  0.01226719  0.36021785  1
  In  In7  1  0.00515725  -0.02780257  -0.03299693  1
  In  In8  1  0.16685578  0.00107164  0.17326208  1
  In  In9  1  0.48093125  0.16321022  0.00225703  1
  In  In10  1  0.67745398  0.84044924  0.15820769  1
  In  In11  1  0.19098648  0.83043692  0.65852343  1
  In  In12  1  0.15427747  0.67085151  0.15307515  1
  In  In13  1  0.35342413  0.83622003  0.51880577  1
  In  In14  1  0.85027929  0.33482316  0.18335690  1
  In  In15  1  0.17028101  0.34366364  0.83344631  1
  In  In16  1  0.63571486  -0.00094260  0.64801757  1
  In  In17  1  0.00628662  0.83856625  0.16115775  1
  In  In18  1  -0.02306083  0.67331855  -0.00242011  1
  In  In19  1  0.33885691  0.48153490  0.17332509  1
  In  In20  1  0.81459246  0.66404216  0.50758423  1
  In  In21  1  0.00739872  0.68159512  0.67152454  1
  In  In22  1  0.16823522  0.16827360  0.00175133  1
  In  In23  1  0.82958468  0.49741074  -0.00226452  1
  In  In24  1  0.01986551  0.15267920  0.82951891  1
  In  In25  1  0.64240677  -0.01793021  0.36709746  1
  In  In26  1  0.67981889  0.15973780  0.19126859  1
  In  In27  1  0.34966354  0.84411687  0.80419573  1
  In  In28  1  0.00949293  0.18101589  0.17470469  1
  In  In29  1  0.51166277  -0.00323977  0.82202872  1
  In  In30  1  0.82498996  0.65613588  0.14738395  1
  In  In31  1  0.51007715  0.33358337  0.19906429  1
  In  In32  1  0.16335500  0.51015021  0.66221690  1
  In  In33  1  0.80745289  -0.00074799  0.50163487  1
  In  In34  1  0.51034145  0.50572186  -0.00691403  1
  In  In35  1  0.33684863  0.86914548  0.17435515  1
  In  In36  1  0.32137092  0.01672534  0.01002724  1
  In  In37  1  0.17423757  0.16205230  0.34600460  1
  In  In38  1  0.16326179  0.84213499  0.31959378  1
  In  In39  1  0.65391614  0.65242878  0.34810093  1
  In  In40  1  0.48501645  0.37077855  0.81188493  1
  In  In41  1  0.34085179  0.50565847  0.52163537  1
  In  In42  1  0.33358355  0.66446285  -0.01744152  1
  In  In43  1  0.50977008  0.81356511  0.66963480  1
  In  In44  1  0.65712245  0.49200438  0.17494929  1
  In  In45  1  0.01287289  0.50242998  0.82385868  1
  In  In46  1  0.17951137  0.70418213  0.48360514  1
  In  In47  1  0.15102349  0.47805579  0.00313538  1
  In  In48  1  0.16010797  0.31979323  0.48334988  1
  In  In49  1  0.17794841  0.67346433  0.80659837  1
  In  In50  1  0.84432062  0.17241830  0.63869326  1
  In  In51  1  -0.02528136  0.81931568  0.49936934  1
  In  In52  1  0.65964222  0.32988415  0.65654999  1
  In  In53  1  0.49407784  0.35087476  0.51579769  1
  In  In54  1  0.83331444  0.82467835  -0.04228223  1
  In  In55  1  0.17652274  0.50364171  0.30472209  1
  In  In56  1  0.64279145  0.32612586  -0.02256517  1
  In  In57  1  0.50259840  0.17932938  0.65235733  1
  In  In58  1  0.82316120  0.81702764  0.32360809  1
  In  In59  1  0.67104593  0.67547329  -0.10766057  1
  In  In60  1  -0.00998727  0.48760768  0.51000260  1
  In  In61  1  0.36058906  0.68751463  0.34922297  1
  In  In62  1  0.81381983  0.45519656  0.38457415  1
  In  In63  1  0.50176042  0.67408045  0.16799328  1
  In  In64  1  0.49597176  0.64090095  0.52387684  1
  In  In65  1  0.85059895  0.33660852  0.83199585  1
  In  In66  1  0.52378856  0.83690720  -0.00282175  1
  In  In67  1  0.18614497  0.31709019  0.16768439  1
  In  In68  1  0.34055647  0.17011035  0.83995417  1
  In  In69  1  0.51654881  0.18686026  0.34985735  1
  In  In70  1  0.16474858  0.01450711  0.50761086  1
  In  In71  1  0.16110433  0.17760701  0.64437673  1
  Te  Te72  1  0.07118662  0.07062323  0.07799107  1
  Te  Te73  1  0.07526319  0.07539221  0.41179443  1
  Te  Te74  1  0.09524747  0.06757412  0.73156070  1
  Te  Te75  1  0.08755678  0.41208370  0.11460987  1
  Te  Te76  1  0.08895899  0.43302191  0.41167627  1
  Te  Te77  1  0.07732406  0.40376953  0.72858777  1
  Te  Te78  1  0.08473780  0.76349965  0.05616851  1
  Te  Te79  1  0.06665120  0.75250704  0.39626952  1
  Te  Te80  1  0.07791928  0.78447198  0.76134245  1
  Te  Te81  1  0.41374602  0.08055627  0.10190788  1
  Te  Te82  1  0.44755670  0.09562824  0.44660822  1
  Te  Te83  1  0.42033883  0.08547323  0.74303984  1
  Te  Te84  1  0.43831051  0.41069954  0.08547470  1
  Te  Te85  1  0.41042566  0.42767636  0.42113014  1
  Te  Te86  1  0.38078999  0.44313843  0.73875532  1
  Te  Te87  1  0.40825023  0.75918588  0.08441154  1
  Te  Te88  1  0.45782085  0.76409090  0.43296955  1
  Te  Te89  1  0.39963488  0.73124040  0.72477818  1
  Te  Te90  1  0.74884471  0.08816753  0.08480512  1
  Te  Te91  1  0.73823022  0.09314872  0.40717171  1
  Te  Te92  1  0.74524466  0.08653949  0.72398526  1
  Te  Te93  1  0.73482038  0.40713466  0.07568620  1
  Te  Te94  1  0.72149784  0.37539049  0.46697752  1
  Te  Te95  1  0.75343615  0.41145468  0.74581050  1
  Te  Te96  1  0.74474584  0.74675606  0.05998290  1
  Te  Te97  1  0.72883371  0.75941873  0.42565757  1
  Te  Te98  1  0.74068202  0.70240118  0.76385041  1
  Te  Te99  1  0.08788749  0.26281587  0.27210727  1
  Te  Te100  1  0.05802001  0.23665844  0.55441235  1
  Te  Te101  1  0.07853200  0.25789998  0.92100275  1
  Te  Te102  1  0.07781882  0.59659147  0.25196942  1
  Te  Te103  1  0.08548749  0.60696090  0.56402294  1
  Te  Te104  1  0.09138071  0.59725722  0.91351234  1
  Te  Te105  1  0.06097476  0.93752971  0.26157602  1
  Te  Te106  1  0.08112571  0.89732373  0.57389727  1
  Te  Te107  1  0.07705324  0.89857003  0.86881287  1
  Te  Te108  1  0.41505559  0.24280582  0.26057658  1
  Te  Te109  1  0.40446290  0.27350965  0.60337623  1
  Te  Te110  1  0.42318700  0.27204689  0.91457452  1
  Te  Te111  1  0.41856038  0.58312784  0.25524059  1
  Te  Te112  1  0.43890830  0.54051488  0.63270095  1
  Te  Te113  1  0.42442057  0.58294619  0.90200722  1
  Te  Te114  1  0.42854963  0.91220129  0.27727382  1
  Te  Te115  1  0.45539221  0.92594890  0.58159268  1
  Te  Te116  1  0.41522226  0.92897858  0.92243393  1
  Te  Te117  1  0.73972256  0.27492204  0.26757888  1
  Te  Te118  1  0.73793650  0.24423985  0.56308944  1
  Te  Te119  1  0.76232479  0.24989378  0.92242776  1
  Te  Te120  1  0.75430277  0.57788704  0.25594684  1
  Te  Te121  1  0.71686592  0.58154192  0.58032983  1
  Te  Te122  1  0.79434834  0.58576416  0.88513857  1
  Te  Te123  1  0.75412714  0.93320774  0.25289221  1
  Te  Te124  1  0.72385613  0.90649111  0.57721834  1
  Te  Te125  1  0.72500023  0.91531609  0.92134901  1
  Te  Te126  1  0.26997787  0.23700001  0.07866181  1
  Te  Te127  1  0.26575412  0.22412602  0.44428747  1
  Te  Te128  1  0.25083037  0.24904161  0.74775235  1
  Te  Te129  1  0.25754685  0.57802875  0.08764400  1
  Te  Te130  1  0.25569132  0.59418601  0.41205504  1
  Te  Te131  1  0.25917969  0.55653083  0.76526629  1
  Te  Te132  1  0.23191447  0.90925480  0.07303144  1
  Te  Te133  1  0.25495422  0.90607488  0.42188836  1
  Te  Te134  1  0.27031017  0.93423022  0.72167904  1
  Te  Te135  1  0.58599235  0.24248014  0.09073015  1
  Te  Te136  1  0.59870672  0.28761373  0.42587679  1
  Te  Te137  1  0.58023850  0.25098689  0.76966178  1
  Te  Te138  1  0.59628906  0.59437270  0.08099061  1
  Te  Te139  1  0.56453055  0.56064175  0.41942271  1
  Te  Te140  1  0.60621866  0.64198246  0.75658458  1
  Te  Te141  1  0.57075603  0.92343302  0.10282560  1
  Te  Te142  1  0.55826722  0.91278037  0.46507608  1
  Te  Te143  1  0.60204947  0.89557149  0.76015548  1
  Te  Te144  1  0.91662728  0.24976945  0.08671991  1
  Te  Te145  1  0.93084737  0.27309244  0.45813700  1
  Te  Te146  1  0.92860230  0.24025802  0.74446163  1
  Te  Te147  1  0.93010030  0.56361573  0.09117966  1
  Te  Te148  1  0.90247162  0.57595928  0.42267239  1
  Te  Te149  1  0.92573906  0.56273549  0.71690712  1
  Te  Te150  1  0.90320313  0.90827239  0.07524122  1
  Te  Te151  1  0.90058446  0.91400327  0.40992811  1
  Te  Te152  1  0.87826991  0.90467926  0.74522621  1
  Te  Te153  1  0.26335546  0.07676015  0.25685422  1
  Te  Te154  1  0.26463092  0.10263201  0.56875226  1
  Te  Te155  1  0.23624939  0.07779848  0.90144882  1
  Te  Te156  1  0.27100629  0.39028788  0.27219857  1
  Te  Te157  1  0.23914402  0.40977520  0.57981180  1
  Te  Te158  1  0.25620160  0.41401005  0.92852691  1
  Te  Te159  1  0.25768213  0.74792563  0.24681549  1
  Te  Te160  1  0.28117291  0.72365624  0.59536339  1
  Te  Te161  1  0.25727269  0.76340855  0.89927663  1
  Te  Te162  1  0.57901341  0.07520348  0.26527221  1
  Te  Te163  1  0.57864418  0.09910063  0.55393733  1
  Te  Te164  1  0.58388353  0.07930553  0.92653173  1
  Te  Te165  1  0.57489623  0.43667103  0.28249755  1
  Te  Te166  1  0.56778826  0.43752729  0.61465518  1
  Te  Te167  1  0.59907053  0.43958278  0.88802537  1
  Te  Te168  1  0.59296178  0.75688584  0.25480259  1
  Te  Te169  1  0.60001010  0.71917701  0.59620087  1
  Te  Te170  1  0.53194894  0.72955368  0.89659942  1
  Te  Te171  1  0.91346620  0.11417956  0.27137496  1
  Te  Te172  1  0.92657897  0.06808699  0.56782644  1
  Te  Te173  1  0.91557357  0.08153108  0.91393963  1
  Te  Te174  1  0.91433610  0.41655280  0.28595985  1
  Te  Te175  1  0.90490823  0.37989652  0.56921554  1
  Te  Te176  1  0.93818000  0.41714158  0.92499837  1
  Te  Te177  1  0.91782852  0.73987406  0.23501618  1
  Te  Te178  1  0.89078658  0.75299978  0.60560484  1
  Te  Te179  1  0.91177208  0.72916879  0.87917019  1
