# generated using pymatgen
data_In2Te3
_symmetry_space_group_name_H-M   'P 1'
_cell_length_a   18.87860928
_cell_length_b   18.87525039
_cell_length_c   18.88947242
_cell_angle_alpha   90.00800329
_cell_angle_beta   90.07284487
_cell_angle_gamma   89.97158897
_symmetry_Int_Tables_number   1
_chemical_formula_structural   In2Te3
_chemical_formula_sum   'In72 Te108'
_cell_volume   6731.03950501
_cell_formula_units_Z   36
loop_
 _symmetry_equiv_pos_site_id
 _symmetry_equiv_pos_as_xyz
  1  'x, y, z'
loop_
 _atom_site_type_symbol
 _atom_site_label
 _atom_site_symmetry_multiplicity
 _atom_site_fract_x
 _atom_site_fract_y
 _atom_site_fract_z
 _atom_site_occupancy
  In  In0  1  0.15671511  0.84335345  0.66792645  1
  In  In1  1  0.32586368  0.50672533  0.47894775  1
  In  In2  1  0.31003618  0.82764557  0.84705460  1
  In  In3  1  0.48751818  0.50216856  0.68567281  1
  In  In4  1  0.32579670  0.67275303  0.66542310  1
  In  In5  1  0.49842732  0.00638814  0.16455482  1
  In  In6  1  0.33819446  0.84202014  0.48075864  1
  In  In7  1  0.17402847  0.02006615  0.80807421  1
  In  In8  1  0.34546478  0.17132334  0.85568812  1
  In  In9  1  0.01089557  0.30592347  0.32602154  1
  In  In10  1  0.31209471  0.31764569  0.69211023  1
  In  In11  1  0.82457298  0.14552223  -0.00205749  1
  In  In12  1  0.65142577  0.64515890  -0.00478113  1
  In  In13  1  -0.00284810  0.66828092  0.00535549  1
  In  In14  1  0.65093621  0.82741088  0.51051221  1
  In  In15  1  0.65559677  0.31315314  -0.01145142  1
  In  In16  1  0.80192971  0.33284462  0.53358105  1
  In  In17  1  0.01609216  -0.01990344  0.32743248  1
  In  In18  1  0.50055935  -0.00700870  0.85268866  1
  In  In19  1  0.52240720  0.82976530  0.33194860  1
  In  In20  1  0.00454486  0.46666476  0.84641454  1
  In  In21  1  0.68283983  0.81644962  0.83933502  1
  In  In22  1  0.83105842  0.84197992  0.69196536  1
  In  In23  1  0.00483412  0.51790160  0.49029778  1
  In  In24  1  0.02290394  0.00326805  -0.00456667  1
  In  In25  1  0.50431981  0.33376125  0.53067394  1
  In  In26  1  0.03011489  0.82131419  0.15925020  1
  In  In27  1  0.50389246  0.51912274  0.33055005  1
  In  In28  1  -0.00504226  0.67201812  0.67647517  1
  In  In29  1  0.64814994  0.49335974  0.82464782  1
  In  In30  1  0.03292058  0.82210970  0.47590100  1
  In  In31  1  0.82239364  0.18432573  0.67714496  1
  In  In32  1  0.83166588  0.82015130  0.00650925  1
  In  In33  1  -0.01529556  0.19642405  0.52246686  1
  In  In34  1  0.84963817  0.33160808  0.17730101  1
  In  In35  1  0.64847663  0.50717665  0.15404615  1
  In  In36  1  0.04295488  0.16340579  0.14642706  1
  In  In37  1  0.47936813  0.82174890  0.66552274  1
  In  In38  1  0.81384587  0.47951773  0.68135549  1
  In  In39  1  0.01832731  0.31666627  0.65524925  1
  In  In40  1  0.35006916  0.68119305  0.32027016  1
  In  In41  1  0.00434955  0.82085448  0.84439492  1
  In  In42  1  0.81278335  0.66969698  0.52153030  1
  In  In43  1  0.48627568  0.16440976  0.34642588  1
  In  In44  1  0.33139625  0.00907236  0.33568251  1
  In  In45  1  0.18204637  0.65731996  0.15361495  1
  In  In46  1  0.68094475  0.33692087  0.33725992  1
  In  In47  1  0.84584718  0.66656204  0.16206485  1
  In  In48  1  0.16457522  0.47815573  -0.00930775  1
  In  In49  1  0.18086105  0.52099207  0.31238600  1
  In  In50  1  0.50242746  0.16193641  -0.00631632  1
  In  In51  1  0.49028682  0.84103681  0.01320829  1
  In  In52  1  0.50990294  0.18537201  0.70166627  1
  In  In53  1  0.84409746  0.48393947  0.34915462  1
  In  In54  1  0.31744879  0.84596461  0.13459849  1
  In  In55  1  0.15145567  0.32185056  0.51004581  1
  In  In56  1  0.16293069  0.14986035  0.33189845  1
  In  In57  1  0.65183431  0.01950687  0.66772253  1
  In  In58  1  0.04565562  0.52844385  0.14803512  1
  In  In59  1  0.31295209  0.34302361  0.31943530  1
  In  In60  1  0.83035475  0.46186516  -0.03294461  1
  In  In61  1  0.32168742  0.19784691  0.12338709  1
  In  In62  1  0.67785366  -0.00583533  0.34706993  1
  In  In63  1  0.84960714  -0.00486745  0.84395062  1
  In  In64  1  0.65986550  0.66692687  0.33156824  1
  In  In65  1  0.47235870  0.35600514  0.12658452  1
  In  In66  1  0.83214131  0.14434217  0.33452597  1
  In  In67  1  0.18985366  -0.00170801  0.51514362  1
  In  In68  1  0.34843806  0.49440716  0.83902363  1
  In  In69  1  0.84657163  0.00450240  0.49095074  1
  In  In70  1  0.81909187  0.00174073  0.16856899  1
  In  In71  1  0.15288932  0.50817740  0.66981889  1
  Te  Te72  1  0.13418971  0.08872855  0.05324618  1
  Te  Te73  1  0.05077882  0.09789952  0.41970381  1
  Te  Te74  1  0.09825938  0.12814109  0.74223835  1
  Te  Te75  1  0.05765754  0.40140477  0.06762319  1
  Te  Te76  1  0.09149898  0.42234491  0.40696764  1
  Te  Te77  1  0.10377429  0.39337782  0.75517978  1
  Te  Te78  1  0.11893207  0.75423376  0.04412421  1
  Te  Te79  1  0.08804111  0.73691955  0.37409842  1
  Te  Te80  1  0.10235842  0.73729601  0.76332364  1
  Te  Te81  1  0.40174837  0.07814446  0.07129613  1
  Te  Te82  1  0.40272598  0.08540880  0.43846588  1
  Te  Te83  1  0.41676691  0.07717734  0.75775929  1
  Te  Te84  1  0.38767658  0.45126900  0.05031027  1
  Te  Te85  1  0.41762321  0.40303871  0.41559148  1
  Te  Te86  1  0.42726410  0.38523680  0.76560422  1
  Te  Te87  1  0.38986660  0.73873301  0.05932540  1
  Te  Te88  1  0.43974007  0.74206812  0.42617903  1
  Te  Te89  1  0.40945879  0.73785147  0.77460953  1
  Te  Te90  1  0.72734154  0.08120625  0.08787290  1
  Te  Te91  1  0.73768264  0.09987215  0.44364618  1
  Te  Te92  1  0.75022107  0.08199057  0.76546376  1
  Te  Te93  1  0.74705802  0.40639269  0.08951769  1
  Te  Te94  1  0.73416190  0.43446785  0.44188493  1
  Te  Te95  1  0.73937782  0.38471296  0.77009167  1
  Te  Te96  1  0.73450056  0.73929336  0.08847717  1
  Te  Te97  1  0.74777790  0.75935354  0.41513616  1
  Te  Te98  1  0.75118040  0.73029325  0.74123341  1
  Te  Te99  1  0.11960960  0.26452751  0.23165510  1
  Te  Te100  1  0.12630282  0.19244942  0.59680617  1
  Te  Te101  1  0.09958968  0.28923792  0.96796076  1
  Te  Te102  1  0.06891910  0.62270244  0.26588897  1
  Te  Te103  1  0.09166494  0.60975982  0.57465231  1
  Te  Te104  1  0.08012241  0.58204077  0.91112772  1
  Te  Te105  1  0.10991132  0.93546712  0.21727960  1
  Te  Te106  1  0.07094896  0.93339668  0.57967495  1
  Te  Te107  1  0.10556178  0.91674677  0.90220498  1
  Te  Te108  1  0.41426660  0.25483861  0.23887517  1
  Te  Te109  1  0.40281188  0.24293983  0.59669120  1
  Te  Te110  1  0.44360359  0.26862397  0.90925462  1
  Te  Te111  1  0.39267840  0.56177330  0.24587508  1
  Te  Te112  1  0.41170566  0.58393478  0.57706311  1
  Te  Te113  1  0.45434987  0.53630068  0.93744908  1
  Te  Te114  1  0.41478697  0.90734321  0.25184761  1
  Te  Te115  1  0.40814071  0.92035093  0.58295995  1
  Te  Te116  1  0.39117393  0.92565719  0.93254708  1
  Te  Te117  1  0.75035742  0.23678682  0.24493707  1
  Te  Te118  1  0.70413555  0.24429830  0.60382269  1
  Te  Te119  1  0.75424003  0.24102081  0.90844573  1
  Te  Te120  1  0.75768253  0.56466003  0.25025741  1
  Te  Te121  1  0.73489148  0.57723114  0.60442696  1
  Te  Te122  1  0.75410641  0.57592249  0.90423572  1
  Te  Te123  1  0.74886336  0.90613115  0.25389694  1
  Te  Te124  1  0.75316676  0.92376858  0.58690024  1
  Te  Te125  1  0.74803712  0.92127565  0.92922999  1
  Te  Te126  1  0.23945896  0.27361333  0.02182476  1
  Te  Te127  1  0.24728301  0.24610548  0.41596471  1
  Te  Te128  1  0.22810542  0.22506726  0.77399887  1
  Te  Te129  1  0.26228550  0.56315910  0.07060186  1
  Te  Te130  1  0.24320213  0.61391475  0.41532883  1
  Te  Te131  1  0.24833685  0.58306961  0.76184477  1
  Te  Te132  1  0.21159092  0.94103895  0.09858699  1
  Te  Te133  1  0.22909256  0.91384210  0.39775017  1
  Te  Te134  1  0.26665667  0.92294976  0.73433514  1
  Te  Te135  1  0.57595410  0.24637350  0.09905592  1
  Te  Te136  1  0.58361028  0.25652991  0.42153899  1
  Te  Te137  1  0.61775668  0.28629880  0.72925923  1
  Te  Te138  1  0.54985515  0.59699738  0.09343787  1
  Te  Te139  1  0.58716464  0.58520015  0.42945045  1
  Te  Te140  1  0.56325474  0.59916151  0.76711904  1
  Te  Te141  1  0.58890837  0.92834259  0.07953995  1
  Te  Te142  1  0.57000175  0.93167175  0.43468751  1
  Te  Te143  1  0.58798854  0.90738759  0.75164080  1
  Te  Te144  1  0.91816273  0.23058447  0.08783900  1
  Te  Te145  1  0.89250595  0.26935933  0.41622751  1
  Te  Te146  1  0.92729770  0.25595156  0.75313153  1
  Te  Te147  1  0.90602484  0.56016746  0.07027567  1
  Te  Te148  1  0.90634835  0.60600526  0.41596168  1
  Te  Te149  1  0.92509280  0.55894716  0.75062113  1
  Te  Te150  1  0.92777675  0.91558243  0.07788567  1
  Te  Te151  1  0.91472672  0.89964807  0.40641070  1
  Te  Te152  1  0.94527325  0.92468996  0.74937128  1
  Te  Te153  1  0.26691350  0.09992695  0.23382679  1
  Te  Te154  1  0.25616181  0.11236508  0.57520716  1
  Te  Te155  1  0.24518228  0.08311323  0.92437680  1
  Te  Te156  1  0.24007312  0.42338542  0.21971739  1
  Te  Te157  1  0.25236494  0.41989598  0.58404856  1
  Te  Te158  1  0.25378719  0.39516882  0.90367207  1
  Te  Te159  1  0.24843874  0.76242495  0.24258365  1
  Te  Te160  1  0.24402381  0.76190511  0.57398980  1
  Te  Te161  1  0.25337659  0.74787118  0.95940827  1
  Te  Te162  1  0.58496112  0.08399609  0.26326146  1
  Te  Te163  1  0.55769561  0.09981655  0.59035973  1
  Te  Te164  1  0.59395375  0.09669829  0.89803961  1
  Te  Te165  1  0.57723710  0.40574278  0.24591034  1
  Te  Te166  1  0.58919958  0.42551195  0.60719089  1
  Te  Te167  1  0.57456464  0.43049938  0.94094395  1
  Te  Te168  1  0.57334655  0.73449991  0.23259258  1
  Te  Te169  1  0.58340726  0.73785219  0.60393997  1
  Te  Te170  1  0.57218550  0.75031382  0.91811976  1
  Te  Te171  1  0.93712180  0.08695897  0.23901191  1
  Te  Te172  1  0.91346335  0.08608750  0.59998693  1
  Te  Te173  1  0.94400141  0.09661556  0.90656863  1
  Te  Te174  1  0.94550380  0.42799353  0.24914475  1
  Te  Te175  1  0.92803069  0.41925241  0.57726654  1
  Te  Te176  1  0.92538822  0.36094876  0.91527624  1
  Te  Te177  1  0.91513700  0.77213189  0.23671124  1
  Te  Te178  1  0.92275457  0.76792519  0.58221447  1
  Te  Te179  1  0.89891342  0.73033778  0.90415834  1
