# generated using pymatgen
data_In2Te3
_symmetry_space_group_name_H-M   'P 1'
_cell_length_a   18.98871675
_cell_length_b   18.93336980
_cell_length_c   18.93641380
_cell_angle_alpha   89.95237891
_cell_angle_beta   90.08825730
_cell_angle_gamma   90.00774521
_symmetry_Int_Tables_number   1
_chemical_formula_structural   In2Te3
_chemical_formula_sum   'In72 Te108'
_cell_volume   6808.01650254
_cell_formula_units_Z   36
loop_
 _symmetry_equiv_pos_site_id
 _symmetry_equiv_pos_as_xyz
  1  'x, y, z'
loop_
 _atom_site_type_symbol
 _atom_site_label
 _atom_site_symmetry_multiplicity
 _atom_site_fract_x
 _atom_site_fract_y
 _atom_site_fract_z
 _atom_site_occupancy
  In  In0  1  0.66003367  0.49726990  0.84396262  1
  In  In1  1  0.84396546  0.32724860  0.15024626  1
  In  In2  1  0.45541996  0.24988840  0.83548235  1
  In  In3  1  0.84045652  0.69246519  0.82612223  1
  In  In4  1  0.83626320  0.01407437  0.46616319  1
  In  In5  1  0.68271569  0.85502200  0.17411423  1
  In  In6  1  0.17782046  0.80357389  0.01741832  1
  In  In7  1  0.50865528  0.50267760  0.33909641  1
  In  In8  1  -0.02099498  0.32731143  0.65276316  1
  In  In9  1  0.33805498  0.68473813  0.34962529  1
  In  In10  1  0.83239637  0.48954891  0.35499106  1
  In  In11  1  0.33191856  0.14067538  0.14048853  1
  In  In12  1  -0.00973134  0.80477352  0.49254812  1
  In  In13  1  -0.02694228  0.67534610  0.00014637  1
  In  In14  1  0.65292965  0.69168753  0.65273539  1
  In  In15  1  0.67747399  0.15079015  0.85117571  1
  In  In16  1  -0.05552250  0.85934830  0.17884405  1
  In  In17  1  0.17817779  0.63605944  0.83607447  1
  In  In18  1  0.15265874  0.16068729  0.02743285  1
  In  In19  1  0.33727793  0.50380115  0.49310136  1
  In  In20  1  -0.01142225  0.16130321  0.47737323  1
  In  In21  1  0.47053237  0.29751320  0.14900412  1
  In  In22  1  0.15471018  0.31338221  0.48802688  1
  In  In23  1  0.15706722  0.44971707  0.02655831  1
  In  In24  1  0.82250412  0.87026698  0.66247443  1
  In  In25  1  -0.00631130  -0.01358535  0.64230812  1
  In  In26  1  0.13926151  0.17485484  0.30840828  1
  In  In27  1  0.67295581  0.35563623  0.66469334  1
  In  In28  1  0.15632403  0.64092264  0.17291473  1
  In  In29  1  0.16734507  0.00424741  0.83781289  1
  In  In30  1  0.35003282  0.00007950  0.33958777  1
  In  In31  1  0.52739866  0.87234729  0.00757747  1
  In  In32  1  0.17373248  0.83849429  0.33582916  1
  In  In33  1  0.35227406  0.86667042  0.18062277  1
  In  In34  1  0.21319015  0.29902125  0.84621188  1
  In  In35  1  0.16761015  -0.02327353  0.14696148  1
  In  In36  1  0.17780042  0.67557204  0.49029290  1
  In  In37  1  0.67251161  0.52568513  0.49829148  1
  In  In38  1  0.52170107  0.85546438  0.67749041  1
  In  In39  1  0.23058824  0.10200193  0.48346143  1
  In  In40  1  0.48818661  0.51335590  0.01653909  1
  In  In41  1  0.51742769  -0.01548757  0.48018330  1
  In  In42  1  0.51600165  0.34231693  0.48021088  1
  In  In43  1  0.51316456  0.69985856  0.84653186  1
  In  In44  1  0.45756302  0.51439275  0.67982344  1
  In  In45  1  0.31294275  0.48108177  0.17353615  1
  In  In46  1  0.68309489  0.32514388  0.28640072  1
  In  In47  1  0.19251081  0.85114603  0.66862573  1
  In  In48  1  0.52512628  0.17670349  0.67048821  1
  In  In49  1  0.65095456  0.51787852  0.15213516  1
  In  In50  1  0.35334588  0.83487370  0.51243436  1
  In  In51  1  0.83316335  0.50121271  -0.01929143  1
  In  In52  1  0.82080852  0.31934784  0.85093296  1
  In  In53  1  0.65547189  0.17900542  0.47297027  1
  In  In54  1  0.02543393  0.47970742  0.84445521  1
  In  In55  1  0.82864257  0.67177874  0.16691732  1
  In  In56  1  0.52266841  0.67000741  0.18313415  1
  In  In57  1  -0.02508833  -0.01534372  0.00352130  1
  In  In58  1  0.35228587  0.68108511  -0.00360291  1
  In  In59  1  0.68057496  0.08011152  0.18070898  1
  In  In60  1  0.81361347  0.67002165  0.49929084  1
  In  In61  1  -0.00503537  0.80431875  0.85297673  1
  In  In62  1  0.81914052  -0.00606302  0.85880016  1
  In  In63  1  0.68197623  0.70495008  0.33266462  1
  In  In64  1  0.34480227  0.32036927  0.67425551  1
  In  In65  1  0.16495808  0.49698807  0.66652698  1
  In  In66  1  0.13665414  0.44042743  0.29524500  1
  In  In67  1  0.83616019  0.32372551  0.50354531  1
  In  In68  1  0.50717308  0.00823716  0.84001305  1
  In  In69  1  0.64172997  0.30152172  0.02025594  1
  In  In70  1  0.01619862  0.17131981  0.81580672  1
  In  In71  1  0.01441125  0.65054761  0.66685139  1
  Te  Te72  1  0.05510513  0.06852027  0.10181373  1
  Te  Te73  1  0.09481328  0.07461720  0.41490475  1
  Te  Te74  1  0.08816803  0.07263202  0.72689952  1
  Te  Te75  1  0.06074760  0.37227111  0.10614974  1
  Te  Te76  1  0.06216952  0.39643939  0.41260614  1
  Te  Te77  1  0.09271498  0.38852000  0.74370250  1
  Te  Te78  1  0.06296488  0.74782018  0.10034330  1
  Te  Te79  1  0.07968178  0.73280518  0.39025459  1
  Te  Te80  1  0.09645061  0.74770094  0.75147066  1
  Te  Te81  1  0.42836413  0.10875880  0.03019724  1
  Te  Te82  1  0.41572714  0.08456078  0.44081595  1
  Te  Te83  1  0.42445517  0.11659186  0.76662680  1
  Te  Te84  1  0.39637971  0.40508113  0.07048135  1
  Te  Te85  1  0.40574922  0.40711989  0.39690508  1
  Te  Te86  1  0.43342641  0.39407544  0.77033191  1
  Te  Te87  1  0.43426715  0.76490194  0.09261614  1
  Te  Te88  1  0.43009628  0.78792801  0.39465803  1
  Te  Te89  1  0.43253189  0.75532318  0.73972567  1
  Te  Te90  1  0.77744846  0.07935258  0.06904211  1
  Te  Te91  1  0.77900287  0.14250761  0.39450858  1
  Te  Te92  1  0.74157934  0.06212926  0.75094165  1
  Te  Te93  1  0.73718963  0.42201574  0.07127990  1
  Te  Te94  1  0.71802137  0.40293399  0.41940976  1
  Te  Te95  1  0.76654318  0.42873100  0.75990859  1
  Te  Te96  1  0.72680695  0.74203418  0.08946913  1
  Te  Te97  1  0.75044497  0.78727615  0.43586653  1
  Te  Te98  1  0.74008752  0.77470372  0.74676878  1
  Te  Te99  1  0.05312506  0.26104844  0.22068337  1
  Te  Te100  1  0.07322486  0.23080710  0.58452809  1
  Te  Te101  1  0.09029962  0.25255171  0.91923055  1
  Te  Te102  1  0.06281884  0.55861926  0.24723160  1
  Te  Te103  1  0.08753095  0.57227204  0.56088717  1
  Te  Te104  1  0.08402425  0.58187105  0.94341620  1
  Te  Te105  1  0.07339886  0.90983756  0.24590115  1
  Te  Te106  1  0.09037535  0.89719647  0.56763732  1
  Te  Te107  1  0.08642648  0.90319881  0.93518275  1
  Te  Te108  1  0.40138887  0.21507340  0.24714415  1
  Te  Te109  1  0.43521763  0.25278781  0.57225972  1
  Te  Te110  1  0.36062318  0.21469317  0.94687386  1
  Te  Te111  1  0.41175068  0.58309915  0.24137914  1
  Te  Te112  1  0.43053916  0.59422059  0.56015205  1
  Te  Te113  1  0.42056477  0.58581386  0.90177562  1
  Te  Te114  1  0.44571203  0.97138082  0.22830639  1
  Te  Te115  1  0.42196620  0.93907310  0.59512137  1
  Te  Te116  1  0.42310555  0.91137571  0.91310068  1
  Te  Te117  1  0.76217324  0.21913535  0.21570681  1
  Te  Te118  1  0.73877260  0.24422580  0.58867310  1
  Te  Te119  1  0.76096114  0.23026236  0.95805853  1
  Te  Te120  1  0.73303202  0.57594052  0.26510977  1
  Te  Te121  1  0.75447677  0.58501085  0.61031230  1
  Te  Te122  1  0.74717728  0.60367483  0.91005492  1
  Te  Te123  1  0.75321721  0.93528494  0.28105063  1
  Te  Te124  1  0.74907938  0.91800003  0.54446035  1
  Te  Te125  1  0.73445160  0.89265579  0.91925379  1
  Te  Te126  1  0.23482399  0.25172070  0.11229939  1
  Te  Te127  1  0.24983094  0.23034279  0.40746269  1
  Te  Te128  1  0.25085951  0.21512065  0.72801299  1
  Te  Te129  1  0.25580955  0.58425479  0.07311756  1
  Te  Te130  1  0.24444399  0.57408999  0.39416827  1
  Te  Te131  1  0.26747936  0.57140257  0.73941449  1
  Te  Te132  1  0.27408949  0.91527137  0.05909397  1
  Te  Te133  1  0.25354270  0.92017156  0.43324246  1
  Te  Te134  1  0.26982861  0.93112131  0.76214652  1
  Te  Te135  1  0.58266547  0.20385588  0.11530343  1
  Te  Te136  1  0.57434016  0.25553532  0.36904341  1
  Te  Te137  1  0.60664776  0.26646559  0.77192984  1
  Te  Te138  1  0.59072853  0.61910552  0.05574040  1
  Te  Te139  1  0.58290173  0.61158229  0.41182226  1
  Te  Te140  1  0.58058438  0.58753286  0.75002526  1
  Te  Te141  1  0.61019358  0.96166923  0.09531712  1
  Te  Te142  1  0.62923262  0.97065038  0.37762491  1
  Te  Te143  1  0.60857861  0.95726699  0.74401514  1
  Te  Te144  1  0.95894131  0.25171448  0.09274489  1
  Te  Te145  1  0.90791500  0.25431521  0.39370605  1
  Te  Te146  1  0.89817104  0.23933010  0.74754675  1
  Te  Te147  1  0.91230840  0.56962173  0.09088616  1
  Te  Te148  1  0.91105622  0.58683217  0.43089205  1
  Te  Te149  1  0.93414100  0.58020889  0.77436923  1
  Te  Te150  1  0.85656251  0.95312468  0.09387283  1
  Te  Te151  1  0.94334571  0.92013099  0.41188534  1
  Te  Te152  1  0.93363169  0.91585206  0.76704614  1
  Te  Te153  1  0.23709905  0.06484241  0.24900418  1
  Te  Te154  1  0.26426697  0.09967811  0.62300449  1
  Te  Te155  1  0.24503999  0.09268604  0.92951123  1
  Te  Te156  1  0.24741755  0.36280311  0.23546037  1
  Te  Te157  1  0.25527582  0.40259015  0.57672044  1
  Te  Te158  1  0.24904186  0.42171029  0.91678068  1
  Te  Te159  1  0.25396335  0.75447256  0.23337518  1
  Te  Te160  1  0.26604020  0.73915839  0.59332253  1
  Te  Te161  1  0.25747380  0.75030434  0.89961912  1
  Te  Te162  1  0.57335345  0.07081705  0.28384008  1
  Te  Te163  1  0.59421602  0.08366835  0.57319816  1
  Te  Te164  1  0.57152662  0.09896263  0.94132187  1
  Te  Te165  1  0.56528177  0.41518272  0.22552006  1
  Te  Te166  1  0.57021247  0.43811001  0.58748674  1
  Te  Te167  1  0.57621437  0.41439600  0.93923875  1
  Te  Te168  1  0.57368237  0.78646721  0.26330182  1
  Te  Te169  1  0.58616146  0.78525820  0.56380210  1
  Te  Te170  1  0.61103017  0.79831554  0.90473964  1
  Te  Te171  1  0.86739332  0.03585627  0.31435304  1
  Te  Te172  1  0.90379781  0.09044163  0.58339789  1
  Te  Te173  1  0.92483791  0.09338938  0.91034877  1
  Te  Te174  1  0.90216832  0.42356226  0.24474617  1
  Te  Te175  1  0.90273779  0.42844866  0.58079436  1
  Te  Te176  1  0.92872277  0.39651409  0.92696523  1
  Te  Te177  1  0.89698582  0.75341550  0.26671457  1
  Te  Te178  1  0.91313301  0.75049958  0.61267252  1
  Te  Te179  1  0.87833884  0.78251511  0.94885411  1
