# generated using pymatgen
data_In2Te3
_symmetry_space_group_name_H-M   'P 1'
_cell_length_a   18.89278883
_cell_length_b   18.90033384
_cell_length_c   18.89752557
_cell_angle_alpha   89.91783205
_cell_angle_beta   90.08107235
_cell_angle_gamma   90.03774376
_symmetry_Int_Tables_number   1
_chemical_formula_structural   In2Te3
_chemical_formula_sum   'In72 Te108'
_cell_volume   6747.91358443
_cell_formula_units_Z   36
loop_
 _symmetry_equiv_pos_site_id
 _symmetry_equiv_pos_as_xyz
  1  'x, y, z'
loop_
 _atom_site_type_symbol
 _atom_site_label
 _atom_site_symmetry_multiplicity
 _atom_site_fract_x
 _atom_site_fract_y
 _atom_site_fract_z
 _atom_site_occupancy
  In  In0  1  0.68424122  0.66611225  0.66467293  1
  In  In1  1  0.33307711  0.14869626  0.80952104  1
  In  In2  1  0.67795615  0.33230094  0.01233996  1
  In  In3  1  -0.02989299  0.48644368  0.18759747  1
  In  In4  1  0.15698153  0.66065378  0.81644009  1
  In  In5  1  0.35231774  0.33689468  0.02530084  1
  In  In6  1  0.49987384  -0.01717726  0.15852383  1
  In  In7  1  0.15932636  0.86455776  0.01599844  1
  In  In8  1  0.84515702  0.30818399  0.80970552  1
  In  In9  1  0.66122581  0.83646171  0.16813609  1
  In  In10  1  0.15055302  0.68291541  0.51167188  1
  In  In11  1  0.82773111  0.84915966  0.36435752  1
  In  In12  1  0.69601786  0.88068669  0.79009513  1
  In  In13  1  0.00194043  0.49818082  0.50168239  1
  In  In14  1  0.65619915  0.49283424  0.83206587  1
  In  In15  1  0.83602739  0.32837032  0.47451147  1
  In  In16  1  0.49168757  0.62017101  0.18583298  1
  In  In17  1  0.32899671  0.16132115  0.19341601  1
  In  In18  1  0.70081064  0.03119317  0.36668839  1
  In  In19  1  0.15747052  0.85175682  0.64878407  1
  In  In20  1  0.67279901  0.66431113  0.32496062  1
  In  In21  1  0.31520662  0.82373521  0.50665043  1
  In  In22  1  0.01132162  0.34530558  -0.00928570  1
  In  In23  1  0.49682726  0.16723660  0.64298786  1
  In  In24  1  0.18187704  0.48835062  0.67900495  1
  In  In25  1  0.52517220  0.13953812  -0.03431957  1
  In  In26  1  0.62188411  0.67072716  0.00877988  1
  In  In27  1  0.64587885  0.32607248  0.64966321  1
  In  In28  1  0.16693532  0.31916450  0.83865891  1
  In  In29  1  0.52305818  0.66031980  0.50295984  1
  In  In30  1  0.49182187  0.82509206  -0.01990532  1
  In  In31  1  0.17336799  0.29626347  0.47639949  1
  In  In32  1  0.14562702  0.87758334  0.32426250  1
  In  In33  1  0.49407060  0.67752028  0.86056908  1
  In  In34  1  0.83466838  0.16190088  -0.01074064  1
  In  In35  1  -0.00927410  0.01044487  0.00096640  1
  In  In36  1  0.67876391  0.16744450  0.17714217  1
  In  In37  1  0.49586557  0.01243131  0.49326538  1
  In  In38  1  0.17098710  0.17629626  -0.00054327  1
  In  In39  1  0.81290372  0.67594908  0.83438104  1
  In  In40  1  0.19103650  0.46235950  0.32632527  1
  In  In41  1  0.16182397  0.16178387  0.64367054  1
  In  In42  1  0.15838933  0.00664516  0.81666201  1
  In  In43  1  0.80820980  0.14423099  0.67743798  1
  In  In44  1  0.48898817  0.32637888  0.82335814  1
  In  In45  1  0.34835455  -0.03093737  0.00457568  1
  In  In46  1  0.34903251  0.83181265  0.17662291  1
  In  In47  1  0.49755138  0.48463496  0.65849134  1
  In  In48  1  0.34662115  0.48844689  0.49770193  1
  In  In49  1  0.83077451  0.51113556  0.64441638  1
  In  In50  1  0.82323256  0.82283340  -0.02292540  1
  In  In51  1  -0.07080527  0.88142064  0.54438598  1
  In  In52  1  0.31973820  0.85008362  0.82742400  1
  In  In53  1  0.16841028  0.48531559  0.03126943  1
  In  In54  1  -0.02115208  0.70283651  0.65632746  1
  In  In55  1  0.34013318  0.65311060  0.34052442  1
  In  In56  1  0.85329389  0.02209488  0.17364276  1
  In  In57  1  0.01971395  0.85385596  0.18897821  1
  In  In58  1  0.01977508  0.20031515  0.17860631  1
  In  In59  1  0.00095356  0.65191637  0.34717116  1
  In  In60  1  0.01677333  0.50198116  0.83268714  1
  In  In61  1  0.17157918  0.67238268  0.16531546  1
  In  In62  1  0.51871507  0.86275878  0.34387041  1
  In  In63  1  0.15187679  0.04464302  0.47346692  1
  In  In64  1  0.84762027  0.65455351  0.17549224  1
  In  In65  1  0.54405064  0.35793775  0.19528361  1
  In  In66  1  0.50146598  0.32728206  0.47185154  1
  In  In67  1  0.32439634  0.64400009  -0.01195468  1
  In  In68  1  0.50849742  0.84377375  0.68463164  1
  In  In69  1  0.82200523  0.48875878  0.02831360  1
  In  In70  1  0.49187489  0.15465171  0.34460796  1
  In  In71  1  0.82875998  0.29900933  0.22094003  1
  Te  Te72  1  0.08334119  0.09073194  0.09116556  1
  Te  Te73  1  0.05014463  0.15024131  0.43350831  1
  Te  Te74  1  0.06997299  0.08562195  0.73133896  1
  Te  Te75  1  0.07639813  0.40006946  0.11713954  1
  Te  Te76  1  0.08024885  0.40426641  0.41086865  1
  Te  Te77  1  0.07602462  0.39680216  0.74280160  1
  Te  Te78  1  0.07565788  0.75605277  0.08350963  1
  Te  Te79  1  0.07762408  0.76675045  0.41045588  1
  Te  Te80  1  0.07580910  0.77137226  0.75139121  1
  Te  Te81  1  0.41432618  0.08447140  0.08219454  1
  Te  Te82  1  0.39067470  0.10645049  0.44303543  1
  Te  Te83  1  0.43136905  0.07126065  0.73588550  1
  Te  Te84  1  0.44550109  0.41956789  0.10338201  1
  Te  Te85  1  0.39996325  0.40297971  0.39155586  1
  Te  Te86  1  0.40164164  0.41119821  0.74157403  1
  Te  Te87  1  0.41817813  0.73608054  0.08134547  1
  Te  Te88  1  0.42430501  0.75617653  0.41628736  1
  Te  Te89  1  0.41023269  0.75017492  0.75650487  1
  Te  Te90  1  0.74632883  0.07325505  0.07727546  1
  Te  Te91  1  0.82747054  0.06857974  0.43925894  1
  Te  Te92  1  0.71651775  0.06730479  0.76839506  1
  Te  Te93  1  0.75158591  0.39921453  0.12652414  1
  Te  Te94  1  0.72824485  0.38970223  0.39046552  1
  Te  Te95  1  0.74736386  0.41323177  0.74097690  1
  Te  Te96  1  0.74532454  0.73861524  0.08796979  1
  Te  Te97  1  0.73747568  0.75078139  0.42585641  1
  Te  Te98  1  0.77853490  0.77141414  0.72137647  1
  Te  Te99  1  0.12041545  0.22009779  0.29064291  1
  Te  Te100  1  0.06532929  0.24813698  0.56758896  1
  Te  Te101  1  0.06338590  0.23003493  0.90609562  1
  Te  Te102  1  0.09012678  0.57439416  0.25137735  1
  Te  Te103  1  0.07734865  0.58687135  0.60750977  1
  Te  Te104  1  0.09751380  0.58232193  0.93269567  1
  Te  Te105  1  0.04558909  0.97476767  0.27184808  1
  Te  Te106  1  0.07988289  0.93063098  0.54981136  1
  Te  Te107  1  0.07029771  0.91925536  0.90612716  1
  Te  Te108  1  0.43888293  0.25347417  0.24295093  1
  Te  Te109  1  0.42355033  0.28288983  0.58921327  1
  Te  Te110  1  0.40220829  0.23201111  0.91975491  1
  Te  Te111  1  0.40027830  0.53864087  0.26967594  1
  Te  Te112  1  0.41485406  0.59223439  0.58521962  1
  Te  Te113  1  0.43080286  0.56377766  0.92786446  1
  Te  Te114  1  0.40680095  0.93734605  0.27196465  1
  Te  Te115  1  0.41907959  0.90934545  0.57752459  1
  Te  Te116  1  0.43591560  0.93223568  0.88634672  1
  Te  Te117  1  0.70778146  0.25111678  0.30059965  1
  Te  Te118  1  0.75238867  0.24826279  0.57761271  1
  Te  Te119  1  0.74156589  0.24769928  0.90334104  1
  Te  Te120  1  0.75856180  0.56887254  0.25325361  1
  Te  Te121  1  0.72625067  0.57014421  0.56110707  1
  Te  Te122  1  0.73633923  0.57851160  0.93073567  1
  Te  Te123  1  0.75180029  0.92671162  0.24918186  1
  Te  Te124  1  0.79268695  0.94813573  0.57787469  1
  Te  Te125  1  0.79222598  0.93833760  0.88958665  1
  Te  Te126  1  0.24139191  0.26291462  0.10493395  1
  Te  Te127  1  0.25673126  0.23162627  0.36916583  1
  Te  Te128  1  0.25385899  0.25184018  0.73497738  1
  Te  Te129  1  0.26822871  0.56967787  0.10933430  1
  Te  Te130  1  0.23101495  0.58477057  0.42649664  1
  Te  Te131  1  0.26130244  0.56987433  0.77207166  1
  Te  Te132  1  0.24925546  0.93264851  0.11765816  1
  Te  Te133  1  0.24918941  0.93008933  0.42246030  1
  Te  Te134  1  0.25768196  0.94040516  0.72197701  1
  Te  Te135  1  0.58084122  0.23194640  0.07795984  1
  Te  Te136  1  0.59772092  0.21975430  0.42902743  1
  Te  Te137  1  0.58725950  0.23641167  0.75568788  1
  Te  Te138  1  0.59791516  0.56204454  0.10394422  1
  Te  Te139  1  0.56964010  0.57525217  0.39087890  1
  Te  Te140  1  0.57718472  0.59302718  0.74905174  1
  Te  Te141  1  0.59175163  0.91551255  0.05858773  1
  Te  Te142  1  0.61515459  0.92591217  0.43924084  1
  Te  Te143  1  0.61182780  0.95281951  0.69025669  1
  Te  Te144  1  0.91351408  0.26112800  0.07486291  1
  Te  Te145  1  0.91317043  0.22037604  0.40473485  1
  Te  Te146  1  0.92745193  0.21748500  0.73142333  1
  Te  Te147  1  0.93352802  0.58191134  0.07295519  1
  Te  Te148  1  0.90242574  0.57558601  0.42400430  1
  Te  Te149  1  0.91559640  0.58491164  0.75040059  1
  Te  Te150  1  0.90895239  0.90560235  0.08634000  1
  Te  Te151  1  0.93039927  0.95303140  0.39666204  1
  Te  Te152  1  0.90062540  0.93476638  0.68383759  1
  Te  Te153  1  0.22851892  0.10122976  0.28371187  1
  Te  Te154  1  0.26450301  0.09626077  0.55802978  1
  Te  Te155  1  0.24989061  0.06686114  0.92760896  1
  Te  Te156  1  0.23288497  0.37158739  0.22082730  1
  Te  Te157  1  0.23973354  0.40604083  0.56682417  1
  Te  Te158  1  0.25087905  0.40645747  0.93090820  1
  Te  Te159  1  0.24369623  0.75847110  0.26878968  1
  Te  Te160  1  0.25113568  0.73538798  0.61246580  1
  Te  Te161  1  0.24909844  0.76852445  0.93526878  1
  Te  Te162  1  0.58762266  0.06458528  0.25280690  1
  Te  Te163  1  0.59902976  0.09717696  0.55975884  1
  Te  Te164  1  0.61748276  0.05901368  0.88915174  1
  Te  Te165  1  0.60188668  0.43288483  0.30846115  1
  Te  Te166  1  0.59065111  0.42961426  0.55483654  1
  Te  Te167  1  0.57531690  0.40485893  0.92405487  1
  Te  Te168  1  0.55673108  0.75456757  0.24169578  1
  Te  Te169  1  0.59544289  0.76327653  0.58615765  1
  Te  Te170  1  0.61217148  0.77443535  0.89012989  1
  Te  Te171  1  0.89610391  0.14422911  0.24850415  1
  Te  Te172  1  0.90062487  0.06654606  0.58287361  1
  Te  Te173  1  0.90823882  0.07368165  0.89547233  1
  Te  Te174  1  0.92226553  0.39121192  0.28857362  1
  Te  Te175  1  0.91731458  0.40282873  0.58572783  1
  Te  Te176  1  0.90225297  0.42277423  0.90897440  1
  Te  Te177  1  0.91577511  0.76029944  0.26146704  1
  Te  Te178  1  0.90379564  0.73306486  0.53469497  1
  Te  Te179  1  0.92206414  0.74010028  0.90803991  1
