# generated using pymatgen
data_In2Te3
_symmetry_space_group_name_H-M   'P 1'
_cell_length_a   18.77161268
_cell_length_b   18.77137892
_cell_length_c   18.77761369
_cell_angle_alpha   90.01754616
_cell_angle_beta   90.01879781
_cell_angle_gamma   89.98763340
_symmetry_Int_Tables_number   1
_chemical_formula_structural   In2Te3
_chemical_formula_sum   'In72 Te108'
_cell_volume   6616.64916331
_cell_formula_units_Z   36
loop_
 _symmetry_equiv_pos_site_id
 _symmetry_equiv_pos_as_xyz
  1  'x, y, z'
loop_
 _atom_site_type_symbol
 _atom_site_label
 _atom_site_symmetry_multiplicity
 _atom_site_fract_x
 _atom_site_fract_y
 _atom_site_fract_z
 _atom_site_occupancy
  In  In0  1  -0.00644190  0.65428580  0.34376465  1
  In  In1  1  0.82559820  0.00873250  0.49156758  1
  In  In2  1  0.34976705  0.51722880  0.83727398  1
  In  In3  1  0.35626924  0.85380917  0.48121154  1
  In  In4  1  0.80156136  0.65840882  0.16453204  1
  In  In5  1  0.16504937  0.49504497  0.34094250  1
  In  In6  1  -0.02817623  0.32901641  -0.00307881  1
  In  In7  1  0.18531739  0.15627476  0.01145647  1
  In  In8  1  0.18411513  0.84033041  0.35495958  1
  In  In9  1  0.18144301  0.67307034  0.16655025  1
  In  In10  1  0.18017385  0.15827045  0.66194874  1
  In  In11  1  0.19180186  0.67250318  0.85479469  1
  In  In12  1  0.82394907  0.83532082  0.01912208  1
  In  In13  1  0.83872696  0.65523133  0.51689203  1
  In  In14  1  -0.00433849  0.36034380  0.65435156  1
  In  In15  1  -0.01522072  0.84184465  0.16828761  1
  In  In16  1  0.50988093  0.83796832  0.00711864  1
  In  In17  1  0.52322825  0.16582417  0.01363167  1
  In  In18  1  0.18316584  0.84243213  0.64724172  1
  In  In19  1  0.82876494  0.82510452  0.67166701  1
  In  In20  1  0.63254231  0.16875941  0.19665042  1
  In  In21  1  0.17560673  0.51040132  0.65008445  1
  In  In22  1  0.18958601  0.81402688  -0.03109667  1
  In  In23  1  -0.04081943  0.46667306  0.21778920  1
  In  In24  1  -0.01141198  0.01183077  0.33136020  1
  In  In25  1  0.66279064  0.34389801  0.34979547  1
  In  In26  1  0.00822630  0.64688353  0.66547753  1
  In  In27  1  0.16656567  0.32867777  0.17878453  1
  In  In28  1  0.83351988  0.48088783  0.65747816  1
  In  In29  1  0.34727625  0.48669475  0.17853916  1
  In  In30  1  0.17181975  0.33701039  0.49269656  1
  In  In31  1  0.32642850  0.16679487  0.82010571  1
  In  In32  1  0.14890017  0.49436023  -0.01075648  1
  In  In33  1  0.79904075  0.85971283  0.32410201  1
  In  In34  1  0.38532137  0.87278411  0.17669183  1
  In  In35  1  -0.00547639  0.83187344  0.82830375  1
  In  In36  1  0.52556890  0.67591526  0.15239999  1
  In  In37  1  0.63380495  0.84476156  0.48019096  1
  In  In38  1  0.65403906  0.83695972  0.84219334  1
  In  In39  1  -0.02767593  0.48858417  0.82096507  1
  In  In40  1  0.34515123  0.35594090  0.01089298  1
  In  In41  1  0.16345585  0.15863019  0.32182713  1
  In  In42  1  0.49972697  0.66469554  0.49644722  1
  In  In43  1  0.65660043  0.00067329  0.69080032  1
  In  In44  1  -0.02922898  0.66402611  0.01836957  1
  In  In45  1  0.50916784  0.48349546  0.33449331  1
  In  In46  1  0.66388375  0.67146174  0.65380442  1
  In  In47  1  0.65697145  0.65982935  0.32546990  1
  In  In48  1  0.35461119  0.00768446  0.66033872  1
  In  In49  1  0.79797435  0.31127731  0.83262003  1
  In  In50  1  0.66728797  0.16428428  0.47433579  1
  In  In51  1  0.35719389  -0.00303447  -0.00947249  1
  In  In52  1  0.65843121  -0.00139320  0.00567556  1
  In  In53  1  0.82128747  0.17353713  0.00773813  1
  In  In54  1  -0.00076872  0.15710008  0.82708720  1
  In  In55  1  0.33081892  0.67341823  0.35372876  1
  In  In56  1  0.66655954  0.51320042  0.84843602  1
  In  In57  1  0.00792367  -0.02060520  0.65511029  1
  In  In58  1  0.52165185  0.48550901  0.63527512  1
  In  In59  1  0.49313906  0.49629777  0.01803563  1
  In  In60  1  -0.03706522  0.18599805  0.18366335  1
  In  In61  1  -0.01314938  -0.02428367  0.00681338  1
  In  In62  1  0.17638110  0.01924546  0.15411901  1
  In  In63  1  0.17944553  0.28952722  0.80540426  1
  In  In64  1  -0.02418438  0.19043967  0.46994742  1
  In  In65  1  0.17568298  0.65801914  0.51674942  1
  In  In66  1  0.50888167  0.32295014  0.81716033  1
  In  In67  1  0.38900627  0.17578997  0.20795573  1
  In  In68  1  0.31812735  0.67374420  -0.03496125  1
  In  In69  1  0.51229393  0.17898872  0.64944174  1
  In  In70  1  0.37134031  0.15770358  0.49009982  1
  In  In71  1  0.79625497  0.16952246  0.64840189  1
  Te  Te72  1  0.05873424  0.09851137  0.09002266  1
  Te  Te73  1  0.07996139  0.08543923  0.42823792  1
  Te  Te74  1  0.09393622  0.06681009  0.74956280  1
  Te  Te75  1  0.06990131  0.41105985  0.09085032  1
  Te  Te76  1  0.06918900  0.40822133  0.41259067  1
  Te  Te77  1  0.09642814  0.42156708  0.75896523  1
  Te  Te78  1  0.07931107  0.76108669  0.07315078  1
  Te  Te79  1  0.08735514  0.74482910  0.42376271  1
  Te  Te80  1  0.09330393  0.74653647  0.74586432  1
  Te  Te81  1  0.43296629  0.07546060  0.09794715  1
  Te  Te82  1  0.45032250  0.05924787  0.40703605  1
  Te  Te83  1  0.44034395  0.09040484  0.75646389  1
  Te  Te84  1  0.44827716  0.38804514  0.11950099  1
  Te  Te85  1  0.42396575  0.38843942  0.40799205  1
  Te  Te86  1  0.42108159  0.42210833  0.74316461  1
  Te  Te87  1  0.40217363  0.74527251  0.07790586  1
  Te  Te88  1  0.44565573  0.76361092  0.39301378  1
  Te  Te89  1  0.39955088  0.70363638  0.79167344  1
  Te  Te90  1  0.73273835  0.09190098  0.10100652  1
  Te  Te91  1  0.75841787  0.08550680  0.38289123  1
  Te  Te92  1  0.74878339  0.09121379  0.76327949  1
  Te  Te93  1  0.72808446  0.47226508  0.03973396  1
  Te  Te94  1  0.78235807  0.40704561  0.41992694  1
  Te  Te95  1  0.72815745  0.41427622  0.74484917  1
  Te  Te96  1  0.71964300  0.74157745  0.07078186  1
  Te  Te97  1  0.74546910  0.74913927  0.42784065  1
  Te  Te98  1  0.74513317  0.73860383  0.76408330  1
  Te  Te99  1  0.06327467  0.26251820  0.27098516  1
  Te  Te100  1  0.07595604  0.24556775  0.58858290  1
  Te  Te101  1  0.08721215  0.25124890  0.92850867  1
  Te  Te102  1  0.08317218  0.57817043  0.23756403  1
  Te  Te103  1  0.06362857  0.55779177  0.55604233  1
  Te  Te104  1  0.06080291  0.59156600  0.90831748  1
  Te  Te105  1  0.09101225  0.92088025  0.24636284  1
  Te  Te106  1  0.09175001  0.91305869  0.55459586  1
  Te  Te107  1  0.08966946  0.91997597  0.91029980  1
  Te  Te108  1  0.45111227  0.27913172  0.29888801  1
  Te  Te109  1  0.44199073  0.27374683  0.55587229  1
  Te  Te110  1  0.40986454  0.24771180  0.92385443  1
  Te  Te111  1  0.42570684  0.59680244  0.24993047  1
  Te  Te112  1  0.41630959  0.57057253  0.57340799  1
  Te  Te113  1  0.45160208  0.60433320  0.91571802  1
  Te  Te114  1  0.44547061  0.94591841  0.29341465  1
  Te  Te115  1  0.44470871  0.92035355  0.58011057  1
  Te  Te116  1  0.45031830  0.92397248  0.90060002  1
  Te  Te117  1  0.74241591  0.25454810  0.25611881  1
  Te  Te118  1  0.71623171  0.27202159  0.57390427  1
  Te  Te119  1  0.71379090  0.24679583  0.93544894  1
  Te  Te120  1  0.74359817  0.55648650  0.25823275  1
  Te  Te121  1  0.73169846  0.56237726  0.57346134  1
  Te  Te122  1  0.75743900  0.58095134  0.94499441  1
  Te  Te123  1  0.69713789  0.90213322  0.22617681  1
  Te  Te124  1  0.74155140  0.91179961  0.57902061  1
  Te  Te125  1  0.75694660  0.92438276  0.91433068  1
  Te  Te126  1  0.27119848  0.24411427  0.10290924  1
  Te  Te127  1  0.25633336  0.23466813  0.41634515  1
  Te  Te128  1  0.28820307  0.25916298  0.70388034  1
  Te  Te129  1  0.25860655  0.56556008  0.07246302  1
  Te  Te130  1  0.26651827  0.56302492  0.43353094  1
  Te  Te131  1  0.26600820  0.60041354  0.73673371  1
  Te  Te132  1  0.25366809  0.91262838  0.07627154  1
  Te  Te133  1  0.26451003  0.94864251  0.41129851  1
  Te  Te134  1  0.25751092  0.92819107  0.74283839  1
  Te  Te135  1  0.59708075  0.26842488  0.09048828  1
  Te  Te136  1  0.55685612  0.25184517  0.41170029  1
  Te  Te137  1  0.60748590  0.23678120  0.74944793  1
  Te  Te138  1  0.60950360  0.56402188  0.09039046  1
  Te  Te139  1  0.59586946  0.56656042  0.43025794  1
  Te  Te140  1  0.57763651  0.58410401  0.74355836  1
  Te  Te141  1  0.58653347  0.91663931  0.11194265  1
  Te  Te142  1  0.59501506  0.95813796  0.38944571  1
  Te  Te143  1  0.56033049  0.90175782  0.74678070  1
  Te  Te144  1  0.87407903  0.28306230  0.10395572  1
  Te  Te145  1  0.86107510  0.25650644  0.40236696  1
  Te  Te146  1  0.91989098  0.26191656  0.74951887  1
  Te  Te147  1  0.90320731  0.55853385  0.10243415  1
  Te  Te148  1  0.88948719  0.57090707  0.40524092  1
  Te  Te149  1  0.89054918  0.59374283  0.74691427  1
  Te  Te150  1  0.88325659  0.94132294  0.11405388  1
  Te  Te151  1  0.91400016  0.90711601  0.41559810  1
  Te  Te152  1  0.90263447  0.93050481  0.75511171  1
  Te  Te153  1  0.27562642  0.07940987  0.25306848  1
  Te  Te154  1  0.25832369  0.07541105  0.56231385  1
  Te  Te155  1  0.24765876  0.06680445  0.90634850  1
  Te  Te156  1  0.26454666  0.39972438  0.27245190  1
  Te  Te157  1  0.26217524  0.41313355  0.58166206  1
  Te  Te158  1  0.24882796  0.41086823  0.90473206  1
  Te  Te159  1  0.26985761  0.77249585  0.24693695  1
  Te  Te160  1  0.28172678  0.75145224  0.57437233  1
  Te  Te161  1  0.30411631  0.79748337  0.85952600  1
  Te  Te162  1  0.55527061  0.07308328  0.28611945  1
  Te  Te163  1  0.59156535  0.07328301  0.57236459  1
  Te  Te164  1  0.57400242  0.07428703  0.90993584  1
  Te  Te165  1  0.62178338  0.44485404  0.24299066  1
  Te  Te166  1  0.60741046  0.38595923  0.57047630  1
  Te  Te167  1  0.57804555  0.41025648  0.92180503  1
  Te  Te168  1  0.59004105  0.77073887  0.24959452  1
  Te  Te169  1  0.56153553  0.76634901  0.59407011  1
  Te  Te170  1  0.60463997  0.73920865  0.94489792  1
  Te  Te171  1  0.88127464  0.08715145  0.26200176  1
  Te  Te172  1  0.91646333  0.09521492  0.58736035  1
  Te  Te173  1  0.90977426  0.07962443  0.92256467  1
  Te  Te174  1  0.87159706  0.37186634  0.29551775  1
  Te  Te175  1  0.89945687  0.40136136  0.54878213  1
  Te  Te176  1  0.87875103  0.41923474  0.91736711  1
  Te  Te177  1  0.90254512  0.74615165  0.25369225  1
  Te  Te178  1  0.93314335  0.75577547  0.58431448  1
  Te  Te179  1  0.89870145  0.74835045  0.91394669  1
