# generated using pymatgen
data_In2Te3
_symmetry_space_group_name_H-M   'P 1'
_cell_length_a   18.90709755
_cell_length_b   18.90488692
_cell_length_c   18.91727198
_cell_angle_alpha   90.02701432
_cell_angle_beta   89.96992815
_cell_angle_gamma   90.06751414
_symmetry_Int_Tables_number   1
_chemical_formula_structural   In2Te3
_chemical_formula_sum   'In72 Te108'
_cell_volume   6761.71788702
_cell_formula_units_Z   36
loop_
 _symmetry_equiv_pos_site_id
 _symmetry_equiv_pos_as_xyz
  1  'x, y, z'
loop_
 _atom_site_type_symbol
 _atom_site_label
 _atom_site_symmetry_multiplicity
 _atom_site_fract_x
 _atom_site_fract_y
 _atom_site_fract_z
 _atom_site_occupancy
  In  In0  1  0.47871522  0.81649834  0.32315473  1
  In  In1  1  0.51391517  0.18880456  0.65641268  1
  In  In2  1  0.33210685  0.49487434  0.48976686  1
  In  In3  1  0.66520176  0.52699805  0.51063900  1
  In  In4  1  0.14921882  0.83094874  0.34844547  1
  In  In5  1  0.83520442  0.35420594  0.83080788  1
  In  In6  1  0.47768643  0.64549276  0.81832008  1
  In  In7  1  0.67295655  0.49761543  0.84160613  1
  In  In8  1  0.66713865  0.82420781  0.84119310  1
  In  In9  1  0.68289538  0.17307981  0.50310385  1
  In  In10  1  0.84398620  0.18680278  0.35402006  1
  In  In11  1  0.83331098  0.65905916  0.84819935  1
  In  In12  1  0.17145673  -0.00628361  0.83027280  1
  In  In13  1  0.83694107  0.15331912  0.01056911  1
  In  In14  1  0.49873712  0.66761874  0.47686261  1
  In  In15  1  0.65790142  0.33279515  -0.00702287  1
  In  In16  1  0.50598947  0.84036706  -0.01498083  1
  In  In17  1  0.65091108  0.14833613  0.82753005  1
  In  In18  1  0.83475726  0.33566093  0.17099991  1
  In  In19  1  0.18021697  0.83129826  0.00335969  1
  In  In20  1  0.49827186  -0.02916599  0.14780783  1
  In  In21  1  -0.00546041  0.49954378  0.83403701  1
  In  In22  1  0.85282341  -0.02795593  0.19207384  1
  In  In23  1  0.52072746  0.16907310  0.00612734  1
  In  In24  1  0.31553696  0.83049888  0.18195363  1
  In  In25  1  0.50435633  0.48692044  0.65972098  1
  In  In26  1  0.00407557  0.01337347  0.01068879  1
  In  In27  1  0.26180271  0.19153262  0.20091141  1
  In  In28  1  0.00874132  0.66794350  0.35409511  1
  In  In29  1  0.02732160  0.01226969  0.34867456  1
  In  In30  1  0.82663622  0.79327572  0.35815701  1
  In  In31  1  0.31380112  0.14974558  0.82753627  1
  In  In32  1  0.34228385  0.65047986  -0.00089515  1
  In  In33  1  0.18807587  0.49353434  0.01377904  1
  In  In34  1  0.00923866  0.50617173  0.14987555  1
  In  In35  1  0.32433713  -0.02316396  0.66601636  1
  In  In36  1  0.00712315  0.14867712  0.48011756  1
  In  In37  1  0.49277258  0.35235046  0.49524448  1
  In  In38  1  0.66669074  0.17182318  0.14087964  1
  In  In39  1  0.49639231  0.00915911  0.84494459  1
  In  In40  1  0.64798792  0.35414351  0.34348991  1
  In  In41  1  0.04033255  0.19159989  0.19609367  1
  In  In42  1  0.83278995  -0.02078211  0.83054983  1
  In  In43  1  0.83958702  0.81300218  0.67346797  1
  In  In44  1  0.86651007  0.33943507  0.50636929  1
  In  In45  1  0.15878554  0.35054067  0.49155448  1
  In  In46  1  0.31767164  0.19693299  0.48633385  1
  In  In47  1  0.00505722  0.82279026  0.52433359  1
  In  In48  1  0.29673718  0.68676599  0.63749889  1
  In  In49  1  0.48914274  0.02511172  0.49943752  1
  In  In50  1  0.03602935  0.31479981  -0.02378700  1
  In  In51  1  0.84390331  0.51474034  0.31487757  1
  In  In52  1  0.13782811  0.68398636  0.81525220  1
  In  In53  1  0.86215464  0.16243515  0.67472640  1
  In  In54  1  0.17620251  0.16415181  0.68711106  1
  In  In55  1  0.63822775  0.49853697  0.15441201  1
  In  In56  1  0.49351993  0.33988019  0.82931580  1
  In  In57  1  0.14923035  -0.01362023  0.50134205  1
  In  In58  1  0.49603163  0.65833384  0.18002889  1
  In  In59  1  0.32606161  0.02079213  -0.01769256  1
  In  In60  1  0.84363730  -0.03039962  0.51222094  1
  In  In61  1  0.47205349  0.17378730  0.31030527  1
  In  In62  1  0.35055087  0.35088846  0.03450524  1
  In  In63  1  0.01250404  0.34808320  0.66771385  1
  In  In64  1  0.17402491  0.48848317  0.31564573  1
  In  In65  1  0.79611455  0.68558588  0.13320874  1
  In  In66  1  -0.01103858  0.68500550  -0.00143455  1
  In  In67  1  0.66176101  -0.01527448  0.32419303  1
  In  In68  1  0.14727663  0.51933856  0.65043258  1
  In  In69  1  0.00368030  0.82943500  0.17807212  1
  In  In70  1  0.50376066  0.82825963  0.67003733  1
  In  In71  1  0.67619008  0.81226242  0.48982596  1
  Te  Te72  1  0.08920448  0.08684912  0.10527402  1
  Te  Te73  1  0.13756707  0.11008123  0.39747350  1
  Te  Te74  1  0.07652639  0.08636416  0.76330615  1
  Te  Te75  1  0.09658040  0.39648299  0.08972114  1
  Te  Te76  1  0.08207370  0.46451523  0.43531796  1
  Te  Te77  1  0.10361420  0.42104471  0.76414662  1
  Te  Te78  1  0.09422568  0.74294505  0.09278682  1
  Te  Te79  1  0.10451507  0.72686539  0.45852483  1
  Te  Te80  1  0.08301948  0.75183765  0.69387652  1
  Te  Te81  1  0.42009999  0.08453778  0.08398861  1
  Te  Te82  1  0.38855315  0.08845188  0.40514378  1
  Te  Te83  1  0.42535555  0.08545516  0.73211457  1
  Te  Te84  1  0.40264731  0.46468245  0.11526241  1
  Te  Te85  1  0.41134136  0.41654649  0.39248719  1
  Te  Te86  1  0.40514452  0.41961716  0.74384320  1
  Te  Te87  1  0.41073001  0.76453805  0.08336023  1
  Te  Te88  1  0.38854253  0.72693442  0.39775058  1
  Te  Te89  1  0.39749381  0.74890567  0.74140079  1
  Te  Te90  1  0.76019446  0.05945952  0.10187560  1
  Te  Te91  1  0.76161447  0.06680364  0.41614203  1
  Te  Te92  1  0.75488404  0.07737607  0.74174546  1
  Te  Te93  1  0.75070561  0.41742844  0.07830388  1
  Te  Te94  1  0.76742027  0.41434696  0.41048327  1
  Te  Te95  1  0.76763876  0.44509437  0.73973413  1
  Te  Te96  1  0.73818713  0.78816050  0.04740036  1
  Te  Te97  1  0.73216083  0.69227198  0.41613797  1
  Te  Te98  1  0.73840453  0.72859373  0.74850227  1
  Te  Te99  1  0.14417100  0.26967238  0.26663687  1
  Te  Te100  1  0.08566795  0.24129140  0.57928459  1
  Te  Te101  1  0.09911931  0.21489895  0.89018198  1
  Te  Te102  1  0.08662804  0.59435767  0.24529848  1
  Te  Te103  1  0.03896080  0.62115332  0.63263695  1
  Te  Te104  1  0.08582686  0.58246609  0.92661098  1
  Te  Te105  1  0.09912622  0.92943497  0.24084004  1
  Te  Te106  1  0.08765581  0.90968955  0.61187429  1
  Te  Te107  1  0.08131834  0.91249876  0.92304069  1
  Te  Te108  1  0.38941640  0.26268907  0.23177994  1
  Te  Te109  1  0.40482684  0.26920574  0.58815661  1
  Te  Te110  1  0.42452563  0.22770100  0.90653832  1
  Te  Te111  1  0.37676133  0.57760168  0.22349163  1
  Te  Te112  1  0.41314725  0.59043951  0.58703027  1
  Te  Te113  1  0.39924993  0.55372661  0.90376138  1
  Te  Te114  1  0.40401200  0.93199321  0.25937822  1
  Te  Te115  1  0.42047417  0.90811071  0.57014948  1
  Te  Te116  1  0.39697947  0.91153340  0.90305828  1
  Te  Te117  1  0.73759984  0.24547252  0.25991150  1
  Te  Te118  1  0.77204192  0.25462897  0.59378349  1
  Te  Te119  1  0.74867795  0.23762950  0.91627116  1
  Te  Te120  1  0.73746174  0.58621479  0.23363902  1
  Te  Te121  1  0.77134670  0.61921367  0.55372089  1
  Te  Te122  1  0.74938958  0.57816723  0.93789992  1
  Te  Te123  1  0.74926803  0.88116874  0.25772229  1
  Te  Te124  1  0.73781736  0.90457257  0.59474316  1
  Te  Te125  1  0.75430564  0.90331360  0.93379154  1
  Te  Te126  1  0.24624037  0.25263484  0.06540027  1
  Te  Te127  1  0.25469875  0.29279487  0.39136374  1
  Te  Te128  1  0.25865908  0.26428992  0.75498812  1
  Te  Te129  1  0.24674048  0.59889324  0.10206586  1
  Te  Te130  1  0.22931686  0.57644642  0.42303368  1
  Te  Te131  1  0.24051459  0.59376498  0.74544791  1
  Te  Te132  1  0.25352046  0.93532496  0.08532398  1
  Te  Te133  1  0.25276058  0.90168671  0.43489169  1
  Te  Te134  1  0.24731190  0.89171467  0.75619309  1
  Te  Te135  1  0.56552320  0.27775321  0.10234261  1
  Te  Te136  1  0.57220745  0.23354254  0.41836054  1
  Te  Te137  1  0.60412307  0.26919076  0.74875062  1
  Te  Te138  1  0.57508336  0.60084166  0.07020935  1
  Te  Te139  1  0.56570477  0.55597745  0.40743473  1
  Te  Te140  1  0.59126594  0.58051371  0.74088943  1
  Te  Te141  1  0.60269206  0.88201090  0.09161949  1
  Te  Te142  1  0.57370968  0.91392510  0.42525994  1
  Te  Te143  1  0.58542913  0.92262727  0.75652997  1
  Te  Te144  1  0.92769813  0.24310581  0.09276923  1
  Te  Te145  1  0.95833248  0.27209897  0.40377206  1
  Te  Te146  1  0.93449678  0.25936589  0.76585201  1
  Te  Te147  1  0.90348362  0.58820964  0.07835967  1
  Te  Te148  1  0.93325039  0.56170734  0.42383716  1
  Te  Te149  1  0.92394030  0.59524373  0.74463583  1
  Te  Te150  1  0.91922421  0.90168113  0.07559847  1
  Te  Te151  1  0.93228360  0.90318640  0.40132477  1
  Te  Te152  1  0.92912536  0.89299573  0.75903364  1
  Te  Te153  1  0.21667967  0.06991716  0.27383680  1
  Te  Te154  1  0.25636595  0.08246623  0.57930143  1
  Te  Te155  1  0.20801710  0.11141424  0.93543084  1
  Te  Te156  1  0.27974316  0.45200725  0.21382741  1
  Te  Te157  1  0.24771842  0.41996857  0.59269640  1
  Te  Te158  1  0.27001177  0.40946212  0.92505178  1
  Te  Te159  1  0.24890746  0.74402321  0.28053235  1
  Te  Te160  1  0.24626856  0.78587137  0.54139885  1
  Te  Te161  1  0.24777368  0.73569203  0.90875899  1
  Te  Te162  1  0.58137046  0.08177563  0.23958197  1
  Te  Te163  1  0.59875275  0.08033288  0.59004257  1
  Te  Te164  1  0.60322106  0.05886061  0.94152457  1
  Te  Te165  1  0.55716998  0.42102241  0.25162717  1
  Te  Te166  1  0.60675641  0.40533886  0.58021321  1
  Te  Te167  1  0.56318002  0.43070515  0.92941528  1
  Te  Te168  1  0.58688878  0.74625892  0.25590404  1
  Te  Te169  1  0.58503529  0.73365765  0.58426983  1
  Te  Te170  1  0.57187491  0.72719473  0.90984146  1
  Te  Te171  1  0.92455026  0.09419191  0.25964246  1
  Te  Te172  1  0.93799585  0.06361647  0.58633299  1
  Te  Te173  1  0.91915006  0.08388200  0.90540168  1
  Te  Te174  1  0.93849395  0.41333421  0.24919326  1
  Te  Te175  1  0.91530943  0.43744014  0.60375333  1
  Te  Te176  1  0.92448363  0.41179047  0.93918069  1
  Te  Te177  1  0.90959646  0.72921483  0.24423216  1
  Te  Te178  1  0.88747793  0.73372689  0.55471444  1
  Te  Te179  1  0.92654714  0.76678633  0.89388980  1
