# generated using pymatgen
data_In2Te3
_symmetry_space_group_name_H-M   'P 1'
_cell_length_a   18.91170327
_cell_length_b   18.90684650
_cell_length_c   18.89066014
_cell_angle_alpha   89.99918005
_cell_angle_beta   89.84180912
_cell_angle_gamma   90.00422180
_symmetry_Int_Tables_number   1
_chemical_formula_structural   In2Te3
_chemical_formula_sum   'In72 Te108'
_cell_volume   6754.53134501
_cell_formula_units_Z   36
loop_
 _symmetry_equiv_pos_site_id
 _symmetry_equiv_pos_as_xyz
  1  'x, y, z'
loop_
 _atom_site_type_symbol
 _atom_site_label
 _atom_site_symmetry_multiplicity
 _atom_site_fract_x
 _atom_site_fract_y
 _atom_site_fract_z
 _atom_site_occupancy
  In  In0  1  0.51055558  0.83488559  0.35820718  1
  In  In1  1  0.16715285  0.82876462  0.32666477  1
  In  In2  1  0.70838033  0.14467442  0.22404403  1
  In  In3  1  0.67702382  0.18317784  0.81848681  1
  In  In4  1  0.86108243  0.31808622  0.12951287  1
  In  In5  1  0.84271924  -0.00794883  0.17722659  1
  In  In6  1  0.84117735  0.83517547  0.32297560  1
  In  In7  1  0.13186090  0.32052143  0.15617690  1
  In  In8  1  0.00399308  0.83390884  0.16541610  1
  In  In9  1  0.17720503  0.65355282  0.50341143  1
  In  In10  1  0.33665948  0.67597097  0.67328048  1
  In  In11  1  -0.00540969  0.01284861  0.33372768  1
  In  In12  1  0.83376596  0.52948692  -0.00443644  1
  In  In13  1  0.79970863  0.49820648  0.66715099  1
  In  In14  1  0.64868374  0.03098892  0.64991622  1
  In  In15  1  0.49760201  0.18069941  -0.01988854  1
  In  In16  1  0.83513193  0.64611340  0.51294247  1
  In  In17  1  0.16972452  0.18600637  0.65969870  1
  In  In18  1  0.48804900  0.84254609  0.01105443  1
  In  In19  1  0.17070426  0.83369342  0.67976388  1
  In  In20  1  0.18459778  0.85090139  -0.01364264  1
  In  In21  1  0.67277257  0.30686257  0.64552874  1
  In  In22  1  0.49550842  0.65096646  0.51795315  1
  In  In23  1  0.65622620  0.32950544  -0.02281577  1
  In  In24  1  0.33875604  0.18013243  0.18850260  1
  In  In25  1  0.33728776  0.15290427  0.81865221  1
  In  In26  1  0.49593767  0.31692393  0.19296800  1
  In  In27  1  0.01478936  0.50087699  0.83787719  1
  In  In28  1  0.65609468  0.83440585  0.82891133  1
  In  In29  1  0.36772273  -0.03198157  0.63157385  1
  In  In30  1  0.48132595  0.49400583  0.00211931  1
  In  In31  1  0.65049026  0.66422389  0.34797990  1
  In  In32  1  0.65700922  0.32166592  0.35317110  1
  In  In33  1  0.27308983  0.34592885  0.00068475  1
  In  In34  1  0.69001977  0.83697121  0.14739737  1
  In  In35  1  0.17524657  0.50586118  0.33536688  1
  In  In36  1  0.15664938  0.16814941  0.30970476  1
  In  In37  1  -0.00950032  0.48191423  0.48077181  1
  In  In38  1  0.33445886  0.33679872  0.34947751  1
  In  In39  1  0.01597003  0.17513612  0.84860332  1
  In  In40  1  0.68743077  0.66471754  0.00463138  1
  In  In41  1  0.32601994  0.67010513  -0.01731161  1
  In  In42  1  0.17309085  0.66941505  0.17841375  1
  In  In43  1  0.33956251  0.50245127  0.17989938  1
  In  In44  1  0.00837165  0.81400401  0.50202988  1
  In  In45  1  0.03208785  0.04969077  0.01502428  1
  In  In46  1  0.31128617  0.01570851  0.00572988  1
  In  In47  1  0.51188552  0.62888387  0.79263338  1
  In  In48  1  0.81493902  0.67803619  0.82167586  1
  In  In49  1  0.66640308  0.48425979  0.18262910  1
  In  In50  1  0.49935902  0.01355819  0.83104249  1
  In  In51  1  0.35503986  0.17118253  0.50890087  1
  In  In52  1  0.16991208  0.50088431  0.68498277  1
  In  In53  1  0.00742401  0.67940492  0.67565092  1
  In  In54  1  0.16494695  -0.00165329  0.48575297  1
  In  In55  1  0.36556594  0.00499772  0.35927937  1
  In  In56  1  0.85305216  0.32879266  0.84486231  1
  In  In57  1  0.81880946  0.83489276  -0.02371817  1
  In  In58  1  -0.00819561  0.34580437  0.67652149  1
  In  In59  1  0.71418347  -0.01707842  -0.02213495  1
  In  In60  1  0.48149497  0.66474237  0.17516621  1
  In  In61  1  0.46923888  0.35958123  0.79340222  1
  In  In62  1  0.48739942  0.34363444  0.52280292  1
  In  In63  1  0.83671619  0.29593605  0.46098172  1
  In  In64  1  0.00068318  0.64267872  -0.00190416  1
  In  In65  1  0.16384470  -0.00485662  0.81905957  1
  In  In66  1  0.16767605  0.35498368  0.50816266  1
  In  In67  1  0.51740441  0.01605814  0.19288630  1
  In  In68  1  -0.04961736  -0.00522113  0.66900135  1
  In  In69  1  0.83334273  0.47277746  0.31939317  1
  In  In70  1  0.65274185  0.82770029  0.52291838  1
  In  In71  1  0.78483144  0.06508695  0.50673357  1
  Te  Te72  1  0.10773232  0.12877734  0.11141745  1
  Te  Te73  1  0.07624853  0.10409603  0.42473782  1
  Te  Te74  1  0.07538481  0.08220386  0.73116387  1
  Te  Te75  1  0.12709867  0.40505822  0.02971756  1
  Te  Te76  1  0.07888845  0.39891480  0.39210529  1
  Te  Te77  1  0.09965484  0.39315135  0.77065689  1
  Te  Te78  1  0.09075800  0.75082348  0.06937113  1
  Te  Te79  1  0.08422710  0.72538691  0.40648658  1
  Te  Te80  1  0.08845826  0.75324805  0.77257986  1
  Te  Te81  1  0.42616975  0.09427168  0.08667495  1
  Te  Te82  1  0.44915221  0.05900461  0.47264224  1
  Te  Te83  1  0.42652887  0.08267477  0.71807044  1
  Te  Te84  1  0.40941430  0.39085398  0.08771240  1
  Te  Te85  1  0.40457166  0.43184254  0.43515714  1
  Te  Te86  1  0.38127070  0.45243280  0.71918606  1
  Te  Te87  1  0.39406465  0.75520577  0.09157839  1
  Te  Te88  1  0.41747646  0.74369354  0.42798530  1
  Te  Te89  1  0.43597911  0.74899074  0.75777135  1
  Te  Te90  1  0.75234580  0.08207165  0.09104588  1
  Te  Te91  1  0.73848450  0.10596895  0.37196498  1
  Te  Te92  1  0.75279160  0.08609979  0.74004727  1
  Te  Te93  1  0.74333645  0.42276286  0.06574424  1
  Te  Te94  1  0.74744051  0.41619848  0.43202788  1
  Te  Te95  1  0.74419574  0.39020739  0.75714529  1
  Te  Te96  1  0.78713103  0.73605735  0.09341192  1
  Te  Te97  1  0.75310676  0.75189969  0.42445795  1
  Te  Te98  1  0.72241806  0.74610567  0.73153530  1
  Te  Te99  1  0.04237186  0.25405840  0.25944157  1
  Te  Te100  1  0.06698845  0.26106416  0.57470444  1
  Te  Te101  1  0.05829212  0.27125918  0.95428515  1
  Te  Te102  1  0.08576863  0.56694300  0.23829593  1
  Te  Te103  1  0.06690239  0.56757124  0.58072645  1
  Te  Te104  1  0.11083753  0.58427007  0.91624265  1
  Te  Te105  1  0.08852170  0.93190080  0.24482384  1
  Te  Te106  1  0.07914421  0.91961811  0.58759091  1
  Te  Te107  1  0.07299316  0.93101541  0.92151901  1
  Te  Te108  1  0.43090839  0.22922192  0.29924224  1
  Te  Te109  1  0.39463789  0.26795394  0.61131758  1
  Te  Te110  1  0.40116066  0.26877527  0.90534080  1
  Te  Te111  1  0.42458833  0.57415952  0.27440563  1
  Te  Te112  1  0.41166078  0.56116017  0.60953753  1
  Te  Te113  1  0.41015899  0.57528584  0.89752860  1
  Te  Te114  1  0.42568877  0.91370702  0.25257987  1
  Te  Te115  1  0.43528550  0.86198325  0.55142429  1
  Te  Te116  1  0.40686044  0.93124713  0.91876220  1
  Te  Te117  1  0.75035477  0.28769193  0.23325078  1
  Te  Te118  1  0.76965232  0.21760075  0.56929499  1
  Te  Te119  1  0.76632794  0.23633399  0.93023447  1
  Te  Te120  1  0.74687415  0.58719401  0.25608390  1
  Te  Te121  1  0.71879243  0.60202061  0.59610547  1
  Te  Te122  1  0.72952261  0.57186225  0.89197406  1
  Te  Te123  1  0.73444459  0.92424224  0.26273280  1
  Te  Te124  1  0.74745318  0.93379927  0.58046400  1
  Te  Te125  1  0.78661945  0.92431092  0.85085586  1
  Te  Te126  1  0.23425960  0.21909472  0.08274336  1
  Te  Te127  1  0.23990663  0.23883237  0.42534788  1
  Te  Te128  1  0.24313100  0.25400032  0.76669150  1
  Te  Te129  1  0.25393440  0.57917479  0.08372746  1
  Te  Te130  1  0.26742327  0.55613486  0.43760789  1
  Te  Te131  1  0.22051004  0.62218764  0.75120201  1
  Te  Te132  1  0.24903529  0.92145702  0.09822540  1
  Te  Te133  1  0.26327184  0.90704902  0.41812654  1
  Te  Te134  1  0.27593988  0.92116275  0.74614048  1
  Te  Te135  1  0.58381577  0.24987776  0.08641470  1
  Te  Te136  1  0.58580141  0.24453563  0.46055780  1
  Te  Te137  1  0.56635715  0.24972071  0.74237535  1
  Te  Te138  1  0.58084199  0.57852322  0.08393521  1
  Te  Te139  1  0.59098183  0.56830534  0.43997627  1
  Te  Te140  1  0.59257093  0.54954577  0.69925745  1
  Te  Te141  1  0.59176481  0.93220213  0.07773210  1
  Te  Te142  1  0.59311561  0.92847993  0.43369843  1
  Te  Te143  1  0.57593698  0.92446452  0.73662145  1
  Te  Te144  1  0.95859031  0.22465023  0.05827041  1
  Te  Te145  1  0.91788735  0.23778070  0.35405182  1
  Te  Te146  1  0.91546392  0.23445364  0.74442706  1
  Te  Te147  1  0.92852400  0.56766364  0.10388778  1
  Te  Te148  1  0.91251367  0.58220596  0.39959595  1
  Te  Te149  1  0.91314585  0.57146189  0.74497875  1
  Te  Te150  1  0.91543360  0.91399756  0.07000975  1
  Te  Te151  1  0.92156662  0.91402054  0.42426552  1
  Te  Te152  1  0.91287041  0.89360806  0.76416007  1
  Te  Te153  1  0.26451762  0.07095130  0.26366667  1
  Te  Te154  1  0.25257292  0.07311092  0.58669188  1
  Te  Te155  1  0.22696245  0.09844289  0.91070918  1
  Te  Te156  1  0.24674331  0.38957645  0.23697327  1
  Te  Te157  1  0.26275860  0.41060283  0.60845802  1
  Te  Te158  1  0.22655356  0.45453153  0.91422371  1
  Te  Te159  1  0.26511767  0.73486845  0.27110465  1
  Te  Te160  1  0.25277564  0.76283201  0.57387590  1
  Te  Te161  1  0.26438824  0.76904990  0.89387290  1
  Te  Te162  1  0.58497399  0.10004273  0.29397028  1
  Te  Te163  1  0.57670270  0.11569375  0.55171615  1
  Te  Te164  1  0.60081791  0.08205039  0.92118069  1
  Te  Te165  1  0.56565149  0.42215194  0.27675825  1
  Te  Te166  1  0.58749598  0.42442577  0.60466702  1
  Te  Te167  1  0.56647744  0.42089460  0.89851485  1
  Te  Te168  1  0.58985381  0.75790943  0.23296180  1
  Te  Te169  1  0.54408892  0.76439680  0.60839631  1
  Te  Te170  1  0.58209232  0.75018909  0.93353880  1
  Te  Te171  1  0.91450907  0.10361772  0.24640957  1
  Te  Te172  1  0.92062582  0.08838089  0.56024102  1
  Te  Te173  1  0.92506849  0.08488308  0.92181138  1
  Te  Te174  1  0.92479247  0.42639193  0.21049110  1
  Te  Te175  1  0.89548850  0.41352401  0.57901376  1
  Te  Te176  1  0.92657811  0.42239822  0.93745604  1
  Te  Te177  1  0.93074271  0.74331636  0.25393820  1
  Te  Te178  1  0.90306647  0.75541897  0.59577085  1
  Te  Te179  1  0.91969494  0.74016639  0.91051549  1
