# generated using pymatgen
data_In2Te3
_symmetry_space_group_name_H-M   'P 1'
_cell_length_a   18.76824259
_cell_length_b   18.77139603
_cell_length_c   18.77980157
_cell_angle_alpha   90.03492553
_cell_angle_beta   90.01037268
_cell_angle_gamma   90.00752363
_symmetry_Int_Tables_number   1
_chemical_formula_structural   In2Te3
_chemical_formula_sum   'In72 Te108'
_cell_volume   6616.23752514
_cell_formula_units_Z   36
loop_
 _symmetry_equiv_pos_site_id
 _symmetry_equiv_pos_as_xyz
  1  'x, y, z'
loop_
 _atom_site_type_symbol
 _atom_site_label
 _atom_site_symmetry_multiplicity
 _atom_site_fract_x
 _atom_site_fract_y
 _atom_site_fract_z
 _atom_site_occupancy
  In  In0  1  0.68162928  0.01689642  0.34316921  1
  In  In1  1  0.13377223  0.19617170  0.33559722  1
  In  In2  1  -0.00802798  0.83845747  0.15816026  1
  In  In3  1  0.15549869  -0.00966877  0.81948462  1
  In  In4  1  0.15385743  0.82363483  -0.01107201  1
  In  In5  1  0.00750996  -0.00380011  0.66979328  1
  In  In6  1  0.31146847  0.00270197  0.32685688  1
  In  In7  1  -0.00245946  0.83123196  0.83986376  1
  In  In8  1  0.34336728  0.15198941  0.83483782  1
  In  In9  1  0.33223456  0.33591571  0.67093800  1
  In  In10  1  0.68411616  -0.02048119  -0.01416792  1
  In  In11  1  0.50666191  0.48656815  0.33842965  1
  In  In12  1  0.71024901  0.62989825  0.30710644  1
  In  In13  1  0.51068551  0.66803132  0.82965898  1
  In  In14  1  0.49320547  0.34940640  0.16743038  1
  In  In15  1  0.14521660  0.47395684  0.02243997  1
  In  In16  1  -0.02340775  0.61529676  0.32161397  1
  In  In17  1  0.16424608  0.66302363  0.81861891  1
  In  In18  1  -0.02813289  0.66173234  -0.00445654  1
  In  In19  1  0.65674548  0.00082534  0.66618947  1
  In  In20  1  0.16337388  0.19957287  0.02818595  1
  In  In21  1  0.32874634  0.80728046  0.16931807  1
  In  In22  1  0.84384441  0.34727565  0.51615472  1
  In  In23  1  -0.01268250  0.49885271  0.82138702  1
  In  In24  1  0.83970938  0.32929011  0.83507877  1
  In  In25  1  0.51233257  0.64614612  0.15149837  1
  In  In26  1  0.14513863  0.34620645  0.48012351  1
  In  In27  1  0.31401055  0.47376783  0.16132466  1
  In  In28  1  0.50760255  0.02824526  0.51274448  1
  In  In29  1  0.50593582  0.66811740  0.52243244  1
  In  In30  1  0.68656804  0.17631133  0.84053778  1
  In  In31  1  0.16156695  0.32921089  0.84026968  1
  In  In32  1  0.67458366  0.82524903  0.13792418  1
  In  In33  1  0.51644616  0.02126762  0.13485721  1
  In  In34  1  0.49276021  0.22316470  0.33348170  1
  In  In35  1  0.67281709  0.66496905  0.00443801  1
  In  In36  1  0.83183307  0.49227016  0.00945009  1
  In  In37  1  0.33446066  0.65389353  -0.00417972  1
  In  In38  1  0.51105828  0.34519417  0.85284447  1
  In  In39  1  0.84983825  0.18583327  0.01652877  1
  In  In40  1  0.68861033  0.51189625  0.52193525  1
  In  In41  1  0.66800719  0.33865839  0.66581743  1
  In  In42  1  -0.00388828  0.66583016  0.66954246  1
  In  In43  1  0.15047398  0.01784625  0.15100043  1
  In  In44  1  0.85566310  0.00690173  0.15629575  1
  In  In45  1  0.31853877  0.81403091  0.51075426  1
  In  In46  1  0.30831582  0.35074408  0.30319023  1
  In  In47  1  0.49054938  0.16916084  -0.00184534  1
  In  In48  1  0.17627621  0.82411847  0.35172336  1
  In  In49  1  0.32216754  0.50987195  0.83631051  1
  In  In50  1  0.33591055  0.52519648  0.50898538  1
  In  In51  1  -0.00507666  0.02709039  0.32017343  1
  In  In52  1  0.51785582  0.33560993  0.50257184  1
  In  In53  1  0.68054933  0.80644338  0.50138693  1
  In  In54  1  0.50286483  0.83116914  0.67813899  1
  In  In55  1  0.83049895  0.81943770  0.33636312  1
  In  In56  1  0.51387486  0.84425833  0.31350863  1
  In  In57  1  0.49339011  -0.01686211  0.82237465  1
  In  In58  1  -0.01357477  0.36658215  0.30364834  1
  In  In59  1  0.66759429  0.18642128  0.18422891  1
  In  In60  1  0.31651558  0.66436293  0.34111450  1
  In  In61  1  -0.01023675  0.34008274  0.67461448  1
  In  In62  1  0.82495396  0.00750869  0.50065729  1
  In  In63  1  0.83648493  -0.00457578  0.84798476  1
  In  In64  1  0.32531570  0.15202614  0.51700912  1
  In  In65  1  -0.00053633  0.17991054  0.50175347  1
  In  In66  1  0.66774822  0.49339880  0.82896568  1
  In  In67  1  0.14614989  0.66225349  0.50861580  1
  In  In68  1  0.34226042  -0.00972091  -0.02135244  1
  In  In69  1  0.32120626  0.00486564  0.67534052  1
  In  In70  1  0.69245821  0.34921391  0.32724973  1
  In  In71  1  0.00174547  0.83034376  0.52239695  1
  Te  Te72  1  0.05824188  0.10205902  0.07558197  1
  Te  Te73  1  0.08948920  0.08035492  0.42689252  1
  Te  Te74  1  0.07201203  0.09567382  0.75964018  1
  Te  Te75  1  0.06619495  0.36645851  0.09001039  1
  Te  Te76  1  0.05309573  0.44218672  0.41388081  1
  Te  Te77  1  0.09756386  0.42867399  0.74359324  1
  Te  Te78  1  0.07723120  0.73421935  0.08425269  1
  Te  Te79  1  0.05931243  0.74017001  0.40577155  1
  Te  Te80  1  0.08965865  0.76753030  0.73645866  1
  Te  Te81  1  0.39063163  0.08997559  0.08439707  1
  Te  Te82  1  0.41873288  0.08847473  0.40321901  1
  Te  Te83  1  0.43653999  0.08999818  0.72995709  1
  Te  Te84  1  0.42190902  0.43400206  0.06944152  1
  Te  Te85  1  0.40537213  0.40830142  0.42205103  1
  Te  Te86  1  0.42282901  0.42451558  0.75495615  1
  Te  Te87  1  0.43003268  0.74807846  0.07219474  1
  Te  Te88  1  0.42316005  0.75099640  0.41016080  1
  Te  Te89  1  0.40936134  0.73939036  0.74529795  1
  Te  Te90  1  0.73544031  0.08369450  0.08504722  1
  Te  Te91  1  0.77345814  0.11071361  0.40831589  1
  Te  Te92  1  0.75934489  0.08358900  0.74666887  1
  Te  Te93  1  0.77561029  0.40703619  0.12151108  1
  Te  Te94  1  0.77678900  0.45068467  0.40849941  1
  Te  Te95  1  0.77157570  0.42456493  0.73782821  1
  Te  Te96  1  0.77652377  0.73205421  0.08991794  1
  Te  Te97  1  0.77509780  0.70922955  0.42763572  1
  Te  Te98  1  0.78362101  0.71487186  0.69793260  1
  Te  Te99  1  0.05928003  0.26009347  0.22017928  1
  Te  Te100  1  0.09306879  0.25755187  0.59263812  1
  Te  Te101  1  0.07049697  0.24751057  0.92217345  1
  Te  Te102  1  0.08820748  0.54709369  0.25475106  1
  Te  Te103  1  0.05605132  0.56361525  0.57742829  1
  Te  Te104  1  0.08627211  0.57855822  0.91868718  1
  Te  Te105  1  0.08825463  0.91518832  0.25662433  1
  Te  Te106  1  0.10210785  0.91181701  0.59069682  1
  Te  Te107  1  0.06622876  0.93264010  0.93247792  1
  Te  Te108  1  0.38612846  0.24599048  0.21711805  1
  Te  Te109  1  0.42496340  0.24693883  0.58603648  1
  Te  Te110  1  0.39886403  0.26416489  0.92310173  1
  Te  Te111  1  0.41071765  0.58026399  0.25454748  1
  Te  Te112  1  0.41375789  0.59595164  0.61249649  1
  Te  Te113  1  0.43517047  0.56807053  0.92241938  1
  Te  Te114  1  0.40732199  0.92551502  0.23386943  1
  Te  Te115  1  0.42385140  0.91543839  0.57322755  1
  Te  Te116  1  0.41573840  0.88793705  0.90401145  1
  Te  Te117  1  0.78029404  0.25574227  0.24958542  1
  Te  Te118  1  0.75964348  0.25102208  0.58983552  1
  Te  Te119  1  0.74545515  0.27192677  0.94239027  1
  Te  Te120  1  0.77592596  0.55795624  0.19394897  1
  Te  Te121  1  0.76948575  0.58721202  0.62228872  1
  Te  Te122  1  0.76318202  0.58376378  0.90824022  1
  Te  Te123  1  0.74599563  0.91505718  0.24751956  1
  Te  Te124  1  0.75372943  0.90788168  0.59039776  1
  Te  Te125  1  0.76087518  0.87974209  0.90813896  1
  Te  Te126  1  0.26326561  0.25855204  0.11787184  1
  Te  Te127  1  0.25820628  0.24956429  0.41729082  1
  Te  Te128  1  0.24772478  0.23730055  0.75050762  1
  Te  Te129  1  0.23572886  0.58380455  0.08616544  1
  Te  Te130  1  0.22532185  0.56851563  0.41342824  1
  Te  Te131  1  0.23938931  0.57122959  0.72974309  1
  Te  Te132  1  0.24545225  0.90782782  0.08603429  1
  Te  Te133  1  0.24201610  0.92968807  0.44101197  1
  Te  Te134  1  0.26271088  0.90448506  0.76490571  1
  Te  Te135  1  0.58326487  0.25911348  0.08034585  1
  Te  Te136  1  0.61457074  0.25239166  0.42060425  1
  Te  Te137  1  0.58170408  0.24939100  0.75648755  1
  Te  Te138  1  0.59467852  0.55511738  0.07060192  1
  Te  Te139  1  0.58940801  0.58648860  0.41933244  1
  Te  Te140  1  0.58407273  0.57522060  0.73842996  1
  Te  Te141  1  0.56933889  0.90325897  0.05735117  1
  Te  Te142  1  0.59590790  0.91422900  0.43013560  1
  Te  Te143  1  0.60876816  0.89785322  0.76811295  1
  Te  Te144  1  0.93822015  0.27561790  0.09644896  1
  Te  Te145  1  0.92122772  0.27008536  0.40900230  1
  Te  Te146  1  0.92347627  0.23622621  0.75644333  1
  Te  Te147  1  0.94278157  0.55359011  0.09481070  1
  Te  Te148  1  0.88040975  0.57022103  0.42271209  1
  Te  Te149  1  0.89497124  0.60221099  0.76319550  1
  Te  Te150  1  0.90508344  0.90765716  0.06100909  1
  Te  Te151  1  0.92121894  0.91798065  0.41201214  1
  Te  Te152  1  0.90725200  0.90725971  0.74246867  1
  Te  Te153  1  0.22836324  0.10340776  0.25057386  1
  Te  Te154  1  0.22381570  0.08665218  0.60039198  1
  Te  Te155  1  0.23695895  0.08611529  0.92410881  1
  Te  Te156  1  0.19497493  0.43128876  0.24591204  1
  Te  Te157  1  0.24682725  0.41767722  0.57461212  1
  Te  Te158  1  0.25209044  0.41203753  0.93181186  1
  Te  Te159  1  0.22023210  0.72758207  0.24053844  1
  Te  Te160  1  0.24699522  0.72287187  0.60012712  1
  Te  Te161  1  0.25724896  0.74964440  0.90513439  1
  Te  Te162  1  0.56915288  0.09024540  0.26063640  1
  Te  Te163  1  0.61122369  0.10982712  0.57661196  1
  Te  Te164  1  0.58172445  0.08025478  0.91229982  1
  Te  Te165  1  0.60313000  0.43371407  0.23503193  1
  Te  Te166  1  0.57422816  0.44086739  0.59589353  1
  Te  Te167  1  0.60553583  0.41713810  0.94162560  1
  Te  Te168  1  0.60283869  0.73383716  0.25008653  1
  Te  Te169  1  0.60699553  0.73529504  0.61574575  1
  Te  Te170  1  0.60428349  0.75433720  0.90681502  1
  Te  Te171  1  0.90210475  0.11384087  0.24631541  1
  Te  Te172  1  0.91406485  0.09161940  0.59101355  1
  Te  Te173  1  0.91752109  0.09789807  0.91900988  1
  Te  Te174  1  0.88801583  0.45058825  0.22323228  1
  Te  Te175  1  0.93276746  0.44641279  0.58526699  1
  Te  Te176  1  0.93266885  0.40710103  0.92843213  1
  Te  Te177  1  0.91433858  0.73573058  0.24131573  1
  Te  Te178  1  0.89529048  0.74878430  0.58850202  1
  Te  Te179  1  0.89282622  0.75022668  0.90786685  1
