# generated using pymatgen
data_In2Te3
_symmetry_space_group_name_H-M   'P 1'
_cell_length_a   18.79200567
_cell_length_b   18.79123846
_cell_length_c   18.79948136
_cell_angle_alpha   89.98115466
_cell_angle_beta   90.10170634
_cell_angle_gamma   90.08952552
_symmetry_Int_Tables_number   1
_chemical_formula_structural   In2Te3
_chemical_formula_sum   'In72 Te108'
_cell_volume   6638.54906144
_cell_formula_units_Z   36
loop_
 _symmetry_equiv_pos_site_id
 _symmetry_equiv_pos_as_xyz
  1  'x, y, z'
loop_
 _atom_site_type_symbol
 _atom_site_label
 _atom_site_symmetry_multiplicity
 _atom_site_fract_x
 _atom_site_fract_y
 _atom_site_fract_z
 _atom_site_occupancy
  In  In0  1  0.82789307  0.65907681  0.49361780  1
  In  In1  1  0.16440822  0.48360398  0.34043251  1
  In  In2  1  0.17090330  0.32690367  0.48540098  1
  In  In3  1  0.84952693  0.65181488  0.82355767  1
  In  In4  1  0.35497945  0.47796260  0.48659921  1
  In  In5  1  0.17353592  0.84209516  -0.00920124  1
  In  In6  1  0.81866396  0.32681880  0.82157267  1
  In  In7  1  -0.01229548  0.49472515  0.80598157  1
  In  In8  1  -0.00603369  0.17763855  0.17138436  1
  In  In9  1  0.00824447  0.84368850  0.49811746  1
  In  In10  1  0.17288593  0.46344580  -0.00051992  1
  In  In11  1  0.51286433  0.47946275  0.63428518  1
  In  In12  1  0.15193285  0.50951388  0.66878936  1
  In  In13  1  0.15897595  0.66384866  0.16769035  1
  In  In14  1  0.84995774  0.00162345  0.15574928  1
  In  In15  1  0.80958223  0.48650008  0.35494708  1
  In  In16  1  0.32591981  0.49968848  0.85148934  1
  In  In17  1  0.67418891  0.66505547  0.64557441  1
  In  In18  1  0.32572627  0.02444813  0.33910147  1
  In  In19  1  0.84317096  0.02862938  0.50212954  1
  In  In20  1  0.81453312  0.19610330  0.36249629  1
  In  In21  1  0.66773571  0.16446949  0.16142750  1
  In  In22  1  0.34621606  0.20183562  0.49810393  1
  In  In23  1  0.17152491  0.16246208  -0.00068207  1
  In  In24  1  0.50498565  0.01692421  0.81576297  1
  In  In25  1  0.47696866  0.49811954  0.01675138  1
  In  In26  1  0.82925334  0.18905835  0.65158315  1
  In  In27  1  0.32239703  0.65927805  -0.01347561  1
  In  In28  1  0.02132504  0.32365682  -0.00162267  1
  In  In29  1  0.47996047  0.01456852  0.19675012  1
  In  In30  1  0.32103998  0.00475455  -0.02241755  1
  In  In31  1  0.34765002  0.47402425  0.19262304  1
  In  In32  1  0.50504874  0.17952712  -0.00547717  1
  In  In33  1  -0.00602488  0.35052134  0.65749183  1
  In  In34  1  0.51764367  0.65180163  0.50231056  1
  In  In35  1  0.02351186  0.84312173  0.82683445  1
  In  In36  1  -0.00500443  0.32851750  0.34451765  1
  In  In37  1  0.31334898  0.81800243  0.15131492  1
  In  In38  1  0.64837855  0.47591013  0.21591501  1
  In  In39  1  0.64413878  0.02585597  0.65562206  1
  In  In40  1  0.35175400  0.84276328  0.51355586  1
  In  In41  1  0.51251777  0.83901355  0.35562531  1
  In  In42  1  0.67109457  0.32970000  -0.00383384  1
  In  In43  1  0.15934413  0.02496505  0.48312650  1
  In  In44  1  0.33380688  0.00435374  0.67838939  1
  In  In45  1  0.16870124  0.67228953  0.51160246  1
  In  In46  1  0.66180966  -0.00839117  -0.01587244  1
  In  In47  1  0.68691138  -0.00570520  0.36175136  1
  In  In48  1  0.83649183  0.51492694  0.00878989  1
  In  In49  1  0.32099977  0.17453101  0.18559902  1
  In  In50  1  -0.01293792  0.00106082  -0.00779182  1
  In  In51  1  0.16202883  0.83966356  0.66345074  1
  In  In52  1  0.66372944  0.47048747  0.80407652  1
  In  In53  1  0.16192259  0.82970263  0.31246487  1
  In  In54  1  0.66419477  0.81791202  0.15406802  1
  In  In55  1  0.84384065  0.31728461  0.17357476  1
  In  In56  1  0.51230398  0.83724250  -0.02354724  1
  In  In57  1  0.85558023  0.80404523  0.29984025  1
  In  In58  1  0.64775598  0.68623255  -0.01314209  1
  In  In59  1  0.84301088  0.84205268  0.68130780  1
  In  In60  1  0.49104766  0.63393571  0.16772542  1
  In  In61  1  0.16504207  0.67458101  0.82920383  1
  In  In62  1  0.65605854  0.82371436  0.51810602  1
  In  In63  1  0.65313854  0.63679134  0.35721938  1
  In  In64  1  0.01591510  0.50108698  0.14066592  1
  In  In65  1  0.00025940  0.66777984  -0.00793942  1
  In  In66  1  0.01407145  0.00368215  0.33778696  1
  In  In67  1  0.82787012  0.00566870  0.85136279  1
  In  In68  1  0.33730320  0.31211754  0.67095617  1
  In  In69  1  0.50573824  0.19339970  0.37096533  1
  In  In70  1  0.51578011  0.30635047  0.80555828  1
  In  In71  1  0.15288698  0.15859270  0.68450542  1
  Te  Te72  1  0.07639374  0.08047715  0.09014496  1
  Te  Te73  1  0.07288676  0.11882240  0.40823712  1
  Te  Te74  1  0.06369903  0.05086085  0.72766945  1
  Te  Te75  1  0.10680556  0.38297756  0.11238379  1
  Te  Te76  1  0.06525356  0.42739918  0.44189572  1
  Te  Te77  1  0.09976127  0.40226883  0.76283175  1
  Te  Te78  1  0.08092743  0.76275183  0.08178009  1
  Te  Te79  1  0.07761797  0.74398494  0.40802886  1
  Te  Te80  1  0.06806753  0.73435380  0.72943679  1
  Te  Te81  1  0.41484759  0.08177317  0.07579457  1
  Te  Te82  1  0.42485613  0.07886922  0.43691631  1
  Te  Te83  1  0.40924474  0.11083737  0.75131435  1
  Te  Te84  1  0.39431581  0.39301640  0.07782022  1
  Te  Te85  1  0.46422320  0.40514832  0.41306356  1
  Te  Te86  1  0.41979087  0.42181552  0.75106375  1
  Te  Te87  1  0.42679600  0.74676660  0.07648853  1
  Te  Te88  1  0.41900332  0.73890816  0.42212567  1
  Te  Te89  1  0.43883896  0.72531915  0.81297887  1
  Te  Te90  1  0.75434690  0.08408588  0.06801612  1
  Te  Te91  1  0.72366028  0.11098266  0.45367946  1
  Te  Te92  1  0.75612100  0.08512307  0.73847555  1
  Te  Te93  1  0.75305542  0.41887240  0.09364330  1
  Te  Te94  1  0.73521032  0.37758406  0.42162373  1
  Te  Te95  1  0.77452969  0.42417739  0.71331186  1
  Te  Te96  1  0.75740219  0.75018873  0.06355630  1
  Te  Te97  1  0.73900920  0.76130463  0.40594096  1
  Te  Te98  1  0.75003086  0.74535440  0.75171273  1
  Te  Te99  1  0.08745481  0.24648853  0.26340913  1
  Te  Te100  1  0.08341307  0.25012102  0.58255363  1
  Te  Te101  1  0.07798408  0.22867451  0.90258822  1
  Te  Te102  1  0.07413531  0.57869696  0.26098479  1
  Te  Te103  1  0.06747463  0.58513219  0.57563389  1
  Te  Te104  1  0.08909334  0.56829218  0.91663108  1
  Te  Te105  1  0.07057985  0.91579112  0.23560074  1
  Te  Te106  1  0.07764371  0.94644186  0.58776022  1
  Te  Te107  1  0.10301459  0.94584443  0.90607555  1
  Te  Te108  1  0.43542984  0.24361837  0.25077018  1
  Te  Te109  1  0.45198046  0.26272467  0.58640409  1
  Te  Te110  1  0.41846799  0.25930178  0.90537553  1
  Te  Te111  1  0.41748250  0.57212791  0.27903956  1
  Te  Te112  1  0.40885432  0.58137472  0.58691585  1
  Te  Te113  1  0.44251908  0.60353832  0.90210403  1
  Te  Te114  1  0.40077264  0.90073560  0.26132109  1
  Te  Te115  1  0.43384910  0.91677157  0.61073745  1
  Te  Te116  1  0.41411994  0.91825966  0.89375681  1
  Te  Te117  1  0.72714403  0.26792361  0.25785885  1
  Te  Te118  1  0.73914833  0.28580857  0.58174272  1
  Te  Te119  1  0.73799801  0.23572382  0.90537358  1
  Te  Te120  1  0.74639596  0.58807836  0.24957383  1
  Te  Te121  1  0.72983484  0.56534681  0.55274386  1
  Te  Te122  1  0.74213958  0.57396203  0.90329677  1
  Te  Te123  1  0.74545665  0.91706867  0.24291476  1
  Te  Te124  1  0.75722687  0.92149298  0.58193593  1
  Te  Te125  1  0.74834076  0.89743939  0.91229196  1
  Te  Te126  1  0.25939631  0.25496162  0.07806957  1
  Te  Te127  1  0.26681909  0.26329695  0.38911957  1
  Te  Te128  1  0.25493512  0.23219632  0.76556445  1
  Te  Te129  1  0.25071109  0.56894924  0.08864347  1
  Te  Te130  1  0.25285276  0.57505161  0.42550468  1
  Te  Te131  1  0.25935448  0.58876297  0.74641163  1
  Te  Te132  1  0.24167350  0.93630435  0.09164178  1
  Te  Te133  1  0.24138809  0.90734788  0.42475943  1
  Te  Te134  1  0.24724448  0.91359497  0.75861260  1
  Te  Te135  1  0.57483164  0.26838339  0.09830626  1
  Te  Te136  1  0.60313339  0.29224797  0.42709775  1
  Te  Te137  1  0.61235177  0.24281885  0.71100223  1
  Te  Te138  1  0.60126862  0.57058108  0.08333714  1
  Te  Te139  1  0.56906128  0.53267477  0.42398932  1
  Te  Te140  1  0.58224423  0.57620529  0.73274855  1
  Te  Te141  1  0.56833017  0.93091351  0.09725326  1
  Te  Te142  1  0.57587919  0.93824509  0.45145027  1
  Te  Te143  1  0.59541125  0.92097832  0.74707379  1
  Te  Te144  1  0.90668742  0.23976102  0.06050213  1
  Te  Te145  1  0.90698309  0.27157796  0.44894944  1
  Te  Te146  1  0.93105943  0.25036811  0.75473016  1
  Te  Te147  1  0.90979308  0.61106471  0.10381784  1
  Te  Te148  1  0.91345073  0.57746517  0.40616654  1
  Te  Te149  1  0.90761505  0.57530965  0.70824659  1
  Te  Te150  1  0.91225535  0.89967287  0.07113223  1
  Te  Te151  1  0.90230262  0.91674866  0.41230435  1
  Te  Te152  1  0.93589702  0.94322779  0.74740185  1
  Te  Te153  1  0.22654767  0.07734583  0.24657399  1
  Te  Te154  1  0.25653558  0.10128701  0.57341964  1
  Te  Te155  1  0.25319948  0.10042933  0.88819619  1
  Te  Te156  1  0.26135111  0.38812896  0.27917242  1
  Te  Te157  1  0.25166623  0.41294308  0.58796629  1
  Te  Te158  1  0.26149918  0.38246758  0.91471174  1
  Te  Te159  1  0.26400496  0.72499980  0.26086857  1
  Te  Te160  1  0.26759705  0.74816375  0.60121544  1
  Te  Te161  1  0.26637046  0.76887111  0.89479974  1
  Te  Te162  1  0.59269229  0.08453968  0.27206502  1
  Te  Te163  1  0.54906714  0.13462054  0.61633863  1
  Te  Te164  1  0.59938900  0.10399028  0.90171760  1
  Te  Te165  1  0.52267864  0.41732890  0.26621595  1
  Te  Te166  1  0.60734596  0.36918671  0.59870412  1
  Te  Te167  1  0.57198360  0.41797327  0.91635111  1
  Te  Te168  1  0.57609489  0.74133711  0.25309478  1
  Te  Te169  1  0.55520875  0.75733028  0.60956147  1
  Te  Te170  1  0.58280517  0.75801673  0.86873887  1
  Te  Te171  1  0.89342629  0.09859035  0.26693629  1
  Te  Te172  1  0.93475991  0.10254105  0.58956383  1
  Te  Te173  1  0.91892065  0.10531239  0.91161528  1
  Te  Te174  1  0.92082573  0.42783134  0.24423057  1
  Te  Te175  1  0.88982247  0.44177768  0.60612824  1
  Te  Te176  1  0.91476758  0.41815146  0.92047572  1
  Te  Te177  1  0.95047431  0.72375756  0.22872036  1
  Te  Te178  1  0.91521185  0.75459248  0.57983556  1
  Te  Te179  1  0.91853970  0.76208415  0.90527023  1
