# generated using pymatgen
data_In2Te3
_symmetry_space_group_name_H-M   'P 1'
_cell_length_a   18.94838757
_cell_length_b   18.93918229
_cell_length_c   18.95637231
_cell_angle_alpha   89.75386321
_cell_angle_beta   90.00117150
_cell_angle_gamma   89.85181027
_symmetry_Int_Tables_number   1
_chemical_formula_structural   In2Te3
_chemical_formula_sum   'In72 Te108'
_cell_volume   6802.73028956
_cell_formula_units_Z   36
loop_
 _symmetry_equiv_pos_site_id
 _symmetry_equiv_pos_as_xyz
  1  'x, y, z'
loop_
 _atom_site_type_symbol
 _atom_site_label
 _atom_site_symmetry_multiplicity
 _atom_site_fract_x
 _atom_site_fract_y
 _atom_site_fract_z
 _atom_site_occupancy
  In  In0  1  0.82704049  0.15945455  0.32266309  1
  In  In1  1  -0.01912335  0.65452462  -0.01177812  1
  In  In2  1  0.18958613  -0.01849808  0.52045022  1
  In  In3  1  0.50799532  0.48045474  0.65239912  1
  In  In4  1  0.66842563  0.81692989  0.15839635  1
  In  In5  1  0.47843837  -0.03471814  0.19097332  1
  In  In6  1  0.00950993  0.17699193  0.50859571  1
  In  In7  1  0.01138320  0.82713398  0.46448999  1
  In  In8  1  0.30906587  0.33282775  0.66883479  1
  In  In9  1  0.17097526  0.17072526  0.33094614  1
  In  In10  1  0.31137321  0.50636268  0.15841169  1
  In  In11  1  0.14491914  0.67286880  0.84508447  1
  In  In12  1  0.15572565  0.32442470  0.17101990  1
  In  In13  1  0.68015898  0.83434343  0.48325739  1
  In  In14  1  0.49449223  0.68780869  0.83505754  1
  In  In15  1  0.35416399  0.14874511  0.83620777  1
  In  In16  1  0.51366726  0.66057527  0.17289262  1
  In  In17  1  -0.01892817  0.84795635  0.89719173  1
  In  In18  1  0.80298008  0.02013023  0.50661559  1
  In  In19  1  0.82250773  0.35132913  0.17185635  1
  In  In20  1  0.15911376  0.66347315  0.16422138  1
  In  In21  1  0.64179477  0.84419292  0.81555084  1
  In  In22  1  0.67423416  0.48839995  0.49225146  1
  In  In23  1  0.81748689  0.48901521  -0.01494558  1
  In  In24  1  0.49862069  0.50873324  0.02523421  1
  In  In25  1  0.14805633  0.34239091  0.53899920  1
  In  In26  1  -0.00758232  0.65821875  0.31301547  1
  In  In27  1  0.13541503  0.33942579  0.82465106  1
  In  In28  1  0.80800739  0.65934217  0.50719850  1
  In  In29  1  0.51653334  0.16902986  0.02029011  1
  In  In30  1  0.18356784  0.82610272  0.68254659  1
  In  In31  1  0.36248924  0.33596988  0.34266849  1
  In  In32  1  0.85297464  0.00686058  0.85426602  1
  In  In33  1  0.52156346  0.29710286  0.48869386  1
  In  In34  1  0.52133948  0.37539728  0.19550749  1
  In  In35  1  0.34094545  0.82798142  0.49455666  1
  In  In36  1  0.13089603  0.64085422  0.51495271  1
  In  In37  1  0.81057760  0.85098347  0.67414551  1
  In  In38  1  0.14409232  0.49737045  0.35357235  1
  In  In39  1  0.66300651  0.17703811  0.17929751  1
  In  In40  1  0.67790120  0.01595043  0.33878927  1
  In  In41  1  0.81909204  0.65740890  0.16936934  1
  In  In42  1  -0.03987117  0.65809741  0.64807650  1
  In  In43  1  0.68241904  0.17726649  0.79681070  1
  In  In44  1  0.67562097  -0.00160747  -0.01530899  1
  In  In45  1  0.16685961  0.17929402  -0.00128856  1
  In  In46  1  0.35616901  0.01536461  0.64454223  1
  In  In47  1  0.83793420  0.16581342  -0.03007516  1
  In  In48  1  0.35769174  0.69021003  0.00503753  1
  In  In49  1  0.34535398  0.65850249  0.68987792  1
  In  In50  1  0.66126697  0.51243469  0.84144206  1
  In  In51  1  0.35481042  -0.00291552  -0.00726087  1
  In  In52  1  0.18609665  0.00180374  0.16321992  1
  In  In53  1  0.23230811  0.85533770  0.32005163  1
  In  In54  1  0.29585947  0.49043767  0.84518082  1
  In  In55  1  0.01713707  0.01844324  0.68902477  1
  In  In56  1  0.35951156  0.86903412  0.82287109  1
  In  In57  1  -0.05276699  0.46501406  0.52165291  1
  In  In58  1  0.84024209  0.32063208  0.81931904  1
  In  In59  1  0.83578312  0.82475506  0.33017467  1
  In  In60  1  0.53374551  0.65937378  0.50649821  1
  In  In61  1  0.83033898  0.48015135  0.67463595  1
  In  In62  1  0.01542136  -0.00904886  0.32183533  1
  In  In63  1  0.52618185  0.03989734  0.51018081  1
  In  In64  1  0.13769727  0.47573514  0.01060215  1
  In  In65  1  0.34515479  0.16870439  0.48851182  1
  In  In66  1  0.81937013  0.49950597  0.32990207  1
  In  In67  1  0.17361556  0.83413549  -0.01540018  1
  In  In68  1  0.84936556  -0.02187373  0.12330558  1
  In  In69  1  0.33219359  0.65739189  0.34211148  1
  In  In70  1  0.01158865  0.17234733  0.14373498  1
  In  In71  1  0.49670904  0.32334010  0.84148825  1
  Te  Te72  1  0.08496186  0.06481567  0.06931925  1
  Te  Te73  1  0.09344167  0.06837081  0.42580642  1
  Te  Te74  1  0.09405958  0.13216457  0.73579055  1
  Te  Te75  1  0.05257251  0.38563124  0.08678680  1
  Te  Te76  1  0.05684772  0.40245566  0.43254344  1
  Te  Te77  1  0.09414515  0.42096539  0.70890074  1
  Te  Te78  1  0.07948126  0.74531112  0.06561964  1
  Te  Te79  1  0.10272488  0.73279677  0.38994092  1
  Te  Te80  1  0.07300470  0.73192997  0.72522199  1
  Te  Te81  1  0.42412976  0.07829951  0.09905769  1
  Te  Te82  1  0.44997289  0.10939937  0.40522191  1
  Te  Te83  1  0.44864990  0.06915490  0.74989215  1
  Te  Te84  1  0.40507211  0.40963785  0.09206300  1
  Te  Te85  1  0.43566711  0.40926709  0.44398614  1
  Te  Te86  1  0.40558016  0.42477186  0.75939498  1
  Te  Te87  1  0.43695107  0.76565299  0.09915788  1
  Te  Te88  1  0.43463756  0.74090193  0.41527719  1
  Te  Te89  1  0.42954793  0.77651870  0.72385247  1
  Te  Te90  1  0.75338036  0.09324724  0.08676298  1
  Te  Te91  1  0.71914771  0.12694039  0.43508897  1
  Te  Te92  1  0.77023767  0.06448595  0.74354302  1
  Te  Te93  1  0.73082659  0.43172000  0.09081975  1
  Te  Te94  1  0.79063185  0.40971630  0.44423347  1
  Te  Te95  1  0.72533783  0.40652681  0.75567888  1
  Te  Te96  1  0.77795486  0.76450289  0.07782347  1
  Te  Te97  1  0.73888283  0.72496560  0.38873245  1
  Te  Te98  1  0.72145790  0.75032571  0.73215192  1
  Te  Te99  1  0.05916354  0.24827220  0.26593279  1
  Te  Te100  1  0.07438070  0.24382485  0.63015441  1
  Te  Te101  1  0.06261657  0.24487177  0.91488071  1
  Te  Te102  1  0.07399309  0.55858101  0.23192166  1
  Te  Te103  1  0.05737915  0.53833178  0.60952649  1
  Te  Te104  1  0.06614523  0.55803710  0.90378404  1
  Te  Te105  1  0.10417555  0.89919863  0.24344569  1
  Te  Te106  1  0.07982773  0.90015238  0.58391606  1
  Te  Te107  1  0.10922118  0.91601534  0.88152388  1
  Te  Te108  1  0.44886714  0.26084955  0.25319044  1
  Te  Te109  1  0.41231325  0.25321773  0.59325239  1
  Te  Te110  1  0.41103392  0.24475060  0.93871731  1
  Te  Te111  1  0.41318290  0.56850052  0.25035343  1
  Te  Te112  1  0.42020772  0.58540050  0.58274262  1
  Te  Te113  1  0.40808752  0.57723148  0.91370427  1
  Te  Te114  1  0.37240471  0.90801553  0.27675464  1
  Te  Te115  1  0.43867158  0.91952019  0.56314101  1
  Te  Te116  1  0.46087800  0.92666075  0.91425196  1
  Te  Te117  1  0.72672557  0.27501381  0.27736560  1
  Te  Te118  1  0.72986505  0.18327600  0.64932251  1
  Te  Te119  1  0.73691420  0.26227205  0.91493350  1
  Te  Te120  1  0.72151885  0.55825354  0.23096292  1
  Te  Te121  1  0.73149813  0.57569967  0.60319576  1
  Te  Te122  1  0.72484903  0.59933273  0.94236416  1
  Te  Te123  1  0.76183078  0.92886544  0.24584436  1
  Te  Te124  1  0.71310354  0.93816147  0.59466970  1
  Te  Te125  1  0.75718124  0.90178538  0.90611752  1
  Te  Te126  1  0.25056698  0.22867349  0.11110721  1
  Te  Te127  1  0.23919486  0.26571028  0.42717397  1
  Te  Te128  1  0.25088670  0.24428261  0.77519142  1
  Te  Te129  1  0.24017404  0.59151704  0.05163733  1
  Te  Te130  1  0.24636385  0.57299370  0.43444464  1
  Te  Te131  1  0.22847982  0.58460985  0.74676200  1
  Te  Te132  1  0.26816531  0.90506380  0.07789732  1
  Te  Te133  1  0.28868271  0.96377553  0.40907639  1
  Te  Te134  1  0.25619076  0.94415352  0.73979604  1
  Te  Te135  1  0.59096597  0.27816195  0.09334765  1
  Te  Te136  1  0.61523862  0.25249352  0.38479154  1
  Te  Te137  1  0.55793942  0.24062357  0.73524784  1
  Te  Te138  1  0.60010813  0.60849054  0.06247826  1
  Te  Te139  1  0.57918620  0.56185966  0.40266188  1
  Te  Te140  1  0.56588156  0.58533326  0.74764073  1
  Te  Te141  1  0.59245072  0.93073612  0.09183432  1
  Te  Te142  1  0.58263528  0.92569132  0.41260577  1
  Te  Te143  1  0.55021521  0.95102410  0.77071090  1
  Te  Te144  1  0.89790169  0.25035245  0.08161955  1
  Te  Te145  1  0.90440295  0.23375442  0.42217988  1
  Te  Te146  1  0.92219376  0.24913602  0.71873546  1
  Te  Te147  1  0.90919494  0.56808107  0.08770131  1
  Te  Te148  1  0.92541733  0.59131066  0.43013965  1
  Te  Te149  1  0.89452227  0.58547822  0.75768359  1
  Te  Te150  1  0.93984089  0.91645056  0.02971176  1
  Te  Te151  1  0.90204018  0.93863279  0.41403883  1
  Te  Te152  1  0.92882040  0.90869341  0.75166071  1
  Te  Te153  1  0.26202267  0.10725712  0.23500621  1
  Te  Te154  1  0.24636424  0.10362717  0.58717074  1
  Te  Te155  1  0.24959444  0.07565843  0.91822545  1
  Te  Te156  1  0.24368355  0.41864040  0.26482630  1
  Te  Te157  1  0.25291680  0.43527882  0.57994089  1
  Te  Te158  1  0.23749617  0.38863091  0.93744366  1
  Te  Te159  1  0.27177864  0.73839733  0.22781858  1
  Te  Te160  1  0.24105206  0.74208125  0.56943382  1
  Te  Te161  1  0.27160715  0.75521450  0.88822900  1
  Te  Te162  1  0.57408557  0.07535218  0.24587104  1
  Te  Te163  1  0.58829149  0.13482346  0.60632877  1
  Te  Te164  1  0.59886714  0.10480419  0.91227154  1
  Te  Te165  1  0.60755568  0.46170288  0.27868172  1
  Te  Te166  1  0.60457795  0.38826649  0.58398965  1
  Te  Te167  1  0.57471173  0.41959110  0.92716729  1
  Te  Te168  1  0.58909748  0.75181568  0.26140103  1
  Te  Te169  1  0.60705638  0.75759825  0.58715852  1
  Te  Te170  1  0.57500735  0.76819674  0.92457521  1
  Te  Te171  1  0.92331866  0.07415580  0.23366980  1
  Te  Te172  1  0.92258758  0.07590460  0.58392622  1
  Te  Te173  1  0.95158454  0.11096803  0.89282063  1
  Te  Te174  1  0.91854869  0.41989885  0.25848085  1
  Te  Te175  1  0.89197934  0.35360218  0.61335654  1
  Te  Te176  1  0.91391208  0.41943049  0.89834188  1
  Te  Te177  1  0.92637525  0.76296745  0.22777940  1
  Te  Te178  1  0.89473866  0.77427801  0.56042582  1
  Te  Te179  1  0.90989599  0.72101470  0.87665948  1
