# generated using pymatgen
data_In2Te3
_symmetry_space_group_name_H-M   'P 1'
_cell_length_a   18.78231769
_cell_length_b   18.78731958
_cell_length_c   18.77834105
_cell_angle_alpha   89.97839366
_cell_angle_beta   90.13331271
_cell_angle_gamma   89.95828693
_symmetry_Int_Tables_number   1
_chemical_formula_structural   In2Te3
_chemical_formula_sum   'In72 Te108'
_cell_volume   6626.28186087
_cell_formula_units_Z   36
loop_
 _symmetry_equiv_pos_site_id
 _symmetry_equiv_pos_as_xyz
  1  'x, y, z'
loop_
 _atom_site_type_symbol
 _atom_site_label
 _atom_site_symmetry_multiplicity
 _atom_site_fract_x
 _atom_site_fract_y
 _atom_site_fract_z
 _atom_site_occupancy
  In  In0  1  0.48205982  0.51842481  0.31246989  1
  In  In1  1  0.66099929  0.68492557  0.32484441  1
  In  In2  1  0.32803435  0.15263855  0.49987413  1
  In  In3  1  0.49429710  0.00775366  0.80325336  1
  In  In4  1  0.34631889  0.49241274  0.83876119  1
  In  In5  1  0.32639898  0.34410620  0.31382513  1
  In  In6  1  0.83489022  0.01423919  0.81767780  1
  In  In7  1  0.33270867  0.33813354  0.02226078  1
  In  In8  1  0.81240091  0.83110926  0.67021243  1
  In  In9  1  0.48577390  0.32845256  0.48517515  1
  In  In10  1  0.85625133  0.82099479  0.32515408  1
  In  In11  1  -0.01448176  0.32578117  0.01020256  1
  In  In12  1  0.65621921  -0.00449430  0.34667699  1
  In  In13  1  0.84931918  0.00387665  0.17411995  1
  In  In14  1  0.02853532  0.16699183  0.48724978  1
  In  In15  1  0.84566351  0.67349661  0.17181382  1
  In  In16  1  0.00497429  0.33735640  0.33086293  1
  In  In17  1  0.47413473  0.70630656  0.49007111  1
  In  In18  1  0.16922143  0.33570366  0.83257853  1
  In  In19  1  0.49137776  0.32637724  0.16829025  1
  In  In20  1  0.48963954  0.82943679  -0.00861174  1
  In  In21  1  0.66710009  0.33380699  0.67937380  1
  In  In22  1  0.85205095  0.82869674  -0.00587789  1
  In  In23  1  0.15833636  0.49613573  0.66367487  1
  In  In24  1  0.67769772  0.48636971  0.14586677  1
  In  In25  1  0.81552235  0.50974089  -0.02377442  1
  In  In26  1  0.32316498  0.00536851  0.00127518  1
  In  In27  1  0.32699241  0.00312932  0.65512766  1
  In  In28  1  0.82415251  0.17009856  0.67824457  1
  In  In29  1  -0.00817406  0.65610645  0.65767237  1
  In  In30  1  0.65173039  0.82521000  0.52298103  1
  In  In31  1  0.65861064  0.17465510  0.16420094  1
  In  In32  1  0.66545572  0.80512746  0.16153593  1
  In  In33  1  0.84082075  0.63851428  0.50551758  1
  In  In34  1  0.86309970  0.49474671  0.33053274  1
  In  In35  1  0.64655670  0.16781789  0.51582206  1
  In  In36  1  0.34162902  0.68661464  0.66088379  1
  In  In37  1  0.02032427  0.83001208  0.47172446  1
  In  In38  1  0.17612524  0.83127039  0.65375884  1
  In  In39  1  0.51496201  0.49340993  -0.00829036  1
  In  In40  1  0.01671230  0.51319695  0.49139317  1
  In  In41  1  0.69545176  0.19223262  0.85697862  1
  In  In42  1  0.84759871  0.16789834  0.31492992  1
  In  In43  1  0.30095306  0.65847439  0.03582929  1
  In  In44  1  0.00566975  0.67744255  0.01129940  1
  In  In45  1  0.48619850  0.16893734  -0.00529558  1
  In  In46  1  0.01982310  0.51540296  0.83625486  1
  In  In47  1  0.14741554  0.34270111  0.51826611  1
  In  In48  1  0.01317679  0.00215956  0.01692829  1
  In  In49  1  0.16686357  0.32704207  0.16551785  1
  In  In50  1  0.15970295  0.67963556  0.83619378  1
  In  In51  1  0.50681301  0.66797580  0.81947228  1
  In  In52  1  0.50211525  0.54257888  0.66391303  1
  In  In53  1  0.00390345  -0.01830865  0.65770741  1
  In  In54  1  0.67183064  0.50885165  0.50309100  1
  In  In55  1  0.67175610  0.33233421  0.36166031  1
  In  In56  1  0.83816816  -0.02410659  0.49336941  1
  In  In57  1  0.17053996  0.16674237  0.32433586  1
  In  In58  1  0.32056776  0.31734740  0.65915238  1
  In  In59  1  0.47825917  0.64911543  0.17626638  1
  In  In60  1  0.66996662  0.00623451  0.02038588  1
  In  In61  1  0.02614006  0.50954504  0.19264217  1
  In  In62  1  0.17721473  0.00560665  0.18129797  1
  In  In63  1  0.48061926  0.00118898  0.48774640  1
  In  In64  1  0.50983251  0.33480898  0.84160824  1
  In  In65  1  0.00226351  0.18025075  0.82852461  1
  In  In66  1  0.19449402  0.84721731  0.33668884  1
  In  In67  1  0.83166882  0.48739212  0.66232372  1
  In  In68  1  0.46157885  -0.02712223  0.19946931  1
  In  In69  1  0.16278077  0.82848417  0.00628361  1
  In  In70  1  0.65010631  0.84115415  0.81880667  1
  In  In71  1  0.16861116  -0.00161075  0.84574469  1
  Te  Te72  1  0.10764458  0.09391934  0.08185123  1
  Te  Te73  1  0.10845124  0.06677199  0.41585474  1
  Te  Te74  1  0.08286784  0.07810270  0.74522221  1
  Te  Te75  1  0.08241535  0.42130315  0.07927341  1
  Te  Te76  1  0.11082766  0.43069527  0.38936956  1
  Te  Te77  1  0.06637414  0.40473277  0.74039195  1
  Te  Te78  1  0.10021881  0.73897392  0.10688736  1
  Te  Te79  1  0.11731092  0.73664082  0.40862769  1
  Te  Te80  1  0.07163117  0.75807956  0.74093925  1
  Te  Te81  1  0.41622191  0.08121935  0.09709270  1
  Te  Te82  1  0.40509808  0.08719887  0.39000950  1
  Te  Te83  1  0.38997358  0.09779683  0.75253632  1
  Te  Te84  1  0.41878180  0.44081007  0.09830555  1
  Te  Te85  1  0.40136060  0.43368565  0.41351545  1
  Te  Te86  1  0.42651229  0.41668795  0.73405769  1
  Te  Te87  1  0.40356336  0.75779039  0.09371797  1
  Te  Te88  1  0.37349295  0.74515840  0.38740447  1
  Te  Te89  1  0.42391152  0.77000374  0.75082907  1
  Te  Te90  1  0.77074108  0.09941081  0.08285451  1
  Te  Te91  1  0.75423156  0.08897514  0.41773049  1
  Te  Te92  1  0.72003611  0.08314210  0.74775536  1
  Te  Te93  1  0.75818917  0.39679429  0.05971155  1
  Te  Te94  1  0.77476917  0.42078292  0.43253465  1
  Te  Te95  1  0.76134687  0.40718959  0.76614386  1
  Te  Te96  1  0.75428927  0.73035846  0.06325521  1
  Te  Te97  1  0.75757677  0.75400660  0.42413323  1
  Te  Te98  1  0.74763219  0.74201501  0.76715478  1
  Te  Te99  1  0.06495728  0.23529577  0.23506803  1
  Te  Te100  1  0.08179816  0.24174952  0.60293375  1
  Te  Te101  1  0.09240349  0.24736690  0.93245130  1
  Te  Te102  1  0.12511983  0.60339691  0.25667152  1
  Te  Te103  1  0.10838610  0.60820535  0.57305557  1
  Te  Te104  1  0.10692256  0.58306190  0.94077448  1
  Te  Te105  1  0.08990989  0.90838752  0.25123310  1
  Te  Te106  1  0.10378646  0.92684026  0.55657792  1
  Te  Te107  1  0.06861216  0.90362994  0.91300158  1
  Te  Te108  1  0.41027027  0.23833444  0.25247985  1
  Te  Te109  1  0.42709889  0.23305074  0.58851164  1
  Te  Te110  1  0.39698604  0.25662666  0.90690131  1
  Te  Te111  1  0.36689204  0.60571123  0.27013660  1
  Te  Te112  1  0.40200870  0.58678279  0.55821391  1
  Te  Te113  1  0.41261573  0.59640606  0.92905792  1
  Te  Te114  1  0.37152630  0.90094704  0.29679708  1
  Te  Te115  1  0.39065400  0.90034942  0.56016693  1
  Te  Te116  1  0.41104319  0.92458297  0.90540650  1
  Te  Te117  1  0.75006165  0.26542201  0.24799911  1
  Te  Te118  1  0.75210194  0.25967652  0.57528520  1
  Te  Te119  1  0.78725053  0.25780506  0.95422864  1
  Te  Te120  1  0.74832701  0.57834390  0.25854273  1
  Te  Te121  1  0.73581659  0.60068266  0.60664037  1
  Te  Te122  1  0.71409414  0.56931898  0.88697256  1
  Te  Te123  1  0.74575997  0.90927978  0.24785337  1
  Te  Te124  1  0.73066572  0.93550248  0.59355035  1
  Te  Te125  1  0.75109144  0.92329992  0.92168009  1
  Te  Te126  1  0.26076290  0.23443800  0.09829554  1
  Te  Te127  1  0.24299890  0.26592546  0.42262646  1
  Te  Te128  1  0.24453865  0.23513023  0.75362243  1
  Te  Te129  1  0.23122554  0.56387000  0.12566071  1
  Te  Te130  1  0.17986365  0.57232343  0.39452106  1
  Te  Te131  1  0.25264638  0.58159000  0.75298922  1
  Te  Te132  1  0.25904220  0.90571966  0.09554142  1
  Te  Te133  1  0.29553204  0.91071843  0.43623339  1
  Te  Te134  1  0.25639315  0.90968212  0.75638744  1
  Te  Te135  1  0.58438998  0.26416016  0.06432105  1
  Te  Te136  1  0.56615678  0.22951434  0.39992785  1
  Te  Te137  1  0.58194415  0.23285575  0.75473515  1
  Te  Te138  1  0.58993105  0.59246784  0.08418849  1
  Te  Te139  1  0.57637225  0.59277355  0.41597909  1
  Te  Te140  1  0.60112472  0.55565785  0.77660838  1
  Te  Te141  1  0.57282013  0.91672368  0.09418629  1
  Te  Te142  1  0.56803307  0.89296367  0.41404542  1
  Te  Te143  1  0.55882192  0.90320801  0.72023984  1
  Te  Te144  1  0.89048332  0.22952334  0.06840625  1
  Te  Te145  1  0.91838947  0.25231236  0.42276410  1
  Te  Te146  1  0.89923575  0.26456916  0.76242523  1
  Te  Te147  1  0.91795977  0.56673528  0.08908381  1
  Te  Te148  1  0.94038933  0.60855753  0.39570859  1
  Te  Te149  1  0.90672335  0.58523031  0.75859254  1
  Te  Te150  1  0.93367783  0.90002765  0.10064910  1
  Te  Te151  1  0.93915793  0.93281414  0.38940836  1
  Te  Te152  1  0.91805019  0.90283277  0.75634031  1
  Te  Te153  1  0.27637609  0.07607331  0.27070859  1
  Te  Te154  1  0.22557025  0.08265669  0.57882736  1
  Te  Te155  1  0.23842978  0.10074125  0.92656941  1
  Te  Te156  1  0.25408994  0.43881406  0.22007479  1
  Te  Te157  1  0.26200233  0.42984498  0.57422207  1
  Te  Te158  1  0.24485433  0.42680724  0.93068185  1
  Te  Te159  1  0.28564962  0.75379080  0.25778591  1
  Te  Te160  1  0.24789645  0.74102753  0.56066050  1
  Te  Te161  1  0.26451377  0.75247888  0.91856073  1
  Te  Te162  1  0.57516457  0.07226770  0.24243383  1
  Te  Te163  1  0.56749248  0.06826602  0.58809802  1
  Te  Te164  1  0.58635325  0.08119863  0.91762242  1
  Te  Te165  1  0.59014801  0.41891429  0.26055708  1
  Te  Te166  1  0.57570098  0.41584870  0.57747886  1
  Te  Te167  1  0.61370487  0.41673481  0.91085486  1
  Te  Te168  1  0.55190494  0.76229016  0.25470726  1
  Te  Te169  1  0.57314398  0.72510437  0.59859918  1
  Te  Te170  1  0.59264303  0.74290901  0.92440192  1
  Te  Te171  1  0.94859059  0.08567518  0.24599290  1
  Te  Te172  1  0.91081831  0.07851127  0.58192019  1
  Te  Te173  1  0.92350231  0.08310012  0.91815561  1
  Te  Te174  1  0.91488140  0.40136769  0.22474019  1
  Te  Te175  1  0.93166462  0.42337078  0.57303086  1
  Te  Te176  1  0.92296048  0.42221723  0.90826324  1
  Te  Te177  1  0.95260077  0.74758243  0.24114984  1
  Te  Te178  1  0.91748431  0.76523857  0.56956967  1
  Te  Te179  1  0.91720675  0.73088263  0.90569579  1
