# generated using pymatgen
data_In2Te3
_symmetry_space_group_name_H-M   'P 1'
_cell_length_a   18.94263551
_cell_length_b   18.94200000
_cell_length_c   18.94131506
_cell_angle_alpha   90.20649381
_cell_angle_beta   90.06150840
_cell_angle_gamma   89.98924230
_symmetry_Int_Tables_number   1
_chemical_formula_structural   In2Te3
_chemical_formula_sum   'In72 Te108'
_cell_volume   6796.31163743
_cell_formula_units_Z   36
loop_
 _symmetry_equiv_pos_site_id
 _symmetry_equiv_pos_as_xyz
  1  'x, y, z'
loop_
 _atom_site_type_symbol
 _atom_site_label
 _atom_site_symmetry_multiplicity
 _atom_site_fract_x
 _atom_site_fract_y
 _atom_site_fract_z
 _atom_site_occupancy
  In  In0  1  0.01607479  -0.01723379  -0.02606395  1
  In  In1  1  0.15477614  0.67459642  0.52206058  1
  In  In2  1  -0.00621568  0.34308395  0.66545757  1
  In  In3  1  0.32770905  0.51247546  0.81591128  1
  In  In4  1  0.83773715  0.33714141  0.15761616  1
  In  In5  1  0.14566948  0.32487784  0.81235916  1
  In  In6  1  0.49796047  0.49841527  0.31263293  1
  In  In7  1  0.31706861  0.13254826  0.86665191  1
  In  In8  1  0.66121433  0.17245098  0.47363490  1
  In  In9  1  0.49303731  0.14229925  0.30068023  1
  In  In10  1  0.16154490  0.13279614  0.29999267  1
  In  In11  1  0.81818096  0.15115049  0.33467326  1
  In  In12  1  0.80844659  0.32134983  0.48436993  1
  In  In13  1  0.67163848  0.84030257  0.17461055  1
  In  In14  1  0.67262455  0.48054882  0.50676105  1
  In  In15  1  0.65305866  0.31756477  0.66243205  1
  In  In16  1  0.34180692  0.68186003  0.69013397  1
  In  In17  1  0.52837554  0.50094566  -0.00436088  1
  In  In18  1  0.68226323  -0.01489224  -0.00635915  1
  In  In19  1  0.81405044  0.12808586  0.70836996  1
  In  In20  1  0.67955917  0.52288495  0.83578408  1
  In  In21  1  0.19196828  0.84380567  0.30703404  1
  In  In22  1  0.66932856  0.70148685  0.69663727  1
  In  In23  1  0.34169713  0.33285313  -0.02543146  1
  In  In24  1  0.33915877  0.71149766  -0.00587966  1
  In  In25  1  0.17517267  -0.00426129  0.50146887  1
  In  In26  1  0.31952264  0.64942358  0.31035369  1
  In  In27  1  0.00842918  0.83059905  0.16126276  1
  In  In28  1  0.13587721  0.52042924  -0.02050054  1
  In  In29  1  -0.02861224  0.15216315  0.52839719  1
  In  In30  1  0.84251148  0.52155036  0.68457702  1
  In  In31  1  0.50128059  0.01373706  0.48736542  1
  In  In32  1  0.33507737  -0.00645636  0.65601178  1
  In  In33  1  0.51690790  -0.02439383  0.85613034  1
  In  In34  1  0.13998313  0.50235745  0.33928338  1
  In  In35  1  0.82121173  -0.00405949  0.16679030  1
  In  In36  1  0.49074980  0.85520351  0.29948333  1
  In  In37  1  0.83558651  0.67467648  0.16160220  1
  In  In38  1  0.67002160  0.50859112  0.15471134  1
  In  In39  1  0.32589913  0.32897791  0.64348825  1
  In  In40  1  0.02732664  0.69691667  0.00017865  1
  In  In41  1  0.83888253  0.34086449  0.85316611  1
  In  In42  1  0.52096220  0.50018162  0.65637596  1
  In  In43  1  0.18556904  0.33144742  0.48755656  1
  In  In44  1  0.83708100  -0.02657858  0.56430710  1
  In  In45  1  0.67003744  0.16835516  0.14641528  1
  In  In46  1  0.00997422  0.50935234  0.50863759  1
  In  In47  1  -0.00990146  0.49316615  0.16487548  1
  In  In48  1  0.50506141  0.68106741  0.51994610  1
  In  In49  1  0.34074745  0.29452900  0.30061959  1
  In  In50  1  0.84993993  0.70806974  0.82562022  1
  In  In51  1  0.33842400  0.82958456  0.48488500  1
  In  In52  1  0.67457158  0.70255633  -0.03658434  1
  In  In53  1  -0.00919621  0.82311589  0.58534949  1
  In  In54  1  0.00110034  0.15785368  0.85633601  1
  In  In55  1  0.48717713  0.70400290  0.86241989  1
  In  In56  1  0.00062730  0.33866600  -0.00352811  1
  In  In57  1  0.33790997  0.85352067  0.82122286  1
  In  In58  1  -0.00203345  0.67924526  0.35866439  1
  In  In59  1  0.68630970  0.32224099  0.00209095  1
  In  In60  1  0.48968079  0.16461980  0.66174854  1
  In  In61  1  0.49160284  0.30118150  0.83004471  1
  In  In62  1  0.17625986  0.69541497  0.15539452  1
  In  In63  1  0.16626330  0.15520128  0.68417448  1
  In  In64  1  0.21972117  0.08227718  0.05565722  1
  In  In65  1  0.67547750  0.67106623  0.34886753  1
  In  In66  1  0.66302683  0.01291220  0.33638985  1
  In  In67  1  0.17434119  0.29864644  0.16988296  1
  In  In68  1  0.83460618  0.66946849  0.51368621  1
  In  In69  1  -0.02495369  -0.01674388  0.35045206  1
  In  In70  1  0.32211632  0.48735550  0.15157003  1
  In  In71  1  0.32826754  0.46535365  0.50248620  1
  Te  Te72  1  0.07192986  0.08242280  0.06652851  1
  Te  Te73  1  0.06896190  0.08169132  0.42983931  1
  Te  Te74  1  0.09655537  0.07200534  0.78064680  1
  Te  Te75  1  0.10410044  0.42194444  0.09425878  1
  Te  Te76  1  0.06651897  0.39845418  0.41998660  1
  Te  Te77  1  0.05956123  0.43273755  0.76288019  1
  Te  Te78  1  0.12221265  0.80084494  0.06295069  1
  Te  Te79  1  0.10780234  0.76912339  0.41237792  1
  Te  Te80  1  0.05191529  0.79361416  0.72122845  1
  Te  Te81  1  0.36966157  0.03849293  0.09869770  1
  Te  Te82  1  0.40870871  0.09675210  0.41254285  1
  Te  Te83  1  0.41507355  0.07505494  0.75822854  1
  Te  Te84  1  0.42727514  0.41333806  0.07115110  1
  Te  Te85  1  0.40817942  0.40248395  0.39300632  1
  Te  Te86  1  0.42316024  0.41181049  0.74119056  1
  Te  Te87  1  0.40576524  0.77655313  0.10366737  1
  Te  Te88  1  0.41899620  0.73354789  0.39866527  1
  Te  Te89  1  0.44632861  0.77936493  0.73926974  1
  Te  Te90  1  0.77130945  0.09329046  0.06358124  1
  Te  Te91  1  0.77082531  0.05765272  0.44584425  1
  Te  Te92  1  0.73154721  0.01931639  0.77326927  1
  Te  Te93  1  0.76661660  0.43447286  0.06340628  1
  Te  Te94  1  0.73107018  0.40687191  0.39549717  1
  Te  Te95  1  0.74300175  0.41302623  0.74062117  1
  Te  Te96  1  0.76068279  0.77030234  0.07348248  1
  Te  Te97  1  0.75108000  0.76133776  0.43606896  1
  Te  Te98  1  0.70659561  0.77911949  0.82060494  1
  Te  Te99  1  0.07234332  0.23913434  0.25410413  1
  Te  Te100  1  0.08456179  0.24734770  0.58611679  1
  Te  Te101  1  0.10210924  0.24502590  0.93124700  1
  Te  Te102  1  0.08512698  0.61005439  0.24658580  1
  Te  Te103  1  0.05287284  0.60974457  0.60665843  1
  Te  Te104  1  0.09978751  0.62989479  0.89015505  1
  Te  Te105  1  0.07978413  0.93058994  0.25219792  1
  Te  Te106  1  0.10273865  0.92620724  0.60929653  1
  Te  Te107  1  0.02694453  0.87316913  0.86704400  1
  Te  Te108  1  0.42577883  0.23065894  0.20145619  1
  Te  Te109  1  0.41565502  0.24562844  0.56388548  1
  Te  Te110  1  0.42817399  0.21232635  0.93516954  1
  Te  Te111  1  0.42052723  0.58551900  0.21531921  1
  Te  Te112  1  0.40537287  0.57636947  0.58488393  1
  Te  Te113  1  0.41532758  0.57785437  0.92318779  1
  Te  Te114  1  0.41950218  0.96982738  0.24176576  1
  Te  Te115  1  0.43180136  0.90914291  0.57429583  1
  Te  Te116  1  0.39027223  0.94266477  0.92840840  1
  Te  Te117  1  0.74675003  0.25073049  0.24841168  1
  Te  Te118  1  0.76091065  0.22925923  0.59692256  1
  Te  Te119  1  0.75215447  0.23562130  0.90345904  1
  Te  Te120  1  0.75813202  0.58425326  0.25484154  1
  Te  Te121  1  0.72694166  0.58413305  0.60361232  1
  Te  Te122  1  0.77949266  0.59867099  0.91420925  1
  Te  Te123  1  0.76059255  0.91129614  0.27601097  1
  Te  Te124  1  0.72026777  0.92423882  0.64085229  1
  Te  Te125  1  0.75784814  0.91254921  0.88727580  1
  Te  Te126  1  0.26396443  0.24043785  0.06818269  1
  Te  Te127  1  0.24273417  0.22750313  0.39568307  1
  Te  Te128  1  0.27147142  0.24596990  0.76497130  1
  Te  Te129  1  0.24704614  0.59188135  0.06774456  1
  Te  Te130  1  0.24199585  0.58262298  0.42596443  1
  Te  Te131  1  0.23478955  0.59429752  0.73857885  1
  Te  Te132  1  0.25020628  0.95340018  0.13370151  1
  Te  Te133  1  0.27125882  0.93511751  0.40019820  1
  Te  Te134  1  0.23621239  0.91807084  0.73372752  1
  Te  Te135  1  0.57820847  0.26249213  0.07951950  1
  Te  Te136  1  0.57888318  0.23981251  0.37644674  1
  Te  Te137  1  0.59715296  0.21690171  0.76073811  1
  Te  Te138  1  0.60016508  0.61101215  0.06770398  1
  Te  Te139  1  0.57313079  0.57632430  0.42879094  1
  Te  Te140  1  0.56542970  0.59868439  0.76529271  1
  Te  Te141  1  0.58205659  0.90626015  0.07525942  1
  Te  Te142  1  0.58081054  0.90850888  0.40962472  1
  Te  Te143  1  0.59501216  0.94404345  0.73418625  1
  Te  Te144  1  0.91931991  0.24764057  0.07480061  1
  Te  Te145  1  0.91497347  0.23771076  0.41651307  1
  Te  Te146  1  0.91644869  0.24580049  0.75228380  1
  Te  Te147  1  0.93336479  0.59786840  0.07417490  1
  Te  Te148  1  0.90654898  0.57429498  0.41749178  1
  Te  Te149  1  0.93570266  0.61394921  0.74913865  1
  Te  Te150  1  0.91704425  0.91817167  0.07995927  1
  Te  Te151  1  0.92668152  0.89810021  0.46344051  1
  Te  Te152  1  0.91871448  0.86296483  0.73632892  1
  Te  Te153  1  0.28051384  0.06932156  0.23465686  1
  Te  Te154  1  0.25838953  0.09950689  0.57746341  1
  Te  Te155  1  0.22994853  0.02490612  0.91612261  1
  Te  Te156  1  0.24307933  0.41965943  0.26286565  1
  Te  Te157  1  0.21835633  0.42829131  0.60092187  1
  Te  Te158  1  0.23777709  0.42279983  0.90757061  1
  Te  Te159  1  0.29938851  0.77281624  0.21697320  1
  Te  Te160  1  0.25535467  0.76339823  0.59246758  1
  Te  Te161  1  0.24937285  0.75437561  0.88862760  1
  Te  Te162  1  0.59219901  0.05710524  0.21266315  1
  Te  Te163  1  0.59543477  0.08909245  0.58011430  1
  Te  Te164  1  0.58197100  0.07796989  0.93832174  1
  Te  Te165  1  0.58043004  0.41676800  0.22450945  1
  Te  Te166  1  0.56373878  0.38839290  0.56185478  1
  Te  Te167  1  0.58678984  0.40733717  0.89029007  1
  Te  Te168  1  0.58423282  0.74219214  0.25050382  1
  Te  Te169  1  0.60930140  0.76593373  0.57850724  1
  Te  Te170  1  0.55109552  0.79148039  0.96464398  1
  Te  Te171  1  0.91966838  0.08032093  0.24753284  1
  Te  Te172  1  0.93492023  0.06064883  0.64240582  1
  Te  Te173  1  0.90942728  0.05024836  0.89613110  1
  Te  Te174  1  0.91545487  0.41326812  0.25854192  1
  Te  Te175  1  0.89529487  0.41921478  0.57550470  1
  Te  Te176  1  0.94000310  0.43518465  0.90247526  1
  Te  Te177  1  0.91554064  0.76035131  0.26064181  1
  Te  Te178  1  0.85715560  0.76323188  0.63143881  1
  Te  Te179  1  0.91996161  0.78245889  0.93656189  1
