# generated using pymatgen
data_In2Te3
_symmetry_space_group_name_H-M   'P 1'
_cell_length_a   19.01913646
_cell_length_b   19.01460419
_cell_length_c   18.98320151
_cell_angle_alpha   89.86202139
_cell_angle_beta   90.00228851
_cell_angle_gamma   90.10691493
_symmetry_Int_Tables_number   1
_chemical_formula_structural   In2Te3
_chemical_formula_sum   'In72 Te108'
_cell_volume   6865.07879185
_cell_formula_units_Z   36
loop_
 _symmetry_equiv_pos_site_id
 _symmetry_equiv_pos_as_xyz
  1  'x, y, z'
loop_
 _atom_site_type_symbol
 _atom_site_label
 _atom_site_symmetry_multiplicity
 _atom_site_fract_x
 _atom_site_fract_y
 _atom_site_fract_z
 _atom_site_occupancy
  In  In0  1  0.46421827  -0.01143112  0.15088743  1
  In  In1  1  0.14532020  0.16648876  0.01362065  1
  In  In2  1  0.65665051  0.83590282  0.53357919  1
  In  In3  1  0.47952572  0.32480626  0.15950839  1
  In  In4  1  0.82128639  0.83584627  -0.02003444  1
  In  In5  1  0.49443500  0.63574918  0.08790525  1
  In  In6  1  0.51860216  -0.01372195  0.83352250  1
  In  In7  1  0.68093586  -0.01717078  -0.02458065  1
  In  In8  1  0.66272486  0.50376353  0.82638408  1
  In  In9  1  0.67264367  0.01267366  0.67548015  1
  In  In10  1  0.83721631  0.65526252  0.50311475  1
  In  In11  1  0.15790946  0.48578433  0.00396098  1
  In  In12  1  0.33885112  -0.02492892  0.67379523  1
  In  In13  1  0.83583815  0.48688582  0.66913354  1
  In  In14  1  0.51249195  0.32745721  0.81115692  1
  In  In15  1  0.47972296  0.48993361  0.32511211  1
  In  In16  1  0.10129668  0.46573387  0.32057004  1
  In  In17  1  0.85823856  0.18624751  0.00363837  1
  In  In18  1  0.36711348  0.54391140  0.84144569  1
  In  In19  1  0.13779760  0.00750326  0.83366785  1
  In  In20  1  0.68471438  0.67735888  0.30018061  1
  In  In21  1  0.66250749  0.03357553  0.33651985  1
  In  In22  1  0.00112443  0.15216208  0.51357676  1
  In  In23  1  0.13690624  0.22662913  0.34687574  1
  In  In24  1  0.00565137  0.66723670  0.34425468  1
  In  In25  1  0.30459151  0.18437287  0.81990497  1
  In  In26  1  0.67643672  0.34834395  0.34847264  1
  In  In27  1  0.86713623  0.15733710  0.35128465  1
  In  In28  1  0.83156145  0.33817935  0.83992817  1
  In  In29  1  0.82321028  0.00883153  0.19016546  1
  In  In30  1  0.51672232  0.51902973  0.67059511  1
  In  In31  1  0.51252583  0.81136964  0.34949097  1
  In  In32  1  0.30320076  0.01045440  0.34383602  1
  In  In33  1  0.00576748  0.16969507  0.84507637  1
  In  In34  1  0.86429707  0.85399400  0.69048252  1
  In  In35  1  0.34144091  0.68075229  0.31999808  1
  In  In36  1  0.46975656  -0.00800663  0.51033832  1
  In  In37  1  0.33680611  0.16523074  0.14882099  1
  In  In38  1  0.13931799  -0.00817648  0.15123502  1
  In  In39  1  0.30664089  0.49110525  0.15917271  1
  In  In40  1  0.68508172  0.20404648  0.14496182  1
  In  In41  1  0.15942902  0.65814509  0.82313296  1
  In  In42  1  0.85734615  0.34467421  0.20617645  1
  In  In43  1  0.15032418  -0.00534922  0.51513272  1
  In  In44  1  0.84019740  0.68277373  0.84445138  1
  In  In45  1  -0.01225561  0.48350532  0.86054189  1
  In  In46  1  0.01263480  0.66957189  0.66263081  1
  In  In47  1  0.15534538  0.84294943  -0.01130732  1
  In  In48  1  0.66024922  0.49111598  0.50957975  1
  In  In49  1  0.00751423  0.34018490  0.64783911  1
  In  In50  1  0.67505333  0.34414107  0.00044975  1
  In  In51  1  0.68285859  0.83276927  0.15429500  1
  In  In52  1  0.33901582  0.34166680  -0.02583409  1
  In  In53  1  0.51126390  0.64647073  0.49135790  1
  In  In54  1  0.67146383  0.65999254  -0.00943576  1
  In  In55  1  0.33551103  0.16691793  0.49764578  1
  In  In56  1  0.50153466  0.15941632  0.66534739  1
  In  In57  1  0.32611240  0.49206240  0.47332409  1
  In  In58  1  0.14293223  0.34640953  0.17081450  1
  In  In59  1  -0.01024265  0.83238344  0.15969772  1
  In  In60  1  0.15733750  0.82593507  0.67143637  1
  In  In61  1  0.84976314  0.84742844  0.37886039  1
  In  In62  1  0.17009295  0.67305167  0.49878835  1
  In  In63  1  0.87036833  0.62870878  0.16892518  1
  In  In64  1  0.52088265  0.18494896  0.31012797  1
  In  In65  1  0.17185500  0.84007044  0.34364198  1
  In  In66  1  0.16561658  0.32578580  0.82072802  1
  In  In67  1  0.18772139  0.50878532  0.65082454  1
  In  In68  1  0.50550295  0.81212049  -0.02919760  1
  In  In69  1  0.69872173  0.17904124  0.50357696  1
  In  In70  1  0.35663365  0.80195568  0.82325995  1
  In  In71  1  0.32614465  0.84229648  0.16550622  1
  Te  Te72  1  0.05016947  0.06080721  0.05492081  1
  Te  Te73  1  0.09943064  0.09128222  0.41249131  1
  Te  Te74  1  0.09767166  0.11640956  0.74151637  1
  Te  Te75  1  0.04911874  0.43680147  0.09629124  1
  Te  Te76  1  0.05000354  0.34292379  0.39324667  1
  Te  Te77  1  0.08712269  0.43832078  0.74898153  1
  Te  Te78  1  0.08022154  0.75306779  0.07828321  1
  Te  Te79  1  0.07301144  0.76977919  0.43421751  1
  Te  Te80  1  0.06219922  0.76266841  0.77169525  1
  Te  Te81  1  0.41275313  0.08463116  0.05470878  1
  Te  Te82  1  0.42823557  0.08644639  0.39193023  1
  Te  Te83  1  0.40831408  0.08004816  0.75902866  1
  Te  Te84  1  0.41487784  0.42886733  0.07141679  1
  Te  Te85  1  0.43070448  0.40046868  0.42790788  1
  Te  Te86  1  0.41904247  0.43303450  0.75348738  1
  Te  Te87  1  0.39993348  0.75715520  0.06826052  1
  Te  Te88  1  0.40844112  0.74807965  0.43697549  1
  Te  Te89  1  0.44632153  0.76874788  0.71367918  1
  Te  Te90  1  0.74677763  0.08260968  0.08044554  1
  Te  Te91  1  0.77176457  0.06692993  0.43250034  1
  Te  Te92  1  0.74281852  0.13931480  0.71264362  1
  Te  Te93  1  0.75324761  0.39790651  0.11318197  1
  Te  Te94  1  0.76576843  0.41606100  0.44098190  1
  Te  Te95  1  0.73514739  0.40070509  0.74189109  1
  Te  Te96  1  0.77217490  0.72989226  0.09131714  1
  Te  Te97  1  0.73277701  0.75010560  0.42609081  1
  Te  Te98  1  0.77171414  0.75048778  0.73576558  1
  Te  Te99  1  0.06763040  0.22662329  0.21477028  1
  Te  Te100  1  0.09040702  0.22432945  0.60901127  1
  Te  Te101  1  0.07643844  0.27416298  0.93244874  1
  Te  Te102  1  0.08616511  0.59225739  0.24871579  1
  Te  Te103  1  0.07720180  0.57380851  0.56592453  1
  Te  Te104  1  0.07314161  0.58927904  0.92635706  1
  Te  Te105  1  0.06982818  0.91584173  0.26237992  1
  Te  Te106  1  0.06539276  0.93228379  0.62135956  1
  Te  Te107  1  0.05519234  0.93906533  0.93519077  1
  Te  Te108  1  0.39354237  0.25115302  0.26014071  1
  Te  Te109  1  0.40578494  0.24826062  0.59791775  1
  Te  Te110  1  0.42124281  0.24146347  0.89989324  1
  Te  Te111  1  0.41660375  0.58945432  0.22646362  1
  Te  Te112  1  0.40874914  0.57118611  0.57226225  1
  Te  Te113  1  0.44586827  0.61064013  0.94369763  1
  Te  Te114  1  0.40913738  0.90870657  0.27470387  1
  Te  Te115  1  0.43528846  0.88169807  0.60617778  1
  Te  Te116  1  0.41085057  0.91336436  0.91219798  1
  Te  Te117  1  0.75214248  0.23187196  0.27498576  1
  Te  Te118  1  0.79450348  0.22516474  0.60261089  1
  Te  Te119  1  0.74582767  0.23931557  0.91768581  1
  Te  Te120  1  0.76769973  0.56739946  0.25439187  1
  Te  Te121  1  0.74291288  0.58346815  0.59713241  1
  Te  Te122  1  0.76655647  0.56945213  0.91493613  1
  Te  Te123  1  0.73771313  0.90977437  0.27281931  1
  Te  Te124  1  0.76242754  0.92286322  0.59348358  1
  Te  Te125  1  0.76491178  0.91984774  0.86713629  1
  Te  Te126  1  0.24848159  0.27291457  0.07533057  1
  Te  Te127  1  0.24153410  0.26650061  0.44335813  1
  Te  Te128  1  0.26548291  0.28492172  0.72122743  1
  Te  Te129  1  0.23977736  0.58537542  0.07200129  1
  Te  Te130  1  0.24374114  0.59263644  0.39446973  1
  Te  Te131  1  0.27047472  0.60227904  0.73725569  1
  Te  Te132  1  0.25141973  0.93203948  0.07069158  1
  Te  Te133  1  0.25963177  0.90887173  0.44560149  1
  Te  Te134  1  0.24458816  0.90893291  0.77278856  1
  Te  Te135  1  0.56746504  0.24693051  0.06485920  1
  Te  Te136  1  0.58694289  0.25286344  0.42675669  1
  Te  Te137  1  0.60425798  0.23082597  0.74565184  1
  Te  Te138  1  0.61992559  0.56452834  0.08962475  1
  Te  Te139  1  0.59161846  0.57951497  0.38200659  1
  Te  Te140  1  0.57634180  0.60803545  0.77108783  1
  Te  Te141  1  0.57876659  0.90924858  0.07501330  1
  Te  Te142  1  0.58411190  0.92366210  0.42150607  1
  Te  Te143  1  0.58191785  0.90791259  0.72781375  1
  Te  Te144  1  0.92725301  0.24220070  0.12196612  1
  Te  Te145  1  0.91959895  0.25856992  0.44541310  1
  Te  Te146  1  0.92706090  0.26201752  0.75301118  1
  Te  Te147  1  0.92260150  0.52616803  0.07788055  1
  Te  Te148  1  0.91035506  0.57413174  0.40721201  1
  Te  Te149  1  0.92605812  0.57954862  0.75198346  1
  Te  Te150  1  0.89061213  0.92018792  0.08662360  1
  Te  Te151  1  0.92575797  0.94586669  0.45370813  1
  Te  Te152  1  0.88783407  0.96503396  0.78496705  1
  Te  Te153  1  0.23783154  0.08175449  0.22952425  1
  Te  Te154  1  0.25927063  0.07200663  0.58913753  1
  Te  Te155  1  0.23439563  0.09186247  0.91761221  1
  Te  Te156  1  0.23905409  0.41245570  0.26689223  1
  Te  Te157  1  0.21920045  0.41479357  0.54242240  1
  Te  Te158  1  0.25616022  0.43876876  0.89237347  1
  Te  Te159  1  0.23230475  0.74984937  0.23910705  1
  Te  Te160  1  0.25095382  0.74491757  0.59628715  1
  Te  Te161  1  0.24685999  0.74481268  0.91126055  1
  Te  Te162  1  0.57521176  0.07576691  0.21951960  1
  Te  Te163  1  0.58187054  0.08075413  0.56072113  1
  Te  Te164  1  0.60213293  0.08221764  0.90491452  1
  Te  Te165  1  0.57560539  0.40239663  0.24653096  1
  Te  Te166  1  0.58370822  0.40849624  0.60137652  1
  Te  Te167  1  0.57413119  0.41866883  0.91596802  1
  Te  Te168  1  0.57219710  0.75159610  0.22531519  1
  Te  Te169  1  0.58032580  0.72638990  0.59524372  1
  Te  Te170  1  0.62237873  0.76404255  0.89971003  1
  Te  Te171  1  0.93453374  0.05472653  0.27189702  1
  Te  Te172  1  0.94070208  0.03337856  0.57947561  1
  Te  Te173  1  0.89390678  0.08658082  0.89863688  1
  Te  Te174  1  0.95649106  0.42240475  0.28460294  1
  Te  Te175  1  0.92244222  0.42808489  0.56686498  1
  Te  Te176  1  0.89599570  0.41227714  0.95235299  1
  Te  Te177  1  0.90143756  0.75935463  0.26632139  1
  Te  Te178  1  0.91863946  0.75482910  0.58208612  1
  Te  Te179  1  0.92724557  0.74199164  0.94602636  1
