# generated using pymatgen
data_In2Te3
_symmetry_space_group_name_H-M   'P 1'
_cell_length_a   18.98561618
_cell_length_b   18.97653953
_cell_length_c   18.98302591
_cell_angle_alpha   89.94927120
_cell_angle_beta   89.92613536
_cell_angle_gamma   89.94782474
_symmetry_Int_Tables_number   1
_chemical_formula_structural   In2Te3
_chemical_formula_sum   'In72 Te108'
_cell_volume   6839.21798463
_cell_formula_units_Z   36
loop_
 _symmetry_equiv_pos_site_id
 _symmetry_equiv_pos_as_xyz
  1  'x, y, z'
loop_
 _atom_site_type_symbol
 _atom_site_label
 _atom_site_symmetry_multiplicity
 _atom_site_fract_x
 _atom_site_fract_y
 _atom_site_fract_z
 _atom_site_occupancy
  In  In0  1  0.16448396  0.49010103  0.66064321  1
  In  In1  1  0.33702074  0.69940378  0.35123403  1
  In  In2  1  0.82963233  0.65565531  0.52053851  1
  In  In3  1  -0.01176556  0.31320198  0.67261704  1
  In  In4  1  0.49309565  0.14312199  0.65466377  1
  In  In5  1  0.83304051  -0.01075658  0.50785775  1
  In  In6  1  0.01220234  0.67110551  0.67458783  1
  In  In7  1  0.34303363  0.67381684  0.66947820  1
  In  In8  1  0.32819080  0.30602056  -0.00376312  1
  In  In9  1  0.48681136  0.13519534  0.32377573  1
  In  In10  1  0.20061438  0.68342754  0.18621797  1
  In  In11  1  0.65844536  0.69009491  0.64028690  1
  In  In12  1  0.64515079  0.68294191  0.35870466  1
  In  In13  1  0.84010832  0.17279707  0.34058929  1
  In  In14  1  0.66488878  0.33001186  0.34736119  1
  In  In15  1  0.00006310  -0.02931510  0.34084136  1
  In  In16  1  0.80688029  0.52052169  0.33472205  1
  In  In17  1  0.33750472  0.65951414  0.01129468  1
  In  In18  1  0.31657190  0.16819880  0.82640438  1
  In  In19  1  0.00726257  0.03945966  -0.02815529  1
  In  In20  1  0.33700775  0.85246139  0.52938611  1
  In  In21  1  0.15064682  0.15997363  0.34115148  1
  In  In22  1  0.47933848  0.32463227  0.82470911  1
  In  In23  1  0.33067561  0.15657696  0.14733615  1
  In  In24  1  0.33472168  0.50387445  0.85157714  1
  In  In25  1  0.67930645  0.83169186  0.17067398  1
  In  In26  1  0.63920262  0.15089422  0.15863989  1
  In  In27  1  0.16525719  0.47406398  0.00222964  1
  In  In28  1  0.17362559  0.18006400  0.66176489  1
  In  In29  1  0.50409967  -0.01678184  0.82228519  1
  In  In30  1  0.01785769  0.29361720  -0.03703284  1
  In  In31  1  0.67766399  0.85909331  0.82922294  1
  In  In32  1  0.85009237  0.32993728  0.17030920  1
  In  In33  1  0.02598123  0.51444816  0.16273683  1
  In  In34  1  0.48021393  0.32792419  0.46866489  1
  In  In35  1  0.49542860  0.31418759  0.15836195  1
  In  In36  1  0.17386684  0.66579138  0.49288054  1
  In  In37  1  0.50323568  0.51844325  0.64107809  1
  In  In38  1  -0.01726960  0.66625504  -0.00216965  1
  In  In39  1  0.46585210  -0.02818336  0.19621016  1
  In  In40  1  0.83787708  0.48359580  0.66344501  1
  In  In41  1  0.80714435  0.14539727  0.69598940  1
  In  In42  1  -0.00414890  0.69443214  0.34162742  1
  In  In43  1  0.67398914  0.14428192  0.52813623  1
  In  In44  1  0.00732172  0.48477448  0.80436694  1
  In  In45  1  0.85368035  0.48822069  -0.00095381  1
  In  In46  1  0.83802269  0.69039620  0.86791361  1
  In  In47  1  0.17134040  0.00192264  0.17079085  1
  In  In48  1  0.50178694  0.85551276  -0.02727018  1
  In  In49  1  0.66443136  0.33895357  0.66987786  1
  In  In50  1  0.66469683  0.50982102  0.80146765  1
  In  In51  1  0.32054115  0.47480445  0.25297507  1
  In  In52  1  0.68546186  -0.00619548  -0.01240750  1
  In  In53  1  0.85356179  0.84517500  0.67600530  1
  In  In54  1  0.48120193  0.53230826  0.35814977  1
  In  In55  1  0.17462064  0.33822150  0.50990024  1
  In  In56  1  0.49603127  0.48774351  -0.01246354  1
  In  In57  1  0.30376231  0.86191071  0.80405933  1
  In  In58  1  0.15738856  0.86193785  0.00966041  1
  In  In59  1  0.67199143  0.50088797  0.18325275  1
  In  In60  1  0.64291205  0.85019017  0.49522285  1
  In  In61  1  0.00605223  0.83291344  0.16872333  1
  In  In62  1  0.00380793  0.01935543  0.68203674  1
  In  In63  1  -0.01845604  0.17051503  0.14454831  1
  In  In64  1  0.52052659  0.69530186  0.17392535  1
  In  In65  1  0.01294171  0.33764360  0.33696811  1
  In  In66  1  0.83294849  -0.02023715  0.15777970  1
  In  In67  1  0.32669967  0.14961928  0.51552768  1
  In  In68  1  0.16471794  -0.00055717  0.50077110  1
  In  In69  1  0.15278404  0.68755136  0.84056047  1
  In  In70  1  0.67929762  0.68304348  0.01521752  1
  In  In71  1  0.70260635  0.28713859  -0.04666547  1
  Te  Te72  1  0.09712677  0.09867540  0.08126008  1
  Te  Te73  1  0.05655227  0.08137357  0.42849297  1
  Te  Te74  1  0.09087075  0.11022590  0.76417088  1
  Te  Te75  1  0.05853479  0.39569970  0.07413248  1
  Te  Te76  1  0.11110772  0.42783243  0.40518196  1
  Te  Te77  1  0.10211872  0.38319123  0.74920880  1
  Te  Te78  1  0.09451844  0.73366549  0.08305445  1
  Te  Te79  1  0.10645873  0.76428233  0.40707250  1
  Te  Te80  1  0.06158278  0.77528880  0.76730444  1
  Te  Te81  1  0.44651939  0.07999016  0.09881432  1
  Te  Te82  1  0.42618747  0.06229482  0.44338353  1
  Te  Te83  1  0.40214533  0.06607957  0.74606555  1
  Te  Te84  1  0.40746269  0.41171109  0.08223293  1
  Te  Te85  1  0.39257040  0.41388994  0.38069800  1
  Te  Te86  1  0.42053778  0.43816915  0.74588135  1
  Te  Te87  1  0.43069214  0.76250831  0.07275281  1
  Te  Te88  1  0.42687573  0.75692921  0.45249713  1
  Te  Te89  1  0.41207436  0.78349625  0.74144381  1
  Te  Te90  1  0.75655825  0.08902409  0.08401890  1
  Te  Te91  1  0.74935378  0.07678631  0.41365496  1
  Te  Te92  1  0.69975323  0.07572785  0.77293438  1
  Te  Te93  1  0.75008531  0.41448464  0.08580047  1
  Te  Te94  1  0.75687227  0.41355196  0.42287621  1
  Te  Te95  1  0.76480468  0.39999734  0.76608665  1
  Te  Te96  1  0.77382431  0.77658547  0.07260015  1
  Te  Te97  1  0.75143500  0.75473197  0.43786965  1
  Te  Te98  1  0.75656524  0.73935219  0.74915567  1
  Te  Te99  1  0.07727023  0.24406269  0.23910569  1
  Te  Te100  1  0.07319734  0.24117976  0.56716009  1
  Te  Te101  1  0.11855902  0.20182969  0.89459890  1
  Te  Te102  1  0.09584536  0.60414024  0.26142094  1
  Te  Te103  1  0.07774260  0.57905171  0.57478140  1
  Te  Te104  1  0.07558714  0.56925812  0.91983537  1
  Te  Te105  1  0.10639121  0.89865521  0.26194865  1
  Te  Te106  1  0.08475751  0.92137986  0.60085779  1
  Te  Te107  1  0.10757932  0.95186917  0.90666865  1
  Te  Te108  1  0.40685368  0.24261082  0.25600388  1
  Te  Te109  1  0.41441311  0.25393587  0.58365592  1
  Te  Te110  1  0.42868851  0.22226553  0.92242056  1
  Te  Te111  1  0.42205938  0.59548742  0.23481922  1
  Te  Te112  1  0.39016552  0.57763136  0.56764512  1
  Te  Te113  1  0.43422091  0.60246583  0.90857082  1
  Te  Te114  1  0.36843592  0.91683270  0.28990062  1
  Te  Te115  1  0.44322823  0.95494771  0.55121610  1
  Te  Te116  1  0.38906833  0.93541596  0.91167510  1
  Te  Te117  1  0.73951103  0.24548588  0.23649949  1
  Te  Te118  1  0.75979798  0.25026376  0.59212505  1
  Te  Te119  1  0.76560446  0.17483746  0.87075491  1
  Te  Te120  1  0.73333420  0.62201659  0.24757212  1
  Te  Te121  1  0.73287368  0.56347780  0.59044189  1
  Te  Te122  1  0.74841557  0.57189012  0.92091901  1
  Te  Te123  1  0.76883296  0.90198807  0.26294920  1
  Te  Te124  1  0.74201667  0.91118135  0.59959919  1
  Te  Te125  1  0.78431811  0.91552000  0.91180212  1
  Te  Te126  1  0.23776567  0.25966693  0.10073524  1
  Te  Te127  1  0.25276009  0.24057940  0.41949254  1
  Te  Te128  1  0.27691101  0.26522584  0.72415711  1
  Te  Te129  1  0.24541659  0.56827823  0.08952655  1
  Te  Te130  1  0.27355453  0.58541750  0.41889682  1
  Te  Te131  1  0.23882040  0.58828902  0.76357143  1
  Te  Te132  1  0.26379612  0.91946032  0.09001300  1
  Te  Te133  1  0.26161587  0.92188882  0.41829429  1
  Te  Te134  1  0.22117216  0.92202547  0.69737526  1
  Te  Te135  1  0.59177797  0.25470258  0.05896078  1
  Te  Te136  1  0.58279466  0.22080841  0.41869699  1
  Te  Te137  1  0.57396298  0.24121281  0.74110607  1
  Te  Te138  1  0.58017774  0.57652169  0.08013832  1
  Te  Te139  1  0.59786738  0.56758588  0.43660341  1
  Te  Te140  1  0.57172450  0.61158888  0.73992680  1
  Te  Te141  1  0.58853585  0.91718589  0.08377101  1
  Te  Te142  1  0.58134111  0.91207472  0.37809740  1
  Te  Te143  1  0.56391163  0.87756423  0.73867671  1
  Te  Te144  1  0.89709132  0.24953519  0.04850236  1
  Te  Te145  1  0.90242353  0.28056366  0.41537831  1
  Te  Te146  1  0.91783660  0.22233576  0.76901823  1
  Te  Te147  1  0.90497083  0.58746076  0.10113036  1
  Te  Te148  1  0.91573292  0.58593126  0.41737751  1
  Te  Te149  1  0.90729455  0.59072192  0.76089712  1
  Te  Te150  1  0.94755629  0.93337810  0.07228011  1
  Te  Te151  1  0.91113612  0.89408168  0.42677995  1
  Te  Te152  1  0.90116499  0.95090311  0.76654306  1
  Te  Te153  1  0.25700553  0.08545796  0.26356805  1
  Te  Te154  1  0.25377869  0.05373977  0.61730294  1
  Te  Te155  1  0.23125131  0.10864268  0.92908520  1
  Te  Te156  1  0.18729210  0.42230728  0.26788056  1
  Te  Te157  1  0.26906714  0.42563572  0.58125574  1
  Te  Te158  1  0.24496163  0.39316484  0.90249104  1
  Te  Te159  1  0.30351095  0.78338908  0.23199915  1
  Te  Te160  1  0.23703018  0.75526013  0.59811516  1
  Te  Te161  1  0.25687590  0.75688387  0.92456399  1
  Te  Te162  1  0.59225337  0.04642774  0.25912804  1
  Te  Te163  1  0.58113139  0.04384089  0.58673544  1
  Te  Te164  1  0.59427770  0.07350191  0.89975668  1
  Te  Te165  1  0.57477050  0.40951633  0.25445401  1
  Te  Te166  1  0.57034448  0.40222236  0.56908847  1
  Te  Te167  1  0.58895228  0.41217876  0.89402203  1
  Te  Te168  1  0.55632080  0.79005558  0.28858407  1
  Te  Te169  1  0.55124158  0.74594369  0.55445283  1
  Te  Te170  1  0.59688509  0.75378779  0.91190698  1
  Te  Te171  1  0.92115474  0.07874315  0.25032936  1
  Te  Te172  1  0.90505490  0.09219934  0.59047491  1
  Te  Te173  1  0.90812479  0.11145283  0.88590256  1
  Te  Te174  1  0.91807325  0.43884840  0.24995760  1
  Te  Te175  1  0.94178836  0.42125686  0.58399849  1
  Te  Te176  1  0.92527888  0.39988273  0.89945389  1
  Te  Te177  1  0.90561451  0.76333806  0.24792389  1
  Te  Te178  1  0.92883494  0.75491742  0.57942745  1
  Te  Te179  1  0.95047314  0.77712757  0.90621427  1
