# generated using pymatgen
data_In2Te3
_symmetry_space_group_name_H-M   'P 1'
_cell_length_a   19.04796743
_cell_length_b   19.02427997
_cell_length_c   19.04815209
_cell_angle_alpha   90.22152734
_cell_angle_beta   89.97007378
_cell_angle_gamma   90.07184087
_symmetry_Int_Tables_number   1
_chemical_formula_structural   In2Te3
_chemical_formula_sum   'In72 Te108'
_cell_volume   6902.49455341
_cell_formula_units_Z   36
loop_
 _symmetry_equiv_pos_site_id
 _symmetry_equiv_pos_as_xyz
  1  'x, y, z'
loop_
 _atom_site_type_symbol
 _atom_site_label
 _atom_site_symmetry_multiplicity
 _atom_site_fract_x
 _atom_site_fract_y
 _atom_site_fract_z
 _atom_site_occupancy
  In  In0  1  0.00239331  0.48492941  0.85277922  1
  In  In1  1  0.16659534  0.50496380  -0.00098366  1
  In  In2  1  0.66672031  0.82060812  0.81016723  1
  In  In3  1  0.34531585  0.31466903  0.65507866  1
  In  In4  1  -0.01335893  0.31113627  0.33071367  1
  In  In5  1  0.49327367  -0.05120853  0.82704871  1
  In  In6  1  0.83584962  0.50885423  0.34621672  1
  In  In7  1  0.64919602  0.63811148  0.35175898  1
  In  In8  1  0.82025799  0.65150657  0.82173160  1
  In  In9  1  0.68900618  0.00362018  0.33895482  1
  In  In10  1  0.34203610  0.52270052  0.80161702  1
  In  In11  1  0.83537787  0.82365426  0.33293327  1
  In  In12  1  0.82302748  0.83627770  0.00604400  1
  In  In13  1  0.35744288  0.32992795  0.36163265  1
  In  In14  1  0.53747484  0.31842773  0.79820903  1
  In  In15  1  0.17276797  0.16661588  0.34030416  1
  In  In16  1  0.64582941  0.13595534  0.82137148  1
  In  In17  1  0.65716245  0.81807133  0.51013729  1
  In  In18  1  0.00312482  0.35624769  0.02257660  1
  In  In19  1  0.49259583  0.83908834  0.00884655  1
  In  In20  1  -0.01336179  0.83263329  0.49774528  1
  In  In21  1  0.49796012  0.34292134  0.19447037  1
  In  In22  1  0.48222774  0.13564231  -0.01762951  1
  In  In23  1  -0.01659507  0.53290463  0.50204922  1
  In  In24  1  0.34239993  0.66332429  0.35983217  1
  In  In25  1  0.47581438  0.71232965  0.81138929  1
  In  In26  1  0.51356382  0.66176011  0.18364435  1
  In  In27  1  0.84084940  0.67319670  0.17356768  1
  In  In28  1  0.81863950  -0.01298897  0.51444560  1
  In  In29  1  -0.01818764  0.83128111  0.81304645  1
  In  In30  1  0.34949595  0.49402404  0.50544595  1
  In  In31  1  0.66763992  0.66374341  0.65948461  1
  In  In32  1  -0.00229781  -0.00162809  0.01251389  1
  In  In33  1  0.33662671  0.00872857  0.65284242  1
  In  In34  1  0.82900389  0.15265505  0.34402599  1
  In  In35  1  0.17173697  0.50648756  0.33822388  1
  In  In36  1  -0.01370712  0.33455240  0.67124070  1
  In  In37  1  0.82960184  0.18941572  0.00110850  1
  In  In38  1  0.17214586  -0.01898384  0.83153969  1
  In  In39  1  0.51015535  0.31552581  0.50982130  1
  In  In40  1  0.23449054  0.73155674  0.81695034  1
  In  In41  1  0.65756093  0.33138268  -0.00065779  1
  In  In42  1  0.17821057  -0.01855161  0.18675613  1
  In  In43  1  0.51577193  0.51130737  0.62827847  1
  In  In44  1  0.84591822  0.01202537  0.16355685  1
  In  In45  1  -0.00631187  0.17317969  0.48174420  1
  In  In46  1  0.02456356  0.14426475  0.81647642  1
  In  In47  1  0.32281089  0.51320197  0.16893422  1
  In  In48  1  0.15817702  0.83818745  0.34517697  1
  In  In49  1  0.00380758  0.68097431  0.65473586  1
  In  In50  1  0.18407934  0.33444566  0.83756210  1
  In  In51  1  0.83690102  0.33604584  0.16029990  1
  In  In52  1  0.84008375  0.52229630  -0.01154277  1
  In  In53  1  0.32461969  0.82832776  0.51527708  1
  In  In54  1  0.66506817  0.49095399  0.80863959  1
  In  In55  1  0.33324176  0.30610115  0.00378608  1
  In  In56  1  0.32476185  0.15835457  0.82295245  1
  In  In57  1  0.66906088  0.16479595  0.15131667  1
  In  In58  1  0.50102094  0.00883874  0.15881885  1
  In  In59  1  0.66881640  0.35970709  0.35219770  1
  In  In60  1  0.15640037  0.16394862  0.00722617  1
  In  In61  1  0.81833501  0.49437477  0.65734516  1
  In  In62  1  0.84088354  -0.00490499  0.81173063  1
  In  In63  1  0.15565938  0.34958114  0.50985414  1
  In  In64  1  0.00139109  0.68228750  0.02748193  1
  In  In65  1  0.16773809  0.66783440  0.17141135  1
  In  In66  1  0.50246429  0.82220937  0.34247814  1
  In  In67  1  0.48463151  0.53056985  -0.00220680  1
  In  In68  1  0.47339051  0.03781295  0.46024778  1
  In  In69  1  0.17541451  -0.00734472  0.49822212  1
  In  In70  1  0.33378857  0.84357606  0.15458531  1
  In  In71  1  0.82700521  0.18255670  0.64871573  1
  Te  Te72  1  0.08401299  0.07712191  0.10565619  1
  Te  Te73  1  0.07809460  0.07096954  0.40979907  1
  Te  Te74  1  0.09671560  0.05509475  0.72920512  1
  Te  Te75  1  0.10806673  0.41937086  0.10031272  1
  Te  Te76  1  0.06608471  0.42007936  0.41256209  1
  Te  Te77  1  0.08922586  0.41414067  0.75118346  1
  Te  Te78  1  0.09974523  0.76901440  0.08966523  1
  Te  Te79  1  0.11355566  0.75945211  0.46274164  1
  Te  Te80  1  0.09479175  0.75490644  0.75018968  1
  Te  Te81  1  0.39786936  0.08453709  0.08741716  1
  Te  Te82  1  0.38797848  0.10491971  0.36199063  1
  Te  Te83  1  0.42680494  0.07035234  0.75923135  1
  Te  Te84  1  0.41207979  0.41747841  0.08318419  1
  Te  Te85  1  0.46069559  0.43640187  0.41690180  1
  Te  Te86  1  0.43081827  0.40970573  0.73703671  1
  Te  Te87  1  0.41901214  0.73595513  0.09189078  1
  Te  Te88  1  0.43600381  0.74047785  0.44828642  1
  Te  Te89  1  0.36840584  0.78815666  0.73929628  1
  Te  Te90  1  0.75170580  0.07508505  0.06247087  1
  Te  Te91  1  0.73630914  0.09628962  0.44913464  1
  Te  Te92  1  0.74767006  0.07662637  0.72641104  1
  Te  Te93  1  0.75331625  0.42270418  0.07060921  1
  Te  Te94  1  0.73813480  0.45323333  0.44319627  1
  Te  Te95  1  0.75891211  0.39416263  0.75018319  1
  Te  Te96  1  0.75069211  0.73149596  0.07457335  1
  Te  Te97  1  0.74494996  0.73798024  0.41859838  1
  Te  Te98  1  0.77267490  0.75344931  0.72372612  1
  Te  Te99  1  0.10091044  0.26184477  0.25610976  1
  Te  Te100  1  0.07564446  0.24654960  0.58612264  1
  Te  Te101  1  0.07768109  0.25863916  0.91572466  1
  Te  Te102  1  0.08346239  0.59360794  0.26315887  1
  Te  Te103  1  0.08676431  0.57846198  0.59263658  1
  Te  Te104  1  0.07510443  0.59653198  0.92241195  1
  Te  Te105  1  0.07123422  0.90483551  0.25061010  1
  Te  Te106  1  0.10995998  0.87974195  0.57101450  1
  Te  Te107  1  0.06678079  0.90804950  0.91349499  1
  Te  Te108  1  0.41739972  0.23947901  0.25927015  1
  Te  Te109  1  0.41918235  0.21188499  0.57249926  1
  Te  Te110  1  0.42628203  0.25290987  0.88918566  1
  Te  Te111  1  0.42122242  0.57443066  0.26566522  1
  Te  Te112  1  0.39502952  0.59371655  0.60772433  1
  Te  Te113  1  0.40252828  0.61592841  0.90470470  1
  Te  Te114  1  0.42519737  0.91365273  0.25259117  1
  Te  Te115  1  0.42679913  0.92977168  0.56218340  1
  Te  Te116  1  0.39028957  0.91317382  0.92864485  1
  Te  Te117  1  0.75130820  0.24795448  0.24762501  1
  Te  Te118  1  0.72618818  0.28725852  0.62436310  1
  Te  Te119  1  0.72738372  0.23917818  0.90176311  1
  Te  Te120  1  0.74592931  0.58068058  0.24881701  1
  Te  Te121  1  0.73615057  0.57318143  0.56454559  1
  Te  Te122  1  0.72296635  0.58461586  0.91375452  1
  Te  Te123  1  0.75747418  0.91428776  0.23964331  1
  Te  Te124  1  0.71782574  0.92024570  0.59777713  1
  Te  Te125  1  0.74936235  0.91267221  0.89937511  1
  Te  Te126  1  0.23645543  0.25050155  0.09520508  1
  Te  Te127  1  0.24995436  0.25647776  0.43770469  1
  Te  Te128  1  0.23618850  0.23924095  0.73273284  1
  Te  Te129  1  0.25894832  0.60371212  0.06734766  1
  Te  Te130  1  0.24416792  0.58634293  0.44361792  1
  Te  Te131  1  0.22018052  0.59308976  0.76996005  1
  Te  Te132  1  0.23224595  0.90652887  0.06754781  1
  Te  Te133  1  0.27058118  0.91775548  0.40661279  1
  Te  Te134  1  0.26184224  0.90858607  0.73644095  1
  Te  Te135  1  0.56235815  0.24001644  0.07373119  1
  Te  Te136  1  0.58998196  0.25061512  0.40676225  1
  Te  Te137  1  0.59280429  0.21610990  0.70536520  1
  Te  Te138  1  0.58629945  0.57559441  0.08952667  1
  Te  Te139  1  0.54542218  0.56677770  0.42443874  1
  Te  Te140  1  0.56537449  0.59224842  0.75637710  1
  Te  Te141  1  0.58759034  0.91308405  0.09044938  1
  Te  Te142  1  0.58464022  0.92765402  0.41923987  1
  Te  Te143  1  0.58840404  0.90859317  0.72235464  1
  Te  Te144  1  0.93514221  0.24120291  0.09543481  1
  Te  Te145  1  0.88385694  0.26403850  0.43164841  1
  Te  Te146  1  0.91745586  0.23526163  0.76132590  1
  Te  Te147  1  0.93241353  0.56895944  0.09612525  1
  Te  Te148  1  0.91939435  0.61791640  0.40195378  1
  Te  Te149  1  0.92187439  0.56676155  0.74936599  1
  Te  Te150  1  0.92436863  0.89807509  0.09804448  1
  Te  Te151  1  0.91097473  0.93014931  0.41014421  1
  Te  Te152  1  0.93286212  0.93080255  0.71939080  1
  Te  Te153  1  0.26679892  0.07410918  0.26738431  1
  Te  Te154  1  0.25013467  0.09413958  0.57276251  1
  Te  Te155  1  0.24830305  0.07816893  0.92349063  1
  Te  Te156  1  0.26809484  0.41401135  0.26896405  1
  Te  Te157  1  0.25355789  0.42142119  0.59916190  1
  Te  Te158  1  0.27694424  0.42496984  0.91482633  1
  Te  Te159  1  0.26669125  0.75003377  0.26295139  1
  Te  Te160  1  0.29221215  0.72797277  0.61935829  1
  Te  Te161  1  0.27359831  0.81075435  0.93456497  1
  Te  Te162  1  0.59417752  0.08581747  0.25435427  1
  Te  Te163  1  0.53688329  0.11337477  0.56943042  1
  Te  Te164  1  0.57909568  0.04203717  0.91831430  1
  Te  Te165  1  0.60915087  0.42489667  0.23564332  1
  Te  Te166  1  0.60005153  0.39379299  0.60112386  1
  Te  Te167  1  0.56514213  0.42009003  0.91301503  1
  Te  Te168  1  0.60570542  0.75469916  0.25860164  1
  Te  Te169  1  0.56421800  0.74223603  0.59379276  1
  Te  Te170  1  0.57897011  0.75356934  0.91316901  1
  Te  Te171  1  0.92534265  0.09513145  0.25249163  1
  Te  Te172  1  0.91869501  0.08444011  0.57811401  1
  Te  Te173  1  0.91538087  0.08674522  0.91858263  1
  Te  Te174  1  0.91997321  0.42133966  0.25110895  1
  Te  Te175  1  0.91244925  0.41529568  0.56903568  1
  Te  Te176  1  0.89936423  0.39947358  0.92068780  1
  Te  Te177  1  0.93493499  0.73594423  0.26851464  1
  Te  Te178  1  0.89959224  0.74833335  0.57977107  1
  Te  Te179  1  0.90681156  0.73707990  0.91410234  1
