# generated using pymatgen
data_In2Te3
_symmetry_space_group_name_H-M   'P 1'
_cell_length_a   18.78807227
_cell_length_b   18.78244606
_cell_length_c   18.79703958
_cell_angle_alpha   90.00509441
_cell_angle_beta   90.02295148
_cell_angle_gamma   90.02570473
_symmetry_Int_Tables_number   1
_chemical_formula_structural   In2Te3
_chemical_formula_sum   'In72 Te108'
_cell_volume   6633.21001729
_cell_formula_units_Z   36
loop_
 _symmetry_equiv_pos_site_id
 _symmetry_equiv_pos_as_xyz
  1  'x, y, z'
loop_
 _atom_site_type_symbol
 _atom_site_label
 _atom_site_symmetry_multiplicity
 _atom_site_fract_x
 _atom_site_fract_y
 _atom_site_fract_z
 _atom_site_occupancy
  In  In0  1  0.63982360  0.32168722  0.01703803  1
  In  In1  1  0.49118447  0.15850685  0.32539909  1
  In  In2  1  0.49990151  0.66754947  0.17907974  1
  In  In3  1  0.36514350  -0.00976407  0.66100789  1
  In  In4  1  0.65613406  0.65907570  0.65818544  1
  In  In5  1  0.48556876  0.32321007  0.83675164  1
  In  In6  1  0.18709264  0.49597551  0.68569640  1
  In  In7  1  0.49370087  0.51121846  0.32001953  1
  In  In8  1  0.01375684  0.15600085  0.52623099  1
  In  In9  1  0.18500107  0.83962465  0.33821354  1
  In  In10  1  0.82358566  0.84550430  -0.01782377  1
  In  In11  1  0.02358563  0.47447466  0.13703968  1
  In  In12  1  0.81124404  0.50828704  0.32704846  1
  In  In13  1  0.64735812  0.82085326  0.17305365  1
  In  In14  1  0.01242198  0.16845605  0.18316756  1
  In  In15  1  0.32646268  0.84254224  0.16211958  1
  In  In16  1  0.34597197  0.31626491  0.68389236  1
  In  In17  1  0.82573276  0.84378549  0.35486074  1
  In  In18  1  0.47976765  0.84887333  -0.02301653  1
  In  In19  1  0.15754307  0.49473389  0.30825802  1
  In  In20  1  0.85044152  0.83662542  0.67481554  1
  In  In21  1  0.84613728  0.01932905  0.51152583  1
  In  In22  1  0.01882178  0.31271446  0.33849126  1
  In  In23  1  0.01747196  0.67566503  0.00896882  1
  In  In24  1  0.31526123  0.33415293  0.31642533  1
  In  In25  1  0.83378428  0.66622969  0.83362041  1
  In  In26  1  0.17338282  0.17119500  0.67013127  1
  In  In27  1  0.66374573  0.49272567  0.83578247  1
  In  In28  1  0.69521536  0.17626957  0.53890726  1
  In  In29  1  0.66348078  -0.00038056  -0.02499551  1
  In  In30  1  0.49004153  0.31281911  0.50925885  1
  In  In31  1  0.35456307  0.67224834  0.32354308  1
  In  In32  1  0.48331688  0.68972034  0.49704873  1
  In  In33  1  0.63104623  -0.01855707  0.69441093  1
  In  In34  1  0.32108618  0.66576129  -0.03328387  1
  In  In35  1  0.66109508  0.35323942  0.33938807  1
  In  In36  1  -0.02379499  0.46471084  0.52511555  1
  In  In37  1  0.46302104  0.02788982  0.13927689  1
  In  In38  1  0.63452294  -0.02137274  0.33752517  1
  In  In39  1  0.17351294  0.19656697  -0.00488278  1
  In  In40  1  0.84497117  0.32678356  0.81179032  1
  In  In41  1  0.51111829  0.17174808  0.66408684  1
  In  In42  1  0.64825302  0.50791590  0.13979782  1
  In  In43  1  0.02355280  0.80682549  0.14404958  1
  In  In44  1  0.00649941  0.00350761  -0.03348305  1
  In  In45  1  0.84767893  0.64821099  0.17552128  1
  In  In46  1  0.17494359  0.67924486  0.52235833  1
  In  In47  1  0.01414355  0.64810426  0.33685441  1
  In  In48  1  0.83244058  0.68624898  0.52004458  1
  In  In49  1  0.32199194  0.50792252  0.50521864  1
  In  In50  1  0.63054568  0.68474674  0.02115556  1
  In  In51  1  0.83375609  0.48030844  -0.04699112  1
  In  In52  1  0.83553658  0.15258138  -0.00960416  1
  In  In53  1  0.19357955  -0.01143955  0.14809116  1
  In  In54  1  0.65178994  0.84202295  0.49670695  1
  In  In55  1  0.81275030  0.18395865  0.33749329  1
  In  In56  1  0.18350896  0.49041061  -0.01320127  1
  In  In57  1  0.32101638  0.15972940  0.82813177  1
  In  In58  1  0.17234146  0.83859732  0.67084102  1
  In  In59  1  0.35489648  0.68138002  0.71300256  1
  In  In60  1  0.66378753  0.49139760  0.49411767  1
  In  In61  1  0.01548566  0.66234939  0.68540973  1
  In  In62  1  0.33800316  0.00194551  0.33817897  1
  In  In63  1  0.00489241  0.48718944  0.81831129  1
  In  In64  1  0.16872081  -0.01349409  0.81103507  1
  In  In65  1  0.84208938  0.33015578  0.18039999  1
  In  In66  1  0.51377119  0.49036133  0.68402241  1
  In  In67  1  0.01718221  0.00294008  0.68031284  1
  In  In68  1  0.65544746  0.16012375  0.83887922  1
  In  In69  1  0.17009086  0.17008805  0.33230764  1
  In  In70  1  -0.00045689  0.01078435  0.33543185  1
  In  In71  1  0.81262691  0.00656525  0.12344684  1
  Te  Te72  1  0.08413020  0.08014000  0.08183796  1
  Te  Te73  1  0.10142488  0.07350859  0.42857343  1
  Te  Te74  1  0.08104054  0.10703276  0.77368089  1
  Te  Te75  1  0.10477089  0.37860505  0.05550470  1
  Te  Te76  1  0.08449465  0.42141228  0.42208511  1
  Te  Te77  1  0.09041870  0.39667008  0.73851358  1
  Te  Te78  1  0.13688632  0.75342167  0.06023219  1
  Te  Te79  1  0.08647339  0.75297151  0.42066151  1
  Te  Te80  1  0.10641249  0.74483465  0.76782944  1
  Te  Te81  1  0.37120315  0.10956069  0.05762283  1
  Te  Te82  1  0.40911821  0.09573730  0.42964531  1
  Te  Te83  1  0.43634677  0.08430552  0.76226241  1
  Te  Te84  1  0.43491857  0.34492043  0.09076895  1
  Te  Te85  1  0.42138691  0.42048555  0.42270467  1
  Te  Te86  1  0.39134868  0.44295921  0.76132524  1
  Te  Te87  1  0.41716524  0.74716467  0.07529068  1
  Te  Te88  1  0.38663497  0.77500243  0.42447200  1
  Te  Te89  1  0.44194532  0.77347102  0.79411792  1
  Te  Te90  1  0.71703765  0.11197872  0.07703687  1
  Te  Te91  1  0.74043685  0.06994450  0.41241042  1
  Te  Te92  1  0.73368398  0.07405199  0.74700328  1
  Te  Te93  1  0.75937176  0.41875379  0.08294066  1
  Te  Te94  1  0.77324967  0.40172614  0.43038259  1
  Te  Te95  1  0.75524987  0.42427696  0.74312081  1
  Te  Te96  1  0.76453060  0.75173342  0.08893490  1
  Te  Te97  1  0.73356661  0.73901748  0.41572976  1
  Te  Te98  1  0.74344449  0.75227192  0.74572997  1
  Te  Te99  1  0.11562944  0.27029686  0.22840520  1
  Te  Te100  1  0.09660418  0.26413000  0.58199151  1
  Te  Te101  1  0.07067909  0.27600539  0.92736045  1
  Te  Te102  1  0.08501263  0.59333422  0.21362359  1
  Te  Te103  1  0.08402744  0.56839094  0.57867277  1
  Te  Te104  1  0.08538083  0.58048107  0.90952632  1
  Te  Te105  1  0.08435408  0.92115473  0.24434460  1
  Te  Te106  1  0.09466049  0.92574819  0.58084441  1
  Te  Te107  1  0.09646710  0.89995965  0.91153840  1
  Te  Te108  1  0.42535470  0.26207917  0.23832169  1
  Te  Te109  1  0.39261186  0.21640950  0.57616459  1
  Te  Te110  1  0.40150190  0.24067053  0.93008939  1
  Te  Te111  1  0.39197474  0.56374115  0.22079551  1
  Te  Te112  1  0.41936683  0.58343192  0.59528611  1
  Te  Te113  1  0.38730741  0.55153678  0.89445486  1
  Te  Te114  1  0.42803866  0.92067452  0.24353237  1
  Te  Te115  1  0.45676607  0.90888190  0.57606894  1
  Te  Te116  1  0.40182262  0.92864213  0.87704142  1
  Te  Te117  1  0.72257880  0.25341181  0.23668998  1
  Te  Te118  1  0.77958492  0.27229128  0.61007540  1
  Te  Te119  1  0.74659753  0.26682627  0.91983493  1
  Te  Te120  1  0.71948501  0.59688033  0.24422000  1
  Te  Te121  1  0.75808763  0.56992194  0.58709329  1
  Te  Te122  1  0.73519148  0.59988648  0.93355967  1
  Te  Te123  1  0.75248004  0.91915373  0.24286094  1
  Te  Te124  1  0.75358531  0.91688754  0.58366789  1
  Te  Te125  1  0.75212493  0.92637085  0.88192428  1
  Te  Te126  1  0.29437378  0.24543986  0.06963150  1
  Te  Te127  1  0.24717703  0.25820165  0.42213186  1
  Te  Te128  1  0.23379796  0.27331959  0.77652712  1
  Te  Te129  1  0.26591196  0.57910780  0.07487570  1
  Te  Te130  1  0.24206197  0.59115929  0.40561484  1
  Te  Te131  1  0.22798594  0.61850888  0.76260269  1
  Te  Te132  1  0.26977360  0.91420889  0.04250918  1
  Te  Te133  1  0.25670422  0.92309586  0.43500545  1
  Te  Te134  1  0.28967483  0.89987946  0.76704508  1
  Te  Te135  1  0.54023888  0.24206631  0.09371448  1
  Te  Te136  1  0.59643300  0.24171033  0.42398636  1
  Te  Te137  1  0.59515909  0.26795953  0.74640276  1
  Te  Te138  1  0.53641763  0.57111383  0.05870872  1
  Te  Te139  1  0.57574098  0.59193803  0.42024899  1
  Te  Te140  1  0.57297723  0.59920127  0.77247328  1
  Te  Te141  1  0.57711654  0.91947134  0.08110380  1
  Te  Te142  1  0.53752068  0.92501607  0.44036435  1
  Te  Te143  1  0.53568193  0.89984853  0.77846855  1
  Te  Te144  1  0.92053380  0.24160321  0.08532846  1
  Te  Te145  1  0.92092492  0.23802572  0.42789546  1
  Te  Te146  1  0.93092240  0.25086530  0.71636568  1
  Te  Te147  1  0.91565788  0.56649185  0.06449449  1
  Te  Te148  1  0.91050992  0.58177286  0.42767274  1
  Te  Te149  1  0.90457104  0.57123451  0.73750290  1
  Te  Te150  1  0.92914170  0.91633761  0.08218092  1
  Te  Te151  1  0.93149725  0.91762603  0.43622943  1
  Te  Te152  1  0.93146905  0.91759799  0.76692131  1
  Te  Te153  1  0.26200611  0.09084716  0.23901125  1
  Te  Te154  1  0.25191907  0.06603376  0.60142980  1
  Te  Te155  1  0.23222010  0.07717058  0.92078092  1
  Te  Te156  1  0.25163499  0.42532600  0.21840243  1
  Te  Te157  1  0.25595264  0.39994082  0.58480270  1
  Te  Te158  1  0.30083861  0.42831227  0.91582413  1
  Te  Te159  1  0.24434345  0.73997111  0.23981311  1
  Te  Te160  1  0.27991640  0.75687558  0.59761111  1
  Te  Te161  1  0.23551587  0.78634893  0.94030897  1
  Te  Te162  1  0.58126818  0.07631048  0.23426580  1
  Te  Te163  1  0.58949202  0.07436526  0.57752981  1
  Te  Te164  1  0.55850608  0.09047231  0.92504928  1
  Te  Te165  1  0.57088201  0.41347347  0.23232308  1
  Te  Te166  1  0.58909394  0.39804134  0.58994698  1
  Te  Te167  1  0.56517564  0.41912113  0.92651679  1
  Te  Te168  1  0.56261918  0.75927499  0.27646912  1
  Te  Te169  1  0.56385523  0.76881138  0.60286635  1
  Te  Te170  1  0.59174098  0.77300385  0.90975680  1
  Te  Te171  1  0.89673526  0.08509091  0.24759394  1
  Te  Te172  1  0.90564829  0.10054004  0.62301761  1
  Te  Te173  1  0.90966708  0.08047555  0.88600690  1
  Te  Te174  1  0.93133034  0.42722620  0.25903236  1
  Te  Te175  1  0.90685018  0.36916765  0.61713795  1
  Te  Te176  1  0.94693467  0.38100641  0.92329663  1
  Te  Te177  1  0.91817311  0.75427791  0.26322716  1
  Te  Te178  1  0.94856435  0.75894595  0.58668268  1
  Te  Te179  1  0.92775066  0.75664974  0.91253702  1
