# generated using pymatgen
data_In2Te3
_symmetry_space_group_name_H-M   'P 1'
_cell_length_a   19.03669780
_cell_length_b   19.02801734
_cell_length_c   19.02110898
_cell_angle_alpha   89.70187194
_cell_angle_beta   90.25125380
_cell_angle_gamma   90.41947328
_symmetry_Int_Tables_number   1
_chemical_formula_structural   In2Te3
_chemical_formula_sum   'In72 Te108'
_cell_volume   6889.68499754
_cell_formula_units_Z   36
loop_
 _symmetry_equiv_pos_site_id
 _symmetry_equiv_pos_as_xyz
  1  'x, y, z'
loop_
 _atom_site_type_symbol
 _atom_site_label
 _atom_site_symmetry_multiplicity
 _atom_site_fract_x
 _atom_site_fract_y
 _atom_site_fract_z
 _atom_site_occupancy
  In  In0  1  0.14469896  0.51209555  -0.03579644  1
  In  In1  1  0.20523874  0.66076046  0.16186729  1
  In  In2  1  0.50571945  0.33346030  0.52752651  1
  In  In3  1  -0.03395890  0.34179598  0.65438290  1
  In  In4  1  0.34749559  0.85956381  0.82337600  1
  In  In5  1  -0.00120146  -0.00011757  0.65051757  1
  In  In6  1  0.67208895  0.34089210  0.69170502  1
  In  In7  1  0.81458711  0.81955815  0.64277152  1
  In  In8  1  0.35153463  0.32511581  0.33706568  1
  In  In9  1  0.79847938  0.81364170  0.36300121  1
  In  In10  1  0.35775677  0.14242866  0.82304231  1
  In  In11  1  -0.00938527  0.33015691  -0.00667118  1
  In  In12  1  0.81416007  0.70285353  0.17671239  1
  In  In13  1  0.51100495  0.00034602  0.16598912  1
  In  In14  1  0.34905878  0.04206311  0.34058246  1
  In  In15  1  0.83562844  0.16786351  0.32476535  1
  In  In16  1  0.51459675  0.33636483  0.83394910  1
  In  In17  1  0.81494941  0.33743094  0.15971826  1
  In  In18  1  0.81811911  0.82259349  -0.00743169  1
  In  In19  1  -0.01400374  0.15400584  0.17602133  1
  In  In20  1  -0.02451014  0.80330056  0.51207425  1
  In  In21  1  0.81677393  0.49642595  -0.00555964  1
  In  In22  1  0.64187012  0.02187098  0.01657259  1
  In  In23  1  0.18157726  0.00607901  0.16807567  1
  In  In24  1  0.22718316  0.22498294  0.01455811  1
  In  In25  1  0.48331542  0.83852691  0.65110232  1
  In  In26  1  0.35816990  0.18604473  0.51286029  1
  In  In27  1  0.15896615  0.32293215  0.83131236  1
  In  In28  1  0.53044788  0.82299137  0.32056993  1
  In  In29  1  -0.00527304  0.81131713  0.14076470  1
  In  In30  1  0.81707761  0.01891524  0.53670570  1
  In  In31  1  -0.00687058  0.73875991  0.75241205  1
  In  In32  1  0.16220578  0.47613235  0.65997211  1
  In  In33  1  0.67339684  -0.02130228  0.35259213  1
  In  In34  1  0.14392471  0.19332793  0.65855670  1
  In  In35  1  -0.01599136  -0.02632535  0.33334870  1
  In  In36  1  0.35315222  0.67256117  -0.00810604  1
  In  In37  1  0.83486329  0.65206108  0.85360643  1
  In  In38  1  0.65121223  0.83550778  0.83440898  1
  In  In39  1  0.37006116  0.01161384  -0.00776058  1
  In  In40  1  0.82140085  0.18399001  0.67948235  1
  In  In41  1  0.13731067  0.67108168  0.56804818  1
  In  In42  1  0.82120352  0.32971177  0.48021507  1
  In  In43  1  0.32362826  0.49002323  0.51083563  1
  In  In44  1  0.65878076  0.15848040  0.17148559  1
  In  In45  1  0.50159586  0.18442180  -0.00737461  1
  In  In46  1  -0.00195909  -0.01974889  -0.01825019  1
  In  In47  1  0.81132445  0.50509057  0.31866077  1
  In  In48  1  0.20410837  0.82911283  -0.00430196  1
  In  In49  1  -0.00071780  0.48617698  0.13627411  1
  In  In50  1  0.17257194  0.16456732  0.33726723  1
  In  In51  1  0.52487057  0.68079422  0.49944800  1
  In  In52  1  0.14597751  0.84073578  0.36565789  1
  In  In53  1  0.38779802  0.65627987  0.32901981  1
  In  In54  1  0.20095136  0.49791545  0.32513734  1
  In  In55  1  -0.01380526  0.63270133  0.32344420  1
  In  In56  1  0.52746572  0.49654497  0.68541520  1
  In  In57  1  0.03401715  0.33866483  0.32640592  1
  In  In58  1  0.20763251  -0.00219536  0.82480790  1
  In  In59  1  0.83396575  -0.00382987  0.79759432  1
  In  In60  1  -0.01201163  0.17715474  0.80951814  1
  In  In61  1  0.48777568  0.34199007  0.18390387  1
  In  In62  1  0.34980044  0.51325839  0.83754475  1
  In  In63  1  0.69553389  0.33416282  -0.01837431  1
  In  In64  1  -0.02106618  0.63866598  -0.02433976  1
  In  In65  1  0.52617491  0.65021394  0.83137094  1
  In  In66  1  0.35569668  0.80407755  0.18850386  1
  In  In67  1  0.61573340  0.02104495  0.63697638  1
  In  In68  1  0.51335374  0.52557905  0.30888261  1
  In  In69  1  0.16607672  0.01909046  0.49882320  1
  In  In70  1  -0.03500205  0.48147115  0.48550783  1
  In  In71  1  0.33525253  0.66427836  0.64972182  1
  Te  Te72  1  0.07108013  0.06791235  0.08513521  1
  Te  Te73  1  0.06370109  0.08137645  0.40499267  1
  Te  Te74  1  0.08808779  0.07372673  0.75262193  1
  Te  Te75  1  0.10149082  0.40360103  0.06863488  1
  Te  Te76  1  0.09687866  0.43978841  0.41906819  1
  Te  Te77  1  0.06325380  0.40740246  0.75316408  1
  Te  Te78  1  0.10478469  0.73683776  0.07204816  1
  Te  Te79  1  0.07401768  0.71746663  0.42369971  1
  Te  Te80  1  0.12518299  0.75230886  0.69411317  1
  Te  Te81  1  0.42460381  0.10380090  0.09694476  1
  Te  Te82  1  0.43694457  0.07163464  0.45648874  1
  Te  Te83  1  0.41966297  0.04813156  0.73251385  1
  Te  Te84  1  0.42177722  0.38574310  0.06133075  1
  Te  Te85  1  0.42759275  0.42368150  0.42483470  1
  Te  Te86  1  0.41581060  0.41546332  0.74535802  1
  Te  Te87  1  0.44067190  0.74159587  0.08982053  1
  Te  Te88  1  0.42619223  0.76661352  0.42314824  1
  Te  Te89  1  0.42018668  0.73572380  0.75458763  1
  Te  Te90  1  0.75100205  0.09731839  0.07857986  1
  Te  Te91  1  0.74938468  0.09322579  0.42421461  1
  Te  Te92  1  0.72695899  0.07887531  0.73169670  1
  Te  Te93  1  0.72794259  0.44274214  0.10167472  1
  Te  Te94  1  0.73135755  0.40729151  0.39319687  1
  Te  Te95  1  0.72618366  0.44310379  0.78822599  1
  Te  Te96  1  0.72180286  0.73671974  0.06571290  1
  Te  Te97  1  0.69502605  0.73266131  0.43393065  1
  Te  Te98  1  0.76052455  0.75602063  0.77195117  1
  Te  Te99  1  0.09620897  0.24348736  0.22875878  1
  Te  Te100  1  0.05995698  0.27162618  0.56926344  1
  Te  Te101  1  0.08122148  0.22890751  0.92455236  1
  Te  Te102  1  0.09320563  0.57423386  0.23264646  1
  Te  Te103  1  0.04900359  0.55219991  0.59433179  1
  Te  Te104  1  0.07836293  0.60752127  0.87383315  1
  Te  Te105  1  0.08548748  0.90688763  0.23549963  1
  Te  Te106  1  0.07637297  0.91026026  0.55924913  1
  Te  Te107  1  0.11114220  0.91107040  0.90832374  1
  Te  Te108  1  0.45994460  0.23742285  0.28863999  1
  Te  Te109  1  0.43924643  0.24241279  0.62528552  1
  Te  Te110  1  0.40270724  0.25967658  0.90675471  1
  Te  Te111  1  0.38648286  0.55375435  0.22136935  1
  Te  Te112  1  0.43662488  0.57442114  0.58176123  1
  Te  Te113  1  0.44864987  0.56733376  0.93642106  1
  Te  Te114  1  0.41469703  0.92372038  0.26309904  1
  Te  Te115  1  0.39259872  0.94942800  0.61774283  1
  Te  Te116  1  0.43840083  0.90036438  0.93140496  1
  Te  Te117  1  0.73431354  0.25785559  0.25985682  1
  Te  Te118  1  0.73493047  0.25361341  0.57927305  1
  Te  Te119  1  0.76580854  0.25777121  0.88355661  1
  Te  Te120  1  0.72754921  0.61142051  0.25567447  1
  Te  Te121  1  0.74024537  0.70289759  0.57177119  1
  Te  Te122  1  0.73393867  0.61090181  0.95431980  1
  Te  Te123  1  0.74023224  0.89216001  0.25411633  1
  Te  Te124  1  0.71532952  0.91934350  0.58394507  1
  Te  Te125  1  0.75121831  0.93032631  0.90857939  1
  Te  Te126  1  0.31467919  0.29602793  0.11274213  1
  Te  Te127  1  0.24968905  0.25584711  0.42729328  1
  Te  Te128  1  0.25209590  0.23467428  0.75565393  1
  Te  Te129  1  0.25574146  0.57146486  0.05450145  1
  Te  Te130  1  0.27469445  0.59502074  0.41338444  1
  Te  Te131  1  0.25184380  0.57249209  0.73793389  1
  Te  Te132  1  0.27822561  0.91515467  0.09544266  1
  Te  Te133  1  0.25390193  0.93804318  0.40811251  1
  Te  Te134  1  0.26006167  0.91492272  0.71492682  1
  Te  Te135  1  0.59865766  0.26426659  0.07704912  1
  Te  Te136  1  0.55090010  0.23273626  0.42878712  1
  Te  Te137  1  0.56866460  0.24258258  0.73401067  1
  Te  Te138  1  0.52514028  0.59745710  0.17083179  1
  Te  Te139  1  0.60246674  0.59099741  0.41304789  1
  Te  Te140  1  0.62960780  0.57916263  0.75372705  1
  Te  Te141  1  0.60640518  0.91070040  0.10527809  1
  Te  Te142  1  0.57472337  0.90454229  0.43329593  1
  Te  Te143  1  0.56619353  0.92488763  0.74790615  1
  Te  Te144  1  0.90384749  0.24402123  0.08278006  1
  Te  Te145  1  0.92987875  0.25686356  0.40253395  1
  Te  Te146  1  0.88102985  0.28212894  0.78187464  1
  Te  Te147  1  0.90737151  0.60125750  0.10338877  1
  Te  Te148  1  0.88120149  0.59196841  0.42370280  1
  Te  Te149  1  0.85898734  0.52336602  0.78673968  1
  Te  Te150  1  0.90342956  0.91438939  0.08243853  1
  Te  Te151  1  0.89255902  0.91656708  0.44228342  1
  Te  Te152  1  0.93134196  0.89848498  0.73828899  1
  Te  Te153  1  0.26796156  0.11228134  0.23267858  1
  Te  Te154  1  0.24607471  0.10733705  0.58837508  1
  Te  Te155  1  0.24989563  0.08741229  0.94215793  1
  Te  Te156  1  0.25440109  0.38958260  0.24271377  1
  Te  Te157  1  0.25501793  0.38982700  0.59117840  1
  Te  Te158  1  0.24834046  0.41928513  0.90580708  1
  Te  Te159  1  0.23760915  0.75824830  0.27277092  1
  Te  Te160  1  0.25904782  0.75412620  0.56231127  1
  Te  Te161  1  0.26533231  0.74362402  0.89053522  1
  Te  Te162  1  0.58454703  0.07589278  0.27386755  1
  Te  Te163  1  0.57265688  0.12011601  0.53443998  1
  Te  Te164  1  0.57336256  0.09063462  0.90875435  1
  Te  Te165  1  0.59257424  0.41415599  0.25648315  1
  Te  Te166  1  0.61171496  0.42951094  0.58042815  1
  Te  Te167  1  0.60794497  0.42765878  0.90486567  1
  Te  Te168  1  0.59373818  0.71005162  0.25193846  1
  Te  Te169  1  0.58852940  0.73782063  0.62194902  1
  Te  Te170  1  0.56531716  0.75739057  0.92416546  1
  Te  Te171  1  0.89273799  0.05486745  0.24373536  1
  Te  Te172  1  0.92274460  0.11381940  0.58858123  1
  Te  Te173  1  0.91437336  0.07806871  0.89919460  1
  Te  Te174  1  0.92473228  0.41308857  0.24773959  1
  Te  Te175  1  0.86374423  0.43074062  0.58720949  1
  Te  Te176  1  0.92885677  0.44203417  0.91657812  1
  Te  Te177  1  0.92390002  0.76215171  0.27290702  1
  Te  Te178  1  0.92183397  0.71099366  0.61882754  1
  Te  Te179  1  0.93346141  0.76736328  0.91232574  1
