# generated using pymatgen
data_In2Te3
_symmetry_space_group_name_H-M   'P 1'
_cell_length_a   18.75297113
_cell_length_b   18.75024539
_cell_length_c   18.74802623
_cell_angle_alpha   90.04249185
_cell_angle_beta   89.95000367
_cell_angle_gamma   89.96330664
_symmetry_Int_Tables_number   1
_chemical_formula_structural   In2Te3
_chemical_formula_sum   'In72 Te108'
_cell_volume   6592.22799364
_cell_formula_units_Z   36
loop_
 _symmetry_equiv_pos_site_id
 _symmetry_equiv_pos_as_xyz
  1  'x, y, z'
loop_
 _atom_site_type_symbol
 _atom_site_label
 _atom_site_symmetry_multiplicity
 _atom_site_fract_x
 _atom_site_fract_y
 _atom_site_fract_z
 _atom_site_occupancy
  In  In0  1  0.33832649  0.64993022  0.64866123  1
  In  In1  1  0.16544239  0.00086049  0.49955811  1
  In  In2  1  0.00069620  -0.00352078  0.67038618  1
  In  In3  1  0.16186737  0.46722962  0.67395444  1
  In  In4  1  0.17247018  0.83150184  0.34194036  1
  In  In5  1  0.67424557  0.33793016  0.66860605  1
  In  In6  1  0.50434830  0.17203289  0.67272472  1
  In  In7  1  0.49363573  0.32951240  0.82005864  1
  In  In8  1  0.50667250  0.67797200  0.23361577  1
  In  In9  1  0.49707678  0.51260365  0.00961543  1
  In  In10  1  0.81516431  0.68830857  0.48281814  1
  In  In11  1  0.83950039  0.47070274  -0.01299475  1
  In  In12  1  0.68583607  0.83264564  0.83173093  1
  In  In13  1  0.67640530  0.17629576  0.47726730  1
  In  In14  1  0.16916802  0.01450001  0.82993043  1
  In  In15  1  0.67765008  0.00121103  0.67663034  1
  In  In16  1  0.01309810  0.50577391  0.16462272  1
  In  In17  1  0.50860362  -0.00678156  0.47126092  1
  In  In18  1  0.31795221  0.65011736  0.01535936  1
  In  In19  1  0.67887412  0.50832511  0.83919260  1
  In  In20  1  0.82140749  0.14551218  0.01221475  1
  In  In21  1  0.68201447  0.31840645  0.00607015  1
  In  In22  1  0.33368693  0.34935057  0.66583862  1
  In  In23  1  0.34276517  0.01369018  -0.00523323  1
  In  In24  1  0.67405046  0.84448255  0.47712515  1
  In  In25  1  0.82735383  0.67066129  0.18394426  1
  In  In26  1  0.32874742  0.15636182  0.47816939  1
  In  In27  1  0.54235331  -0.00035826  0.18425118  1
  In  In28  1  0.51801385  0.31973285  0.15740791  1
  In  In29  1  0.15075486  0.86188115  0.65743199  1
  In  In30  1  0.17654529  0.31888022  0.50121785  1
  In  In31  1  0.82308881  -0.00250289  0.83689993  1
  In  In32  1  0.55587939  0.02046263  0.86324971  1
  In  In33  1  0.50076737  0.65901833  0.47681535  1
  In  In34  1  0.82951818  0.49456266  0.67919056  1
  In  In35  1  0.18627580  0.50366111  0.32478308  1
  In  In36  1  0.47371908  0.35947307  0.46439946  1
  In  In37  1  0.34702893  0.82435652  0.48732239  1
  In  In38  1  0.00020468  0.16820976  0.50552174  1
  In  In39  1  0.16690284  0.02524819  0.17933433  1
  In  In40  1  0.81308265  0.32360593  0.16263042  1
  In  In41  1  -0.01574712  0.17238603  0.16392169  1
  In  In42  1  0.67151061  0.67922019  0.67608640  1
  In  In43  1  -0.02464378  0.50199617  0.51222090  1
  In  In44  1  0.82469666  0.51255958  0.33714270  1
  In  In45  1  -0.00097578  0.32324386  0.34681495  1
  In  In46  1  0.14468977  0.64743764  0.83088092  1
  In  In47  1  0.85144911  0.32103452  0.50444388  1
  In  In48  1  0.16047756  0.68619190  0.15981790  1
  In  In49  1  -0.02727497  0.66463994  0.65770388  1
  In  In50  1  0.68129331  0.66707266  0.02156839  1
  In  In51  1  0.65924540  0.32318967  0.31785709  1
  In  In52  1  0.33645880  0.80338561  0.82872066  1
  In  In53  1  -0.03824754  0.80718761  0.85975123  1
  In  In54  1  0.83771593  -0.00850656  0.49136817  1
  In  In55  1  0.15718749  0.33002009  0.84014485  1
  In  In56  1  0.16494585  0.49754881  -0.00478881  1
  In  In57  1  0.63835614  0.50015148  0.49245779  1
  In  In58  1  0.35285948  0.83263371  0.18328620  1
  In  In59  1  0.16601802  0.34821796  0.17399508  1
  In  In60  1  0.34209624  0.18672712  0.83173016  1
  In  In61  1  -0.01878408  0.81919638  0.15845219  1
  In  In62  1  0.50407869  0.85172331  0.01584788  1
  In  In63  1  0.16830972  0.65658561  0.47609587  1
  In  In64  1  0.34578893  0.01394461  0.63301392  1
  In  In65  1  0.14121415  0.84607398  0.02102115  1
  In  In66  1  -0.01238357  -0.00065372  0.33645376  1
  In  In67  1  -0.01944026  -0.01143312  0.03020471  1
  In  In68  1  0.34425901  0.17305653  0.17536167  1
  In  In69  1  0.34125102  0.33159358  0.00390849  1
  In  In70  1  -0.01675621  0.20398146  0.82487117  1
  In  In71  1  0.50853349  0.65343596  0.82554602  1
  Te  Te72  1  0.08509232  0.09261847  0.07289635  1
  Te  Te73  1  0.08840009  0.09241350  0.40411685  1
  Te  Te74  1  0.07923620  0.10245319  0.74535028  1
  Te  Te75  1  0.06873631  0.40078499  0.06904409  1
  Te  Te76  1  0.07920545  0.43115480  0.42137878  1
  Te  Te77  1  0.05911189  0.43101186  0.78136861  1
  Te  Te78  1  0.05350916  0.72738520  0.05788289  1
  Te  Te79  1  0.07509516  0.75637362  0.42334429  1
  Te  Te80  1  0.07907593  0.76246251  0.75131430  1
  Te  Te81  1  0.43425139  0.07732141  0.09415976  1
  Te  Te82  1  0.42495423  0.08504841  0.39060865  1
  Te  Te83  1  0.42027780  0.07520677  0.75760809  1
  Te  Te84  1  0.41160626  0.42505735  0.10041605  1
  Te  Te85  1  0.40823552  0.45832934  0.37551174  1
  Te  Te86  1  0.41934213  0.43521942  0.75023422  1
  Te  Te87  1  0.42397948  0.73811518  0.08369740  1
  Te  Te88  1  0.42277490  0.74842299  0.38381416  1
  Te  Te89  1  0.43362957  0.74434270  0.72687370  1
  Te  Te90  1  0.77081199  0.07364605  0.13399860  1
  Te  Te91  1  0.73015330  0.05577731  0.40595911  1
  Te  Te92  1  0.74589324  0.09983903  0.76201500  1
  Te  Te93  1  0.73334028  0.43432396  0.09193384  1
  Te  Te94  1  0.74942229  0.40475305  0.42669645  1
  Te  Te95  1  0.76514016  0.39525516  0.77951554  1
  Te  Te96  1  0.75069596  0.77231142  0.10259223  1
  Te  Te97  1  0.72892854  0.74803210  0.37384546  1
  Te  Te98  1  0.77775511  0.74707896  0.75171600  1
  Te  Te99  1  0.08857064  0.24116920  0.25399775  1
  Te  Te100  1  0.07502837  0.26267700  0.59175073  1
  Te  Te101  1  0.08094587  0.24105957  0.92977889  1
  Te  Te102  1  0.08201570  0.59987730  0.26162486  1
  Te  Te103  1  0.09070900  0.58272255  0.59339944  1
  Te  Te104  1  0.05778424  0.57750702  0.92814356  1
  Te  Te105  1  0.08641062  0.90804797  0.23623157  1
  Te  Te106  1  0.05246821  0.91266514  0.55149751  1
  Te  Te107  1  0.07336567  0.91817888  0.90482252  1
  Te  Te108  1  0.43653881  0.25143010  0.26178586  1
  Te  Te109  1  0.41423301  0.24884766  0.57655120  1
  Te  Te110  1  0.44224237  0.23956497  0.93441115  1
  Te  Te111  1  0.40913391  0.57590751  0.27121874  1
  Te  Te112  1  0.42876228  0.56583160  0.56913101  1
  Te  Te113  1  0.40259344  0.57906159  0.90825878  1
  Te  Te114  1  0.43444446  0.92647135  0.26318994  1
  Te  Te115  1  0.43853950  0.90655573  0.57993929  1
  Te  Te116  1  0.41979524  0.91547365  0.90397968  1
  Te  Te117  1  0.74407341  0.22140735  0.24656461  1
  Te  Te118  1  0.75785772  0.23491681  0.59172166  1
  Te  Te119  1  0.77345455  0.24725387  0.91417455  1
  Te  Te120  1  0.72761679  0.57914819  0.24924086  1
  Te  Te121  1  0.75288131  0.57251084  0.57244429  1
  Te  Te122  1  0.77095867  0.60923827  0.90774765  1
  Te  Te123  1  0.70225624  0.97601445  0.23891666  1
  Te  Te124  1  0.75847757  0.90446554  0.59168646  1
  Te  Te125  1  0.73765845  0.92566088  0.93596927  1
  Te  Te126  1  0.24362055  0.24853520  0.08540605  1
  Te  Te127  1  0.26061369  0.26103622  0.39454618  1
  Te  Te128  1  0.24138119  0.25099020  0.73734122  1
  Te  Te129  1  0.24140663  0.56206480  0.11235004  1
  Te  Te130  1  0.28078471  0.58495040  0.40993546  1
  Te  Te131  1  0.24893209  0.57323501  0.74904582  1
  Te  Te132  1  0.26181243  0.91537183  0.08507840  1
  Te  Te133  1  0.26712084  0.93090689  0.41015435  1
  Te  Te134  1  0.26159180  0.92254874  0.74572470  1
  Te  Te135  1  0.60431226  0.21583487  0.08519377  1
  Te  Te136  1  0.55832662  0.24600282  0.40707476  1
  Te  Te137  1  0.60390141  0.23845853  0.76622774  1
  Te  Te138  1  0.57441199  0.59885489  0.10597317  1
  Te  Te139  1  0.59293619  0.58611452  0.38083492  1
  Te  Te140  1  0.58716578  0.56321650  0.72923428  1
  Te  Te141  1  0.61780055  0.92034264  0.07817391  1
  Te  Te142  1  0.56537158  0.88636909  0.37574011  1
  Te  Te143  1  0.58015065  0.91332244  0.75427528  1
  Te  Te144  1  0.91225022  0.26245841  0.06443461  1
  Te  Te145  1  0.89891002  0.22025991  0.39923544  1
  Te  Te146  1  0.90064026  0.28488282  0.73537336  1
  Te  Te147  1  0.89985691  0.57030821  0.08736516  1
  Te  Te148  1  0.92466818  0.60155751  0.41070745  1
  Te  Te149  1  0.92149602  0.57545585  0.76377724  1
  Te  Te150  1  0.87769106  0.89341055  0.07831132  1
  Te  Te151  1  0.89195820  0.89735203  0.38679905  1
  Te  Te152  1  0.90951937  0.90415359  0.75147315  1
  Te  Te153  1  0.26973518  0.07981929  0.26731681  1
  Te  Te154  1  0.23221335  0.10414593  0.58986453  1
  Te  Te155  1  0.24620523  0.10772618  0.92362665  1
  Te  Te156  1  0.27059152  0.38979079  0.27327512  1
  Te  Te157  1  0.26045950  0.43216762  0.56007664  1
  Te  Te158  1  0.26299917  0.41928348  0.90659902  1
  Te  Te159  1  0.26261858  0.73704980  0.26130841  1
  Te  Te160  1  0.24189415  0.76022969  0.58390658  1
  Te  Te161  1  0.23361769  0.74775501  0.92990969  1
  Te  Te162  1  0.61807383  0.09513119  0.27523080  1
  Te  Te163  1  0.58487448  0.08437736  0.57567924  1
  Te  Te164  1  0.60222246  0.11866787  0.95997418  1
  Te  Te165  1  0.58538719  0.42347591  0.24063796  1
  Te  Te166  1  0.56544245  0.40187255  0.58497322  1
  Te  Te167  1  0.58462275  0.41808639  0.92172420  1
  Te  Te168  1  0.60632966  0.78236211  0.26236498  1
  Te  Te169  1  0.59212096  0.74880577  0.56836531  1
  Te  Te170  1  0.58303923  0.74547093  0.92154162  1
  Te  Te171  1  0.90207903  0.06323236  0.22898761  1
  Te  Te172  1  0.90418832  0.08665469  0.59286539  1
  Te  Te173  1  0.93081896  0.07784016  0.91480840  1
  Te  Te174  1  0.91570385  0.41271227  0.25248650  1
  Te  Te175  1  0.93449063  0.39140653  0.61505867  1
  Te  Te176  1  0.94324054  0.42984337  0.88871861  1
  Te  Te177  1  0.91095291  0.75808376  0.27419428  1
  Te  Te178  1  0.90736080  0.76336928  0.57132222  1
  Te  Te179  1  0.86990572  0.72855151  0.93990076  1
