# generated using pymatgen
data_In2Te3
_symmetry_space_group_name_H-M   'P 1'
_cell_length_a   18.84547084
_cell_length_b   18.84083037
_cell_length_c   18.84955720
_cell_angle_alpha   89.95259492
_cell_angle_beta   89.95299997
_cell_angle_gamma   89.91716413
_symmetry_Int_Tables_number   1
_chemical_formula_structural   In2Te3
_chemical_formula_sum   'In72 Te108'
_cell_volume   6692.79366585
_cell_formula_units_Z   36
loop_
 _symmetry_equiv_pos_site_id
 _symmetry_equiv_pos_as_xyz
  1  'x, y, z'
loop_
 _atom_site_type_symbol
 _atom_site_label
 _atom_site_symmetry_multiplicity
 _atom_site_fract_x
 _atom_site_fract_y
 _atom_site_fract_z
 _atom_site_occupancy
  In  In0  1  0.81674811  0.15681002  0.29607822  1
  In  In1  1  0.83824609  0.52127934  0.67263896  1
  In  In2  1  0.30708426  0.33659501  0.01569063  1
  In  In3  1  0.16830781  0.84460850  0.66960916  1
  In  In4  1  0.85980613  0.15563096  0.67580937  1
  In  In5  1  0.02475471  0.49023431  0.50213035  1
  In  In6  1  0.01296113  0.17817115  0.86338875  1
  In  In7  1  0.49587995  0.66894582  0.16507436  1
  In  In8  1  0.00641138  0.15362655  0.47240456  1
  In  In9  1  0.49581110  0.32328787  0.84672837  1
  In  In10  1  0.49399178  0.15649850  0.00393320  1
  In  In11  1  0.66339060  0.82543033  0.14470706  1
  In  In12  1  0.49456391  0.67778609  0.83228095  1
  In  In13  1  0.46375207  0.83969294  0.33490206  1
  In  In14  1  0.15616179  0.30688881  0.17216210  1
  In  In15  1  -0.00328575  0.83888604  0.50109887  1
  In  In16  1  0.14746785  0.48621487  0.33053330  1
  In  In17  1  0.02926158  0.80240348  0.14889245  1
  In  In18  1  0.35587557  0.69142052  0.31542095  1
  In  In19  1  0.84669749  0.01666262  0.18018680  1
  In  In20  1  0.01057879  -0.00633817  0.67236173  1
  In  In21  1  0.02023773  0.01851589  0.01771117  1
  In  In22  1  0.65832976  0.31898729  0.33443915  1
  In  In23  1  0.16088860  0.49435968  0.01545416  1
  In  In24  1  0.32251475  0.49408855  0.51190191  1
  In  In25  1  0.66804242  0.35133967  0.66382359  1
  In  In26  1  0.64650725  0.16912341  0.48460795  1
  In  In27  1  -0.00698619  0.65332474  0.30855282  1
  In  In28  1  0.81551541  0.32059035  0.48556850  1
  In  In29  1  0.17691252  0.33807593  0.48952775  1
  In  In30  1  0.32951402  0.00617424  0.65992760  1
  In  In31  1  0.51843332  0.50024683  0.66819392  1
  In  In32  1  0.31379158  0.67652079  0.65958405  1
  In  In33  1  -0.00211808  0.48845165  0.13823300  1
  In  In34  1  0.66417300  0.81331610  0.84278881  1
  In  In35  1  -0.00088922  0.01760124  0.31807512  1
  In  In36  1  0.01246086  0.34462980  0.66604150  1
  In  In37  1  0.47770109  0.16330922  0.65198312  1
  In  In38  1  0.51355555  -0.01043395  0.18524902  1
  In  In39  1  0.66257317  0.00029017  0.33799932  1
  In  In40  1  0.83291547  0.82084162  0.00627608  1
  In  In41  1  0.83648313  0.67549503  0.51216105  1
  In  In42  1  0.31432638  0.51164536  0.12269500  1
  In  In43  1  0.34371395  0.48899276  0.83456130  1
  In  In44  1  0.49062767  0.85617664  0.65605844  1
  In  In45  1  0.15022857  0.00492960  0.83936577  1
  In  In46  1  0.68593138  0.15776569  0.16295226  1
  In  In47  1  0.83246282  0.64139287  0.85847208  1
  In  In48  1  0.15474826  0.66791883  0.50620807  1
  In  In49  1  0.69398975  0.20361411  0.84712374  1
  In  In50  1  0.32105882  0.83694427  0.15727835  1
  In  In51  1  0.84301988  0.47673764  0.31108313  1
  In  In52  1  0.51164148  0.49195158  0.33370395  1
  In  In53  1  0.67158702  0.64396202  0.32700580  1
  In  In54  1  0.67645419  0.66587448  0.68270095  1
  In  In55  1  0.14140014  0.49905610  0.67468786  1
  In  In56  1  0.85736662  0.37811500  0.86352120  1
  In  In57  1  0.32730732  0.31326666  0.32311200  1
  In  In58  1  0.19053680  0.86950345  0.34736629  1
  In  In59  1  0.66693856  0.83794703  0.51153075  1
  In  In60  1  0.49394295  -0.01744505  0.85958374  1
  In  In61  1  0.69920669  0.35149234  0.01944275  1
  In  In62  1  0.17089231  0.69227127  0.88263365  1
  In  In63  1  0.49598835  0.32495236  0.19118565  1
  In  In64  1  0.66375284  -0.01186501  0.02194386  1
  In  In65  1  0.33447097  0.14904908  0.50929966  1
  In  In66  1  0.86710296  0.82166608  0.31229285  1
  In  In67  1  0.67993147  0.02232859  0.65585804  1
  In  In68  1  0.00802330  0.84492608  0.83939403  1
  In  In69  1  0.29044681  0.18387606  0.79750694  1
  In  In70  1  0.52053678  0.51295429  -0.00901415  1
  In  In71  1  0.31086039  -0.00841153  -0.00138867  1
  Te  Te72  1  0.11083144  0.11923712  0.07539897  1
  Te  Te73  1  0.10463643  0.05927542  0.41345196  1
  Te  Te74  1  0.08280495  0.10608252  0.74641759  1
  Te  Te75  1  0.07490534  0.35762273  0.05098816  1
  Te  Te76  1  0.05975816  0.38454712  0.40018091  1
  Te  Te77  1  0.05901368  0.42944541  0.77723691  1
  Te  Te78  1  0.09841403  0.71231500  0.05497154  1
  Te  Te79  1  0.07322292  0.74617693  0.40124496  1
  Te  Te80  1  0.09436721  0.74820235  0.75725644  1
  Te  Te81  1  0.41410783  0.06228746  0.08856382  1
  Te  Te82  1  0.39399307  0.05768950  0.40964721  1
  Te  Te83  1  0.41878645  0.08230145  0.77119142  1
  Te  Te84  1  0.42983877  0.41082002  0.07395060  1
  Te  Te85  1  0.40415380  0.41323988  0.41166969  1
  Te  Te86  1  0.42323056  0.40151208  0.73910160  1
  Te  Te87  1  0.39849773  0.73762896  0.07887965  1
  Te  Te88  1  0.41687793  0.74325428  0.43775376  1
  Te  Te89  1  0.40520109  0.76467329  0.74413407  1
  Te  Te90  1  0.77453466  0.08464832  0.06273975  1
  Te  Te91  1  0.75623253  0.08384966  0.42125730  1
  Te  Te92  1  0.76027117  0.08924717  0.76994440  1
  Te  Te93  1  0.79225398  0.45659821  0.07357369  1
  Te  Te94  1  0.73538485  0.42566933  0.41165708  1
  Te  Te95  1  0.75323738  0.43015939  0.76136903  1
  Te  Te96  1  0.72885092  0.72683078  0.05685349  1
  Te  Te97  1  0.76217686  0.75845654  0.40515238  1
  Te  Te98  1  0.77398070  0.75032618  0.75912094  1
  Te  Te99  1  0.10368327  0.21756528  0.27890312  1
  Te  Te100  1  0.07882714  0.24972770  0.56971918  1
  Te  Te101  1  0.11121934  0.25403346  0.94084660  1
  Te  Te102  1  0.09120363  0.57675738  0.22194347  1
  Te  Te103  1  0.05494272  0.60233026  0.59953892  1
  Te  Te104  1  0.09099408  0.57140305  0.90883755  1
  Te  Te105  1  0.08173078  0.90953951  0.24621517  1
  Te  Te106  1  0.10084614  0.93099851  0.56438615  1
  Te  Te107  1  0.09802230  0.90770374  0.94553489  1
  Te  Te108  1  0.40440107  0.21893583  0.23697419  1
  Te  Te109  1  0.41322073  0.26144434  0.56508192  1
  Te  Te110  1  0.39449179  0.23949083  0.92150483  1
  Te  Te111  1  0.40049347  0.56415520  0.24540104  1
  Te  Te112  1  0.41469151  0.58567590  0.59057264  1
  Te  Te113  1  0.40639689  0.59156763  0.92643499  1
  Te  Te114  1  0.38422837  0.94139475  0.25178175  1
  Te  Te115  1  0.40272965  0.92576516  0.55685288  1
  Te  Te116  1  0.39578800  0.88901224  0.92188101  1
  Te  Te117  1  0.76270023  0.28391798  0.21980229  1
  Te  Te118  1  0.74784192  0.23302821  0.59137070  1
  Te  Te119  1  0.79605836  0.26030643  0.94315480  1
  Te  Te120  1  0.77141795  0.58356055  0.23816232  1
  Te  Te121  1  0.73644146  0.57807450  0.57335496  1
  Te  Te122  1  0.76083784  0.55492738  0.95530476  1
  Te  Te123  1  0.74615941  0.91319259  0.24254310  1
  Te  Te124  1  0.75922832  0.91541518  0.59462847  1
  Te  Te125  1  0.74963884  0.91500131  0.91905744  1
  Te  Te126  1  0.27397253  0.22892350  0.11372911  1
  Te  Te127  1  0.23624101  0.22582908  0.40589026  1
  Te  Te128  1  0.23191427  0.29966488  0.73445167  1
  Te  Te129  1  0.22733801  0.62300228  0.07135221  1
  Te  Te130  1  0.23798661  0.57804651  0.41539249  1
  Te  Te131  1  0.24703398  0.58038598  0.75508067  1
  Te  Te132  1  0.21770834  0.91906230  0.08842614  1
  Te  Te133  1  0.28891191  0.94852299  0.42925579  1
  Te  Te134  1  0.25582040  0.92235024  0.76471968  1
  Te  Te135  1  0.58838552  0.25193570  0.07744015  1
  Te  Te136  1  0.55120719  0.25077689  0.40791463  1
  Te  Te137  1  0.58365649  0.23893861  0.74547524  1
  Te  Te138  1  0.59118399  0.57499542  0.10378158  1
  Te  Te139  1  0.56727856  0.59832671  0.41854037  1
  Te  Te140  1  0.59522791  0.57666912  0.77522446  1
  Te  Te141  1  0.55149144  0.89766098  0.06915235  1
  Te  Te142  1  0.57124248  0.91518868  0.42110203  1
  Te  Te143  1  0.58973524  0.92377049  0.75259304  1
  Te  Te144  1  0.89048202  0.24454713  0.14014437  1
  Te  Te145  1  0.90349422  0.23871421  0.39481610  1
  Te  Te146  1  0.91213529  0.27069515  0.76040688  1
  Te  Te147  1  0.90697852  0.57267123  0.05424542  1
  Te  Te148  1  0.91979057  0.57586804  0.41787749  1
  Te  Te149  1  0.93259859  0.57727727  0.76952785  1
  Te  Te150  1  0.92250997  0.91082910  0.09572245  1
  Te  Te151  1  0.91054366  0.92746529  0.40942448  1
  Te  Te152  1  0.91506155  0.92826516  0.76206105  1
  Te  Te153  1  0.18642130  0.11278957  0.21013332  1
  Te  Te154  1  0.23504627  0.10766761  0.61163915  1
  Te  Te155  1  0.23920875  0.10219151  0.91628114  1
  Te  Te156  1  0.24936994  0.41990365  0.23573933  1
  Te  Te157  1  0.24742280  0.40182817  0.61361836  1
  Te  Te158  1  0.23599929  0.41037246  0.90523591  1
  Te  Te159  1  0.23197606  0.75318589  0.25815077  1
  Te  Te160  1  0.25004723  0.77243376  0.56030194  1
  Te  Te161  1  0.28108244  0.78136925  0.91306165  1
  Te  Te162  1  0.58120014  0.10334453  0.26077347  1
  Te  Te163  1  0.56492595  0.07010774  0.56821946  1
  Te  Te164  1  0.60023845  0.09051794  0.91489489  1
  Te  Te165  1  0.60337893  0.42450915  0.23234788  1
  Te  Te166  1  0.57616236  0.40951362  0.56681747  1
  Te  Te167  1  0.60229584  0.40801055  0.91351509  1
  Te  Te168  1  0.58183159  0.76332202  0.25935162  1
  Te  Te169  1  0.57953597  0.74575080  0.59591407  1
  Te  Te170  1  0.58585681  0.73221571  0.93669185  1
  Te  Te171  1  0.95538133  0.12627569  0.20763081  1
  Te  Te172  1  0.92170997  0.06904150  0.57007754  1
  Te  Te173  1  0.92583145  0.07345759  0.91779180  1
  Te  Te174  1  0.94162212  0.39239177  0.23661877  1
  Te  Te175  1  0.90374905  0.41336880  0.57209504  1
  Te  Te176  1  0.93803123  0.44298854  0.97219937  1
  Te  Te177  1  0.90451702  0.72291450  0.20531998  1
  Te  Te178  1  0.91984822  0.75938379  0.59846152  1
  Te  Te179  1  0.93272832  0.74256651  0.92424292  1
