# generated using pymatgen
data_In2Te3
_symmetry_space_group_name_H-M   'P 1'
_cell_length_a   18.77402984
_cell_length_b   18.77657807
_cell_length_c   18.77386552
_cell_angle_alpha   90.02753572
_cell_angle_beta   89.94472698
_cell_angle_gamma   90.03251106
_symmetry_Int_Tables_number   1
_chemical_formula_structural   In2Te3
_chemical_formula_sum   'In72 Te108'
_cell_volume   6618.00867067
_cell_formula_units_Z   36
loop_
 _symmetry_equiv_pos_site_id
 _symmetry_equiv_pos_as_xyz
  1  'x, y, z'
loop_
 _atom_site_type_symbol
 _atom_site_label
 _atom_site_symmetry_multiplicity
 _atom_site_fract_x
 _atom_site_fract_y
 _atom_site_fract_z
 _atom_site_occupancy
  In  In0  1  0.03159941  0.33239455  0.32910572  1
  In  In1  1  0.82260046  0.16710995  -0.02477378  1
  In  In2  1  0.33087768  -0.01094558  0.03067676  1
  In  In3  1  0.32146303  0.01459945  0.33348662  1
  In  In4  1  0.66820484  0.50334258  0.84544413  1
  In  In5  1  0.16404976  -0.00922741  0.82587246  1
  In  In6  1  0.00581732  0.17834613  0.17345953  1
  In  In7  1  0.83859914  0.51368248  0.68244235  1
  In  In8  1  0.64730553  0.50355879  0.51205662  1
  In  In9  1  0.82465434  0.71291990  0.47412003  1
  In  In10  1  0.14169678  0.51309136  0.01855058  1
  In  In11  1  0.18674802  0.83532006  0.00803023  1
  In  In12  1  0.82360929  0.85749934  -0.01212398  1
  In  In13  1  0.50644243  0.47261756  0.67514370  1
  In  In14  1  0.66831482  0.66242309  0.66899270  1
  In  In15  1  0.33490073  0.81927697  0.17397358  1
  In  In16  1  -0.00687665  0.67985322  0.00898642  1
  In  In17  1  0.51684351  0.32616059  0.17370996  1
  In  In18  1  0.83759419  -0.03217308  0.49954344  1
  In  In19  1  0.65865231  0.66447034  -0.01726076  1
  In  In20  1  0.81052924  0.12286832  0.68007585  1
  In  In21  1  0.50256732  0.83527849  0.36080456  1
  In  In22  1  0.19047878  0.32822432  0.49973333  1
  In  In23  1  0.33772369  0.33980138  0.34044106  1
  In  In24  1  0.49730596  0.50693846  -0.00431620  1
  In  In25  1  0.31647711  0.68283482  0.66145062  1
  In  In26  1  0.34268966  0.50472184  0.48293900  1
  In  In27  1  0.33974399  0.32124413  -0.02430239  1
  In  In28  1  0.81766440  0.34126808  0.82001481  1
  In  In29  1  -0.00082974  0.53039493  0.17520095  1
  In  In30  1  0.35385118  0.50517319  0.82740290  1
  In  In31  1  0.02053621  0.13926821  0.48499384  1
  In  In32  1  0.82295224  0.35354039  0.15019230  1
  In  In33  1  0.84174980  0.17224897  0.31529338  1
  In  In34  1  0.17256478  -0.02444832  0.49551408  1
  In  In35  1  0.32321284  0.83481155  0.82580751  1
  In  In36  1  0.66577237  0.84910220  0.17775107  1
  In  In37  1  0.00915749  0.82188685  0.80460526  1
  In  In38  1  0.66711912  0.33058117  0.00243816  1
  In  In39  1  0.00714837  0.33535301  -0.03866351  1
  In  In40  1  0.17501468  0.14173545  0.66948949  1
  In  In41  1  -0.01149179  0.33280276  0.67269671  1
  In  In42  1  0.34482738  0.51330027  0.18302856  1
  In  In43  1  0.49286984  0.15527408  0.33997211  1
  In  In44  1  0.16961817  0.31441667  0.83488221  1
  In  In45  1  0.64948534  0.15067294  0.50198331  1
  In  In46  1  0.18148116  0.50373372  0.63152048  1
  In  In47  1  0.02007409  0.83020755  0.50900300  1
  In  In48  1  0.49265577  0.03500983  0.17165310  1
  In  In49  1  0.00509252  0.52866246  0.50640912  1
  In  In50  1  0.49310120  0.68466446  0.17538860  1
  In  In51  1  0.51757786  0.81871520  -0.01396390  1
  In  In52  1  0.67286069  0.01220557  -0.01466429  1
  In  In53  1  0.18346404  0.32728320  0.16579516  1
  In  In54  1  0.17938614  0.66497291  0.18985575  1
  In  In55  1  0.49147343  0.19082206  0.66693797  1
  In  In56  1  0.66170996  -0.01433611  0.33805173  1
  In  In57  1  0.82045143  0.84033430  0.68040907  1
  In  In58  1  0.83882818  -0.01548546  0.17275324  1
  In  In59  1  -0.00592482  0.50617311  0.83547912  1
  In  In60  1  0.17130737  0.67018966  0.49639986  1
  In  In61  1  -0.01980916  0.01376589  0.00515693  1
  In  In62  1  0.49797506  0.83927204  0.65518879  1
  In  In63  1  0.81235546  0.29758913  0.52057411  1
  In  In64  1  0.33538471  0.16227503  0.84450815  1
  In  In65  1  0.32237536  -0.01876670  0.64861454  1
  In  In66  1  0.50382594  0.66218044  0.49157595  1
  In  In67  1  0.82765218  0.51840644  0.33709352  1
  In  In68  1  0.14820562  0.18293377  0.01426440  1
  In  In69  1  0.52367602  -0.00768449  0.82392103  1
  In  In70  1  0.85385056  0.69604960  0.19052107  1
  In  In71  1  0.65203398  0.33465161  0.33815486  1
  Te  Te72  1  0.08746849  0.07067216  0.09854744  1
  Te  Te73  1  0.10618590  0.06265880  0.39030862  1
  Te  Te74  1  0.06984152  0.07455281  0.74696746  1
  Te  Te75  1  0.06797329  0.40008206  0.09370979  1
  Te  Te76  1  0.09479132  0.42658990  0.43105321  1
  Te  Te77  1  0.09217640  0.42097224  0.74390676  1
  Te  Te78  1  0.09235401  0.75222168  0.09814834  1
  Te  Te79  1  0.07929161  0.74338723  0.40125786  1
  Te  Te80  1  0.08561177  0.71961646  0.73325890  1
  Te  Te81  1  0.41658821  0.10426521  0.06657555  1
  Te  Te82  1  0.42241509  0.06256567  0.43075943  1
  Te  Te83  1  0.40405989  0.06229223  0.74937762  1
  Te  Te84  1  0.40675789  0.41273673  0.08277788  1
  Te  Te85  1  0.44007691  0.42277993  0.40848309  1
  Te  Te86  1  0.42041782  0.38975829  0.76511255  1
  Te  Te87  1  0.40821188  0.74358517  0.06266889  1
  Te  Te88  1  0.40282430  0.74282373  0.41881427  1
  Te  Te89  1  0.42418462  0.74698188  0.75217147  1
  Te  Te90  1  0.75800594  0.08478169  0.09018490  1
  Te  Te91  1  0.76456962  0.08836160  0.41784739  1
  Te  Te92  1  0.73577572  0.05303079  0.78652534  1
  Te  Te93  1  0.73119285  0.44121231  0.07733449  1
  Te  Te94  1  0.76013601  0.40699541  0.42216928  1
  Te  Te95  1  0.72684210  0.42201980  0.72758414  1
  Te  Te96  1  0.74752528  0.76125708  0.08252531  1
  Te  Te97  1  0.73145681  0.77518874  0.38007355  1
  Te  Te98  1  0.74788316  0.74014456  0.76670848  1
  Te  Te99  1  0.12405058  0.22370999  0.26921613  1
  Te  Te100  1  0.08193276  0.24861536  0.58438536  1
  Te  Te101  1  0.06440447  0.21560101  0.88896072  1
  Te  Te102  1  0.09522278  0.57522717  0.27520214  1
  Te  Te103  1  0.07158188  0.61577540  0.61593472  1
  Te  Te104  1  0.08579457  0.60424122  0.91151893  1
  Te  Te105  1  0.01590608  0.89565463  0.26745101  1
  Te  Te106  1  0.07925669  0.93040354  0.60184810  1
  Te  Te107  1  0.07904442  0.91187813  0.92778715  1
  Te  Te108  1  0.41076411  0.24209220  0.24582654  1
  Te  Te109  1  0.38644292  0.26936641  0.60027936  1
  Te  Te110  1  0.44391299  0.24669374  0.90115140  1
  Te  Te111  1  0.41707737  0.60422352  0.27391129  1
  Te  Te112  1  0.41842092  0.58186574  0.59930350  1
  Te  Te113  1  0.42354503  0.60346978  0.91190625  1
  Te  Te114  1  0.43092449  0.91773888  0.24661860  1
  Te  Te115  1  0.40894642  0.90491036  0.55563142  1
  Te  Te116  1  0.41318779  0.92085759  0.91869152  1
  Te  Te117  1  0.74246982  0.25729199  0.23806345  1
  Te  Te118  1  0.71578482  0.23519689  0.62656149  1
  Te  Te119  1  0.72253425  0.24046344  0.88593971  1
  Te  Te120  1  0.75501182  0.59733485  0.23708493  1
  Te  Te121  1  0.76594576  0.58904211  0.56502637  1
  Te  Te122  1  0.76602132  0.59237488  0.91040421  1
  Te  Te123  1  0.77618760  0.89337086  0.28350684  1
  Te  Te124  1  0.73046573  0.91484762  0.58602658  1
  Te  Te125  1  0.74278625  0.92830942  0.88098337  1
  Te  Te126  1  0.27274302  0.23413657  0.08537650  1
  Te  Te127  1  0.26945041  0.23363600  0.41972536  1
  Te  Te128  1  0.26473278  0.24790907  0.73669348  1
  Te  Te129  1  0.25781404  0.58912436  0.08025511  1
  Te  Te130  1  0.24789142  0.58370508  0.40304154  1
  Te  Te131  1  0.24561313  0.57934022  0.75024869  1
  Te  Te132  1  0.23263204  0.92441183  0.12674014  1
  Te  Te133  1  0.24256904  0.89810334  0.38653998  1
  Te  Te134  1  0.22352992  0.89218184  0.72562574  1
  Te  Te135  1  0.59102373  0.23451426  0.08568756  1
  Te  Te136  1  0.56147937  0.25553104  0.43398903  1
  Te  Te137  1  0.61105987  0.24199157  0.73748125  1
  Te  Te138  1  0.58163613  0.58974596  0.09220238  1
  Te  Te139  1  0.58820754  0.57893559  0.40119841  1
  Te  Te140  1  0.57173599  0.58435765  0.75764723  1
  Te  Te141  1  0.57410414  0.92593475  0.08229369  1
  Te  Te142  1  0.57786656  0.93152562  0.44628380  1
  Te  Te143  1  0.60526515  0.92375642  0.71905423  1
  Te  Te144  1  0.91654454  0.24903072  0.06994720  1
  Te  Te145  1  0.92997529  0.25192930  0.41652598  1
  Te  Te146  1  0.90032757  0.23563933  0.74663487  1
  Te  Te147  1  0.89653217  0.58667957  0.08238874  1
  Te  Te148  1  0.92453835  0.61243574  0.40794663  1
  Te  Te149  1  0.92391217  0.60954346  0.75453242  1
  Te  Te150  1  0.93233137  0.89454600  0.09111445  1
  Te  Te151  1  0.94222150  0.91392163  0.40522862  1
  Te  Te152  1  0.92285933  0.92656874  0.74618671  1
  Te  Te153  1  0.22218266  0.09699021  0.26277084  1
  Te  Te154  1  0.26198993  0.08964801  0.55846309  1
  Te  Te155  1  0.23830841  0.07747652  0.93030263  1
  Te  Te156  1  0.24085134  0.43024078  0.26034093  1
  Te  Te157  1  0.29245657  0.39642096  0.59410139  1
  Te  Te158  1  0.23123334  0.42047854  0.92713022  1
  Te  Te159  1  0.24230649  0.76831361  0.28003373  1
  Te  Te160  1  0.25340054  0.77381945  0.56380781  1
  Te  Te161  1  0.24872031  0.74166014  0.91277529  1
  Te  Te162  1  0.60625089  0.09764286  0.25218505  1
  Te  Te163  1  0.56499836  0.07918598  0.59963081  1
  Te  Te164  1  0.56800004  0.09458123  0.92120027  1
  Te  Te165  1  0.58345354  0.43241212  0.25140404  1
  Te  Te166  1  0.57349850  0.39054098  0.57152375  1
  Te  Te167  1  0.56987738  0.40549265  0.90846912  1
  Te  Te168  1  0.59845150  0.74781002  0.26932995  1
  Te  Te169  1  0.59741102  0.75312928  0.57045543  1
  Te  Te170  1  0.61065017  0.76658740  0.88406788  1
  Te  Te171  1  0.93830551  0.06972154  0.25825828  1
  Te  Te172  1  0.91688657  0.07564833  0.57689773  1
  Te  Te173  1  0.89698094  0.06652531  0.89486576  1
  Te  Te174  1  0.92026950  0.41136552  0.25766785  1
  Te  Te175  1  0.91310975  0.42031346  0.57350848  1
  Te  Te176  1  0.89362928  0.42740944  0.92301875  1
  Te  Te177  1  0.96302822  0.75727199  0.27549224  1
  Te  Te178  1  0.91236860  0.75435477  0.58879361  1
  Te  Te179  1  0.91097527  0.75962600  0.90937563  1
