# generated using pymatgen
data_In2Te3
_symmetry_space_group_name_H-M   'P 1'
_cell_length_a   19.04787286
_cell_length_b   19.02871782
_cell_length_c   19.00456307
_cell_angle_alpha   89.96397272
_cell_angle_beta   89.99099433
_cell_angle_gamma   90.09012856
_symmetry_Int_Tables_number   1
_chemical_formula_structural   In2Te3
_chemical_formula_sum   'In72 Te108'
_cell_volume   6888.31929911
_cell_formula_units_Z   36
loop_
 _symmetry_equiv_pos_site_id
 _symmetry_equiv_pos_as_xyz
  1  'x, y, z'
loop_
 _atom_site_type_symbol
 _atom_site_label
 _atom_site_symmetry_multiplicity
 _atom_site_fract_x
 _atom_site_fract_y
 _atom_site_fract_z
 _atom_site_occupancy
  In  In0  1  0.82291426  0.83289092  0.00873808  1
  In  In1  1  0.02472309  0.87180728  0.14786267  1
  In  In2  1  0.51376061  0.47700133  0.65647308  1
  In  In3  1  0.82065232  0.32137332  0.84696668  1
  In  In4  1  0.83462385  0.30691468  0.18413139  1
  In  In5  1  0.82266099  0.31123595  0.49138437  1
  In  In6  1  0.31551240  0.46744019  0.53750728  1
  In  In7  1  0.35009811  0.64928085  0.35089885  1
  In  In8  1  0.83192831  0.82684251  0.67381115  1
  In  In9  1  0.00946286  0.49441349  0.17272242  1
  In  In10  1  0.49104680  -0.00426771  0.15887576  1
  In  In11  1  0.49928004  0.32174768  0.82390408  1
  In  In12  1  0.66955512  0.16115136  0.50138791  1
  In  In13  1  -0.01460960  0.66831626  0.65457373  1
  In  In14  1  0.30236365  0.00779045  0.00349327  1
  In  In15  1  -0.01158837  0.83040348  0.85613956  1
  In  In16  1  -0.01445025  0.84652686  0.52835967  1
  In  In17  1  0.34566685  0.64762481  0.69489114  1
  In  In18  1  0.82420606  0.00307346  0.50815289  1
  In  In19  1  0.19771842  0.49725488  -0.02646939  1
  In  In20  1  0.17519028  0.34281964  0.17094214  1
  In  In21  1  0.33666661  0.82523764  0.48486888  1
  In  In22  1  0.45827853  0.51669822  -0.03897788  1
  In  In23  1  0.34481759  0.81544315  0.16696441  1
  In  In24  1  0.67212992  0.66918319  0.66449713  1
  In  In25  1  0.67756501  0.16774457  0.17407325  1
  In  In26  1  0.52021758  0.19344108  0.33896865  1
  In  In27  1  0.65581963  0.66384515  0.00521251  1
  In  In28  1  0.32474625  0.00198969  0.67954728  1
  In  In29  1  0.68803761  0.51224391  0.20741367  1
  In  In30  1  0.18901665  0.81353843  -0.00693404  1
  In  In31  1  -0.03300977  0.02671854  -0.04015433  1
  In  In32  1  0.83122795  0.81928959  0.33264146  1
  In  In33  1  0.51484579  0.66226513  0.16901672  1
  In  In34  1  0.48359223  0.17287755  0.66910142  1
  In  In35  1  -0.00302178  0.33836974  0.35372191  1
  In  In36  1  0.67494138  -0.02480570  0.33996357  1
  In  In37  1  0.16226754  0.03358648  0.17690427  1
  In  In38  1  0.17103934  0.63671822  0.15090103  1
  In  In39  1  0.34105790  0.33987342  -0.02986185  1
  In  In40  1  0.70042894  0.00519558  -0.01739696  1
  In  In41  1  0.68402459  0.49099807  0.47964695  1
  In  In42  1  0.67828009  0.00222053  0.67985674  1
  In  In43  1  0.14431616  0.18343889  0.33012411  1
  In  In44  1  0.50404297  -0.00742397  0.47519189  1
  In  In45  1  0.01828604  0.48568602  0.82978457  1
  In  In46  1  -0.01302269  0.32577495  -0.00280703  1
  In  In47  1  0.66276805  0.14961631  0.83286095  1
  In  In48  1  0.16300153  0.84289677  0.32197053  1
  In  In49  1  0.83186315  0.51786578  0.03740226  1
  In  In50  1  0.49343445  -0.01041618  0.83807883  1
  In  In51  1  -0.00036846  0.51936560  0.48235694  1
  In  In52  1  0.17082581  0.66932720  0.82339656  1
  In  In53  1  0.34007781  0.33680526  0.32162089  1
  In  In54  1  -0.03868825  0.14204071  0.18630862  1
  In  In55  1  0.67622679  0.82672691  0.18649289  1
  In  In56  1  -0.00380923  0.31974160  0.66170910  1
  In  In57  1  0.85050912  0.49583092  0.67964331  1
  In  In58  1  0.49949820  0.81934634  0.67280922  1
  In  In59  1  0.51351453  0.48915963  0.34070355  1
  In  In60  1  0.68029096  0.49859830  0.82351551  1
  In  In61  1  0.33386771  0.00528823  0.31757332  1
  In  In62  1  0.51495829  0.83596215  -0.01272503  1
  In  In63  1  -0.00719081  0.67041285  0.32189306  1
  In  In64  1  0.16135090  0.01059396  0.83029399  1
  In  In65  1  -0.01058421  0.02895216  0.66245272  1
  In  In66  1  0.32338512  0.19977359  0.50221979  1
  In  In67  1  0.62896043  0.33704001  0.02968729  1
  In  In68  1  0.18838904  0.20457461  0.67376995  1
  In  In69  1  0.17520878  0.67537732  0.50136238  1
  In  In70  1  0.15400013  0.18899591  -0.00148606  1
  In  In71  1  0.15626256  0.86839251  0.66113129  1
  Te  Te72  1  0.06890209  0.08465024  0.06997777  1
  Te  Te73  1  0.05952481  0.07508502  0.37520212  1
  Te  Te74  1  0.08982438  0.10720603  0.74337798  1
  Te  Te75  1  0.08572589  0.42130399  0.06444914  1
  Te  Te76  1  0.09208965  0.42218977  0.42432091  1
  Te  Te77  1  0.09037434  0.41845683  0.72241566  1
  Te  Te78  1  0.09177101  0.74718907  0.08462554  1
  Te  Te79  1  0.07565544  0.76393836  0.42667176  1
  Te  Te80  1  0.07559247  0.76300121  0.73734311  1
  Te  Te81  1  0.39196444  0.07929464  0.09346637  1
  Te  Te82  1  0.41178375  0.09881292  0.41552565  1
  Te  Te83  1  0.40521725  0.09232454  0.76978318  1
  Te  Te84  1  0.40887408  0.42978102  0.06635797  1
  Te  Te85  1  0.41059196  0.42083016  0.42574740  1
  Te  Te86  1  0.41165098  0.41262871  0.74547020  1
  Te  Te87  1  0.42836484  0.73788343  0.07005139  1
  Te  Te88  1  0.43652077  0.74245513  0.42096809  1
  Te  Te89  1  0.42429195  0.74329282  0.77395126  1
  Te  Te90  1  0.76367249  0.09650467  0.07750548  1
  Te  Te91  1  0.75514217  0.09056200  0.39924992  1
  Te  Te92  1  0.77486735  0.07565278  0.76709632  1
  Te  Te93  1  0.75471833  0.40035330  0.09125675  1
  Te  Te94  1  0.74979986  0.39095322  0.38985479  1
  Te  Te95  1  0.74974082  0.39794787  0.73594206  1
  Te  Te96  1  0.75208207  0.73098448  0.09987294  1
  Te  Te97  1  0.73049577  0.71608934  0.35975378  1
  Te  Te98  1  0.75718757  0.73916972  0.76151078  1
  Te  Te99  1  0.06313554  0.25439296  0.21893615  1
  Te  Te100  1  0.08490960  0.23964141  0.57591628  1
  Te  Te101  1  0.07473481  0.26189550  0.89977460  1
  Te  Te102  1  0.09713910  0.57522570  0.26818252  1
  Te  Te103  1  0.08890048  0.58379566  0.58659331  1
  Te  Te104  1  0.08675806  0.58753142  0.91795503  1
  Te  Te105  1  0.06771734  0.96046271  0.27503042  1
  Te  Te106  1  0.08257072  0.95550608  0.56392728  1
  Te  Te107  1  0.08889135  0.91968455  0.92964767  1
  Te  Te108  1  0.44070410  0.26576695  0.24026899  1
  Te  Te109  1  0.42579290  0.27240428  0.57762847  1
  Te  Te110  1  0.43644187  0.23850455  0.92451065  1
  Te  Te111  1  0.42191629  0.57142097  0.24459880  1
  Te  Te112  1  0.41490472  0.57184492  0.58422132  1
  Te  Te113  1  0.37554493  0.60324315  0.87945245  1
  Te  Te114  1  0.42725253  0.90054875  0.26134975  1
  Te  Te115  1  0.41191385  0.92433086  0.58279015  1
  Te  Te116  1  0.39905816  0.91475742  0.92973471  1
  Te  Te117  1  0.72578480  0.26603734  0.27567520  1
  Te  Te118  1  0.76651898  0.22158328  0.59550376  1
  Te  Te119  1  0.71389650  0.25592645  0.92963499  1
  Te  Te120  1  0.78323969  0.60065544  0.27576464  1
  Te  Te121  1  0.76061570  0.57357074  0.58781831  1
  Te  Te122  1  0.75603242  0.58283631  0.92295568  1
  Te  Te123  1  0.77660771  0.93108074  0.23424424  1
  Te  Te124  1  0.73904643  0.90356426  0.58246317  1
  Te  Te125  1  0.76539258  0.90844326  0.89713323  1
  Te  Te126  1  0.25816800  0.25859589  0.07995672  1
  Te  Te127  1  0.23222808  0.27668502  0.41108161  1
  Te  Te128  1  0.30289311  0.29699043  0.70347696  1
  Te  Te129  1  0.27468941  0.56233450  0.08137039  1
  Te  Te130  1  0.25438038  0.56730229  0.43390156  1
  Te  Te131  1  0.23263986  0.56817536  0.73869809  1
  Te  Te132  1  0.24199037  0.91374106  0.11281847  1
  Te  Te133  1  0.24750203  0.92731526  0.41563613  1
  Te  Te134  1  0.25370609  0.90551239  0.77193316  1
  Te  Te135  1  0.56299806  0.23213653  0.10639885  1
  Te  Te136  1  0.57740584  0.26602487  0.45475432  1
  Te  Te137  1  0.59733618  0.24586346  0.73624315  1
  Te  Te138  1  0.59594324  0.55724496  0.09531673  1
  Te  Te139  1  0.59129705  0.58577777  0.41743314  1
  Te  Te140  1  0.58024821  0.57927527  0.74718123  1
  Te  Te141  1  0.60195372  0.91634802  0.08722428  1
  Te  Te142  1  0.60079496  0.89229664  0.43450942  1
  Te  Te143  1  0.59084994  0.90759263  0.75906443  1
  Te  Te144  1  0.89975895  0.22885111  0.07156332  1
  Te  Te145  1  0.92187528  0.23179004  0.41729192  1
  Te  Te146  1  0.92340322  0.24598864  0.77069297  1
  Te  Te147  1  0.92869068  0.59804948  0.10871683  1
  Te  Te148  1  0.89754861  0.58139105  0.39296059  1
  Te  Te149  1  0.92523951  0.59188791  0.76984542  1
  Te  Te150  1  0.91614526  0.93868403  0.07089250  1
  Te  Te151  1  0.90949255  0.91673982  0.41927665  1
  Te  Te152  1  0.92898435  0.91782816  0.74669436  1
  Te  Te153  1  0.26068031  0.11911963  0.25113472  1
  Te  Te154  1  0.25468374  0.09157894  0.58391716  1
  Te  Te155  1  0.24652354  0.10933111  0.90638373  1
  Te  Te156  1  0.25821221  0.43348011  0.24676728  1
  Te  Te157  1  0.21803596  0.37498263  0.60845504  1
  Te  Te158  1  0.23228125  0.38802881  0.88455229  1
  Te  Te159  1  0.24897289  0.73761871  0.25862078  1
  Te  Te160  1  0.25340038  0.76286667  0.59597064  1
  Te  Te161  1  0.27504746  0.71646446  0.92339696  1
  Te  Te162  1  0.57909260  0.06900192  0.26034265  1
  Te  Te163  1  0.57322528  0.07120903  0.59328277  1
  Te  Te164  1  0.57527412  0.07479152  0.93228426  1
  Te  Te165  1  0.60402132  0.40368645  0.26011418  1
  Te  Te166  1  0.60144893  0.40117367  0.56544482  1
  Te  Te167  1  0.57886706  0.42930160  0.91331594  1
  Te  Te168  1  0.58686664  0.74307676  0.26909241  1
  Te  Te169  1  0.58062984  0.74547218  0.57853284  1
  Te  Te170  1  0.58278684  0.73877810  0.90436203  1
  Te  Te171  1  0.85436223  0.07407627  0.25482532  1
  Te  Te172  1  0.89572451  0.10915307  0.58200375  1
  Te  Te173  1  0.89403592  0.10977517  0.86709323  1
  Te  Te174  1  0.91176999  0.41554809  0.25623402  1
  Te  Te175  1  0.91819078  0.41817840  0.56746813  1
  Te  Te176  1  0.90120579  0.42646282  0.92176219  1
  Te  Te177  1  0.93717888  0.77890739  0.23157558  1
  Te  Te178  1  0.89039744  0.73512423  0.56009125  1
  Te  Te179  1  0.92201315  0.74180113  0.94919246  1
