# generated using pymatgen
data_In2Te3
_symmetry_space_group_name_H-M   'P 1'
_cell_length_a   19.00381330
_cell_length_b   19.00335136
_cell_length_c   18.95154381
_cell_angle_alpha   90.10109610
_cell_angle_beta   90.01457597
_cell_angle_gamma   90.10838475
_symmetry_Int_Tables_number   1
_chemical_formula_structural   In2Te3
_chemical_formula_sum   'In72 Te108'
_cell_volume   6844.06427630
_cell_formula_units_Z   36
loop_
 _symmetry_equiv_pos_site_id
 _symmetry_equiv_pos_as_xyz
  1  'x, y, z'
loop_
 _atom_site_type_symbol
 _atom_site_label
 _atom_site_symmetry_multiplicity
 _atom_site_fract_x
 _atom_site_fract_y
 _atom_site_fract_z
 _atom_site_occupancy
  In  In0  1  0.82983124  0.16648940  0.32765611  1
  In  In1  1  0.69657452  -0.00333107  0.63316969  1
  In  In2  1  0.48477373  -0.02547044  0.84304560  1
  In  In3  1  0.37007869  0.51559746  0.52199860  1
  In  In4  1  -0.00413270  0.63928437  0.68559230  1
  In  In5  1  0.02227200  0.49639406  0.86362970  1
  In  In6  1  0.67792748  0.17679931  0.51127387  1
  In  In7  1  0.83371333  0.38701496  0.16040089  1
  In  In8  1  0.33847312  0.33959425  -0.01635010  1
  In  In9  1  0.01049848  0.15956840  0.17415061  1
  In  In10  1  -0.02727745  0.67700019  0.29529906  1
  In  In11  1  0.83403655  0.69686605  0.12513548  1
  In  In12  1  0.69817697  -0.00956979  0.32694000  1
  In  In13  1  0.01133441  0.31340806  -0.01008063  1
  In  In14  1  0.50168718  0.32656525  0.52450779  1
  In  In15  1  0.83906251  0.17061427  0.66856229  1
  In  In16  1  0.65781212  0.82781408  0.17448428  1
  In  In17  1  0.33546967  0.80670372  0.48951028  1
  In  In18  1  0.79506664  0.34579194  0.84563352  1
  In  In19  1  0.14771050  0.84292308  0.28472095  1
  In  In20  1  0.47913437  0.17570994  0.34990291  1
  In  In21  1  0.31566282  -0.01491653  0.30741614  1
  In  In22  1  -0.03270464  0.83454038  0.81686701  1
  In  In23  1  0.65338756  0.67582722  0.01265418  1
  In  In24  1  0.84530083  0.30997727  0.51634417  1
  In  In25  1  0.50803700  0.81252502  0.68331272  1
  In  In26  1  0.68118540  0.67614922  0.68297269  1
  In  In27  1  0.69197116  -0.00311940  -0.01210083  1
  In  In28  1  0.51899668  0.17595928  0.69311230  1
  In  In29  1  -0.00733141  0.48376173  0.47747919  1
  In  In30  1  0.16897953  0.35356756  0.16985374  1
  In  In31  1  0.51183418  0.66568941  0.84208762  1
  In  In32  1  0.14555722  0.68220678  0.51628450  1
  In  In33  1  0.15201259  0.82600169  0.67285028  1
  In  In34  1  0.49997255  0.84244461  0.00979989  1
  In  In35  1  0.15956228  0.15945273  0.35070834  1
  In  In36  1  0.84590332  0.17957014  -0.01631253  1
  In  In37  1  0.15510808  0.69575360  0.15454200  1
  In  In38  1  0.50893553  0.47324305  0.33654780  1
  In  In39  1  0.08617283  -0.08220794  0.10063101  1
  In  In40  1  0.52451954  0.65911999  0.50182784  1
  In  In41  1  0.33763648  -0.02374997  0.66680366  1
  In  In42  1  0.16671040  0.14237926  -0.00719692  1
  In  In43  1  -0.00993857  0.16317711  0.81551329  1
  In  In44  1  0.18125172  0.51525630  0.70780312  1
  In  In45  1  0.13121373  0.00719811  0.80741302  1
  In  In46  1  0.67752484  0.48525132  0.52564339  1
  In  In47  1  0.19945912  0.49796058  -0.00725936  1
  In  In48  1  -0.00507750  0.82556147  0.48621784  1
  In  In49  1  0.68316443  0.35502686  0.31665192  1
  In  In50  1  0.35067858  0.50919371  0.85058152  1
  In  In51  1  0.35163362  0.15617019  0.53744817  1
  In  In52  1  0.17616701  0.00909225  0.50471711  1
  In  In53  1  0.16981393  0.34847176  0.56404936  1
  In  In54  1  0.33216190  0.69708343  0.01064968  1
  In  In55  1  0.82215402  0.53601321  0.32177365  1
  In  In56  1  0.00284665  0.14813368  0.49575243  1
  In  In57  1  0.48696605  0.16219685  -0.00590576  1
  In  In58  1  0.82096295  0.49992294  0.69014623  1
  In  In59  1  0.51594351  0.34562321  0.86686693  1
  In  In60  1  0.31189987  0.30708273  0.32562081  1
  In  In61  1  0.70068925  0.85155645  0.81280488  1
  In  In62  1  0.36716112  0.49113793  0.15300476  1
  In  In63  1  0.48672959  0.02802471  0.17877413  1
  In  In64  1  0.33314404  0.17226602  0.18387233  1
  In  In65  1  0.14406831  0.51673453  0.34481680  1
  In  In66  1  0.52817669  -0.02000476  0.46991282  1
  In  In67  1  0.80613333  0.77393832  0.47923206  1
  In  In68  1  0.33822740  0.85138858  0.15893948  1
  In  In69  1  0.66824618  0.14646446  0.14475637  1
  In  In70  1  0.80929853  0.52320234  0.00006884  1
  In  In71  1  0.34625449  0.64393784  0.33922520  1
  Te  Te72  1  0.05487375  0.07258138  0.06010542  1
  Te  Te73  1  0.07090980  0.04835635  0.40215254  1
  Te  Te74  1  0.03339541  0.06505127  0.71183174  1
  Te  Te75  1  0.08465464  0.42244804  0.06801348  1
  Te  Te76  1  0.10666655  0.39741416  0.42829686  1
  Te  Te77  1  0.08236050  0.41631046  0.75481226  1
  Te  Te78  1  0.05616179  0.76482142  0.06766685  1
  Te  Te79  1  0.08844368  0.73998149  0.38899299  1
  Te  Te80  1  0.07778993  0.73580404  0.76660897  1
  Te  Te81  1  0.38745967  0.07761843  0.07784181  1
  Te  Te82  1  0.39306599  0.06907560  0.41469399  1
  Te  Te83  1  0.41880376  0.07396697  0.75023239  1
  Te  Te84  1  0.44590234  0.40581848  0.06181371  1
  Te  Te85  1  0.40441742  0.40001728  0.42360706  1
  Te  Te86  1  0.44468895  0.43103164  0.77120368  1
  Te  Te87  1  0.43798480  0.74809393  0.10997036  1
  Te  Te88  1  0.44230992  0.74268942  0.40342067  1
  Te  Te89  1  0.41466241  0.75856071  0.78002928  1
  Te  Te90  1  0.78294646  0.07451556  0.08172663  1
  Te  Te91  1  0.76395751  0.08097880  0.43520477  1
  Te  Te92  1  0.74335576  0.08437557  0.73889494  1
  Te  Te93  1  0.72997751  0.41183698  0.05913341  1
  Te  Te94  1  0.77343492  0.41362670  0.42319499  1
  Te  Te95  1  0.71385313  0.44962694  0.77795049  1
  Te  Te96  1  0.74094359  0.79301317  0.05158720  1
  Te  Te97  1  0.70248251  0.73690244  0.38129348  1
  Te  Te98  1  0.77602175  0.72639843  0.78714819  1
  Te  Te99  1  0.09025221  0.26008625  0.25838337  1
  Te  Te100  1  0.05517996  0.25070053  0.59647312  1
  Te  Te101  1  0.09798590  0.23721420  0.89497243  1
  Te  Te102  1  0.07637713  0.58552333  0.23016120  1
  Te  Te103  1  0.08313942  0.56279167  0.58432341  1
  Te  Te104  1  0.10749154  0.59848634  0.93212036  1
  Te  Te105  1  0.02848309  0.90949707  0.23741670  1
  Te  Te106  1  0.08002233  0.91507908  0.57608321  1
  Te  Te107  1  0.06338752  0.91338851  0.90113700  1
  Te  Te108  1  0.43343878  0.27138822  0.24103595  1
  Te  Te109  1  0.40905059  0.26264890  0.62652909  1
  Te  Te110  1  0.40297237  0.23773106  0.89416200  1
  Te  Te111  1  0.44669047  0.58134091  0.24560397  1
  Te  Te112  1  0.43308753  0.61443275  0.60760443  1
  Te  Te113  1  0.42875695  0.59451629  0.95187349  1
  Te  Te114  1  0.43877453  0.91154636  0.26311783  1
  Te  Te115  1  0.42716065  0.90451577  0.56501952  1
  Te  Te116  1  0.39263205  0.89650808  0.92568684  1
  Te  Te117  1  0.75247624  0.25266199  0.22867924  1
  Te  Te118  1  0.73384496  0.27279346  0.61106173  1
  Te  Te119  1  0.72704932  0.23955653  0.92249761  1
  Te  Te120  1  0.74927543  0.59483239  0.20572159  1
  Te  Te121  1  0.76587504  0.59326770  0.58377251  1
  Te  Te122  1  0.74102693  0.61692833  0.90777830  1
  Te  Te123  1  0.77023402  0.91137069  0.22525472  1
  Te  Te124  1  0.77277857  0.87509852  0.59432461  1
  Te  Te125  1  0.78856873  0.94581677  0.88710354  1
  Te  Te126  1  0.24925218  0.25836311  0.08327408  1
  Te  Te127  1  0.25430950  0.23240608  0.44474717  1
  Te  Te128  1  0.17166607  0.27106269  0.68913656  1
  Te  Te129  1  0.25984426  0.58875041  0.10574328  1
  Te  Te130  1  0.24931633  0.58398795  0.43984494  1
  Te  Te131  1  0.25984928  0.61270305  0.78867323  1
  Te  Te132  1  0.23523151  0.90958325  0.07569575  1
  Te  Te133  1  0.24015990  0.89883301  0.41416085  1
  Te  Te134  1  0.24425942  0.90623544  0.76094133  1
  Te  Te135  1  0.56988311  0.23706315  0.08912661  1
  Te  Te136  1  0.59370611  0.26470100  0.41339258  1
  Te  Te137  1  0.60099270  0.24998168  0.78955870  1
  Te  Te138  1  0.56436708  0.56377814  0.04808364  1
  Te  Te139  1  0.60309290  0.56130997  0.41735941  1
  Te  Te140  1  0.59571112  0.57923515  0.75578189  1
  Te  Te141  1  0.58245420  0.94602422  0.09343345  1
  Te  Te142  1  0.62609777  0.88857564  0.40924832  1
  Te  Te143  1  0.58984167  0.93212014  0.72996748  1
  Te  Te144  1  0.91963785  0.26423914  0.10080034  1
  Te  Te145  1  0.92996234  0.24884755  0.40734186  1
  Te  Te146  1  0.90162814  0.27278447  0.76058197  1
  Te  Te147  1  0.91784312  0.58841990  0.07318472  1
  Te  Te148  1  0.92009278  0.60236320  0.41877744  1
  Te  Te149  1  0.91245170  0.57162188  0.79021892  1
  Te  Te150  1  0.95130865  0.87902986  0.02980238  1
  Te  Te151  1  0.87759265  0.89126428  0.42992795  1
  Te  Te152  1  0.89593422  0.86658630  0.69050699  1
  Te  Te153  1  0.22336921  0.08015631  0.23632302  1
  Te  Te154  1  0.24253243  0.08590996  0.61639523  1
  Te  Te155  1  0.23707709  0.07532619  0.88529623  1
  Te  Te156  1  0.25798431  0.43837772  0.26065772  1
  Te  Te157  1  0.28073896  0.44072675  0.61886865  1
  Te  Te158  1  0.24283054  0.40138317  0.88559768  1
  Te  Te159  1  0.26570724  0.74412204  0.25734253  1
  Te  Te160  1  0.25744548  0.73871036  0.60036595  1
  Te  Te161  1  0.22457362  0.70972534  0.91258032  1
  Te  Te162  1  0.59023968  0.09331691  0.27798988  1
  Te  Te163  1  0.56426708  0.09167979  0.56663827  1
  Te  Te164  1  0.57877227  0.06822219  0.91632292  1
  Te  Te165  1  0.60175199  0.43727334  0.22880997  1
  Te  Te166  1  0.57312638  0.42322373  0.60695471  1
  Te  Te167  1  0.58853317  0.44217091  0.96030251  1
  Te  Te168  1  0.63880197  0.69820335  0.24418096  1
  Te  Te169  1  0.60509246  0.76062423  0.58173611  1
  Te  Te170  1  0.59332768  0.78439313  0.90538132  1
  Te  Te171  1  0.91799246  0.07685438  0.25243724  1
  Te  Te172  1  0.91552222  0.07165045  0.58777670  1
  Te  Te173  1  0.90645561  0.07419975  0.90005287  1
  Te  Te174  1  0.91823904  0.43743947  0.26717966  1
  Te  Te175  1  0.91278175  0.42363678  0.59067716  1
  Te  Te176  1  0.90930465  0.40829064  0.92954353  1
  Te  Te177  1  0.87777869  0.77656326  0.24430653  1
  Te  Te178  1  0.92807854  0.74083482  0.59724536  1
  Te  Te179  1  0.93373076  0.75947239  0.94297359  1
