# generated using pymatgen
data_In2Te3
_symmetry_space_group_name_H-M   'P 1'
_cell_length_a   18.84431486
_cell_length_b   18.84949100
_cell_length_c   18.85001156
_cell_angle_alpha   89.95203133
_cell_angle_beta   90.00117883
_cell_angle_gamma   89.99887529
_symmetry_Int_Tables_number   1
_chemical_formula_structural   In2Te3
_chemical_formula_sum   'In72 Te108'
_cell_volume   6695.63002112
_cell_formula_units_Z   36
loop_
 _symmetry_equiv_pos_site_id
 _symmetry_equiv_pos_as_xyz
  1  'x, y, z'
loop_
 _atom_site_type_symbol
 _atom_site_label
 _atom_site_symmetry_multiplicity
 _atom_site_fract_x
 _atom_site_fract_y
 _atom_site_fract_z
 _atom_site_occupancy
  In  In0  1  0.65451283  0.32542906  0.32763093  1
  In  In1  1  -0.02551865  0.15807097  0.16393977  1
  In  In2  1  0.80942655  -0.02175025  0.16559044  1
  In  In3  1  0.51931489  0.49156332  0.32131589  1
  In  In4  1  0.50749264  0.16724472  0.34656004  1
  In  In5  1  0.35944306  0.00327930  0.00251584  1
  In  In6  1  0.79625790  0.51262597  0.30786921  1
  In  In7  1  0.50413643  0.50268777  0.00805970  1
  In  In8  1  0.80502886  0.81228107  0.02199065  1
  In  In9  1  -0.01177436  0.51903084  0.81254500  1
  In  In10  1  0.00111788  0.00726640  -0.03787361  1
  In  In11  1  0.85011350  -0.00181931  0.83478365  1
  In  In12  1  0.67030898  0.15826632  0.84476016  1
  In  In13  1  0.18200546  0.82383654  -0.00254562  1
  In  In14  1  0.83106990  0.32478581  0.82270674  1
  In  In15  1  -0.01029644  0.33017094  0.00696469  1
  In  In16  1  0.18366829  0.33315958  0.80356814  1
  In  In17  1  0.66764849  0.35056851  0.64837386  1
  In  In18  1  0.14885493  0.50502973  0.35682262  1
  In  In19  1  0.33421734  0.50037575  0.81438936  1
  In  In20  1  0.51516812  0.81940719  -0.02537709  1
  In  In21  1  0.53223747  0.16974152  0.00440923  1
  In  In22  1  0.35394984  0.79650396  0.79162707  1
  In  In23  1  -0.00731961  0.50434278  0.17176812  1
  In  In24  1  0.83585937  0.33413593  0.50463694  1
  In  In25  1  0.14309652  0.01813026  0.21293346  1
  In  In26  1  0.34240776  0.32197322  0.33093616  1
  In  In27  1  0.33612225  0.85364342  0.16866578  1
  In  In28  1  0.50755078  0.66671726  0.50949094  1
  In  In29  1  0.14891037  0.34762453  0.16752807  1
  In  In30  1  0.11567048  0.82460565  0.41324156  1
  In  In31  1  0.17492410  0.66626113  0.17570761  1
  In  In32  1  0.32638117  0.81098561  0.52478686  1
  In  In33  1  -0.00500434  0.16003420  0.80187742  1
  In  In34  1  0.33707673  0.34983255  -0.00462868  1
  In  In35  1  0.84929001  0.66313345  0.52092040  1
  In  In36  1  0.49540744  0.16681512  0.66182773  1
  In  In37  1  0.69688120  0.15221423  0.47196664  1
  In  In38  1  0.66831765  0.52682126  0.52148481  1
  In  In39  1  0.83185546  0.67121777  0.81373310  1
  In  In40  1  -0.00622706  0.16965317  0.53974720  1
  In  In41  1  0.14004963  -0.02322313  0.52472078  1
  In  In42  1  0.33314988  -0.00514357  0.64369917  1
  In  In43  1  0.49266711  0.34634437  0.83918893  1
  In  In44  1  0.16010819  0.00930026  0.80384759  1
  In  In45  1  -0.01751891  -0.03161503  0.34130897  1
  In  In46  1  0.50519359  -0.00694530  0.50499435  1
  In  In47  1  0.33155901  0.33281891  0.68589081  1
  In  In48  1  0.53349484  0.68164267  0.18294888  1
  In  In49  1  0.16848749  0.16773801  0.35236863  1
  In  In50  1  0.83599979  0.82657645  0.35553499  1
  In  In51  1  0.34205686  -0.00176554  0.34027319  1
  In  In52  1  -0.03864079  0.81581893  0.17273236  1
  In  In53  1  0.52301080  0.01069366  0.17091538  1
  In  In54  1  0.68107645  -0.02615223  0.67699468  1
  In  In55  1  0.80735732  0.48819383  0.02553083  1
  In  In56  1  0.34175182  0.67303890  0.35642243  1
  In  In57  1  0.34135633  0.67589382  -0.01855303  1
  In  In58  1  0.15490377  0.51491571  0.66930380  1
  In  In59  1  -0.01007372  0.65226046  -0.02305155  1
  In  In60  1  0.67343026  0.17289738  0.18469444  1
  In  In61  1  0.17668803  0.18239497  -0.00247748  1
  In  In62  1  0.31499443  0.18599633  0.80265419  1
  In  In63  1  -0.00943612  0.48396205  0.50858085  1
  In  In64  1  0.66512341  0.83598719  0.51029107  1
  In  In65  1  0.34073262  0.49990099  0.14770927  1
  In  In66  1  0.33093533  0.51377721  0.50666161  1
  In  In67  1  0.65552859  0.53059162  0.81921314  1
  In  In68  1  -0.00331366  0.81388955  0.78878906  1
  In  In69  1  0.65994491  0.00493486  -0.00433037  1
  In  In70  1  -0.01855521  0.35505997  0.33930317  1
  In  In71  1  0.66218003  0.80384335  0.81012395  1
  Te  Te72  1  0.08154923  0.08860211  0.07287938  1
  Te  Te73  1  0.07022974  0.07164796  0.41894259  1
  Te  Te74  1  0.05666839  0.05787697  0.70534186  1
  Te  Te75  1  0.08135823  0.43835585  0.06637942  1
  Te  Te76  1  0.09173143  0.39061935  0.43766094  1
  Te  Te77  1  0.06855528  0.41000084  0.73891663  1
  Te  Te78  1  0.07864989  0.74626469  0.08085283  1
  Te  Te79  1  0.03467462  0.70726376  0.45464948  1
  Te  Te80  1  0.10356676  0.74236216  0.71275895  1
  Te  Te81  1  0.42702205  0.10241579  0.09562539  1
  Te  Te82  1  0.41036187  0.09304272  0.43766265  1
  Te  Te83  1  0.40869503  0.07765613  0.75004341  1
  Te  Te84  1  0.44014242  0.39640436  0.09794175  1
  Te  Te85  1  0.41771470  0.42738628  0.41411535  1
  Te  Te86  1  0.44154318  0.43478227  0.72776865  1
  Te  Te87  1  0.41863703  0.74989005  0.09168618  1
  Te  Te88  1  0.43750190  0.76953611  0.41959138  1
  Te  Te89  1  0.45920996  0.71116590  0.73107010  1
  Te  Te90  1  0.75256161  0.08952203  0.07900982  1
  Te  Te91  1  0.79473139  0.08411465  0.38785262  1
  Te  Te92  1  0.76050375  0.08629876  0.74731170  1
  Te  Te93  1  0.71752324  0.40246674  0.10586929  1
  Te  Te94  1  0.73654024  0.41903521  0.42481746  1
  Te  Te95  1  0.74864759  0.43229864  0.74782204  1
  Te  Te96  1  0.73008721  0.73407246  0.12166839  1
  Te  Te97  1  0.74482405  0.73020898  0.43235020  1
  Te  Te98  1  0.78068729  0.77913313  0.72721881  1
  Te  Te99  1  0.07009055  0.24829592  0.25212930  1
  Te  Te100  1  0.09019165  0.25780177  0.60205197  1
  Te  Te101  1  0.08370077  0.25347188  0.90030083  1
  Te  Te102  1  0.07051085  0.59789989  0.26424627  1
  Te  Te103  1  0.07229341  0.59376233  0.57059351  1
  Te  Te104  1  0.08980146  0.59673832  0.88617154  1
  Te  Te105  1  0.07970572  0.88387925  0.25808582  1
  Te  Te106  1  0.10069657  0.85004640  0.59496948  1
  Te  Te107  1  0.08851240  0.90100765  0.89526921  1
  Te  Te108  1  0.44961098  0.26317106  0.25046622  1
  Te  Te109  1  0.40790996  0.25615668  0.58601989  1
  Te  Te110  1  0.41055028  0.23866684  0.91759212  1
  Te  Te111  1  0.41382326  0.58914382  0.24812758  1
  Te  Te112  1  0.40038973  0.61033488  0.59823969  1
  Te  Te113  1  0.43025485  0.58326102  0.90126332  1
  Te  Te114  1  0.44124853  0.91482428  0.25965750  1
  Te  Te115  1  0.43465148  0.89163766  0.59584959  1
  Te  Te116  1  0.39945859  0.89234863  0.90846117  1
  Te  Te117  1  0.76439451  0.23600748  0.28387533  1
  Te  Te118  1  0.75197263  0.23650856  0.58703624  1
  Te  Te119  1  0.74242380  0.26075391  0.92107795  1
  Te  Te120  1  0.72732170  0.61450133  0.22341324  1
  Te  Te121  1  0.76252808  0.59046744  0.61770640  1
  Te  Te122  1  0.75734169  0.59006490  0.91712215  1
  Te  Te123  1  0.73456117  0.89165589  0.26023380  1
  Te  Te124  1  0.76577977  0.93329659  0.56241903  1
  Te  Te125  1  0.75113073  0.91222485  0.91669162  1
  Te  Te126  1  0.25591960  0.26378053  0.09769726  1
  Te  Te127  1  0.25240043  0.26007196  0.42836430  1
  Te  Te128  1  0.20196953  0.21605391  0.70379225  1
  Te  Te129  1  0.24724834  0.58813773  0.06606261  1
  Te  Te130  1  0.23105234  0.60678797  0.43642684  1
  Te  Te131  1  0.26694828  0.59744721  0.72422975  1
  Te  Te132  1  0.24057028  0.93758447  0.08329692  1
  Te  Te133  1  0.25040687  0.90766665  0.42275050  1
  Te  Te134  1  0.25670302  0.90992180  0.74437112  1
  Te  Te135  1  0.61318777  0.26602726  0.08273312  1
  Te  Te136  1  0.58578504  0.25433904  0.44423096  1
  Te  Te137  1  0.58550973  0.25832543  0.75427339  1
  Te  Te138  1  0.59542426  0.59331438  0.08272653  1
  Te  Te139  1  0.59219381  0.59454169  0.40354778  1
  Te  Te140  1  0.58891396  0.62257905  0.72037687  1
  Te  Te141  1  0.58577915  0.90422458  0.08167416  1
  Te  Te142  1  0.60001736  0.92948948  0.41411467  1
  Te  Te143  1  0.57643317  0.91205043  0.75928183  1
  Te  Te144  1  0.89463045  0.25766391  0.09132212  1
  Te  Te145  1  0.92372403  0.24074843  0.42137890  1
  Te  Te146  1  0.91590263  0.25623802  0.72218474  1
  Te  Te147  1  0.90251054  0.59303035  0.08653993  1
  Te  Te148  1  0.89372851  0.55934770  0.41444715  1
  Te  Te149  1  0.92054314  0.60607240  0.71345318  1
  Te  Te150  1  0.92374147  0.92796328  0.07506943  1
  Te  Te151  1  0.91167585  0.90808905  0.46066630  1
  Te  Te152  1  0.92488556  0.92806966  0.72449822  1
  Te  Te153  1  0.26622387  0.09917102  0.25434503  1
  Te  Te154  1  0.24440755  0.07594208  0.55936585  1
  Te  Te155  1  0.24987433  0.07881976  0.91164766  1
  Te  Te156  1  0.24108830  0.43776901  0.25214921  1
  Te  Te157  1  0.24657635  0.41948357  0.59048720  1
  Te  Te158  1  0.23943940  0.42791271  0.91116778  1
  Te  Te159  1  0.25736546  0.76045319  0.26121034  1
  Te  Te160  1  0.22779775  0.74602178  0.61590287  1
  Te  Te161  1  0.24229566  0.73964400  0.88669802  1
  Te  Te162  1  0.60709585  0.07264809  0.28033010  1
  Te  Te163  1  0.59878022  0.08310900  0.58717882  1
  Te  Te164  1  0.56031030  0.06381847  0.89741065  1
  Te  Te165  1  0.62088834  0.43441474  0.22515138  1
  Te  Te166  1  0.56836518  0.43715235  0.58296193  1
  Te  Te167  1  0.59706538  0.42399573  0.91508182  1
  Te  Te168  1  0.62982776  0.76734297  0.25497741  1
  Te  Te169  1  0.59944093  0.73752335  0.60653903  1
  Te  Te170  1  0.60491686  0.71946282  0.91706929  1
  Te  Te171  1  0.89563663  0.07115549  0.26521534  1
  Te  Te172  1  0.93362527  0.05431542  0.60823626  1
  Te  Te173  1  0.90577510  0.11520494  0.91840591  1
  Te  Te174  1  0.88808624  0.41267067  0.23485311  1
  Te  Te175  1  0.90668367  0.41278827  0.60687110  1
  Te  Te176  1  0.91097740  0.42917248  0.91937523  1
  Te  Te177  1  0.90234482  0.72458146  0.26955842  1
  Te  Te178  1  0.94098597  0.77914685  0.55469308  1
  Te  Te179  1  0.91438745  0.77016972  0.91652670  1
