# generated using pymatgen
data_In2Te3
_symmetry_space_group_name_H-M   'P 1'
_cell_length_a   18.99582027
_cell_length_b   18.97330635
_cell_length_c   18.97884706
_cell_angle_alpha   89.98985287
_cell_angle_beta   89.98424413
_cell_angle_gamma   90.15133189
_symmetry_Int_Tables_number   1
_chemical_formula_structural   In2Te3
_chemical_formula_sum   'In72 Te108'
_cell_volume   6840.20879755
_cell_formula_units_Z   36
loop_
 _symmetry_equiv_pos_site_id
 _symmetry_equiv_pos_as_xyz
  1  'x, y, z'
loop_
 _atom_site_type_symbol
 _atom_site_label
 _atom_site_symmetry_multiplicity
 _atom_site_fract_x
 _atom_site_fract_y
 _atom_site_fract_z
 _atom_site_occupancy
  In  In0  1  0.32839260  0.32017358  0.65412880  1
  In  In1  1  0.15855685  0.50349218  0.32871368  1
  In  In2  1  0.00755445  0.34076472  0.00348221  1
  In  In3  1  0.82166468  0.14974592  0.29851478  1
  In  In4  1  0.49466853  0.17803685  0.34184014  1
  In  In5  1  0.50376202  0.34843161  0.51724169  1
  In  In6  1  0.83812208  0.68142440  0.82458226  1
  In  In7  1  0.34802979  0.01809378  0.67467050  1
  In  In8  1  0.15437343  0.69344941  0.49020616  1
  In  In9  1  0.49750742  0.50950613  0.66155417  1
  In  In10  1  0.17716906  -0.01283164  0.13826566  1
  In  In11  1  0.83192975  0.15497106  0.67261796  1
  In  In12  1  0.19064261  0.32239724  0.17198902  1
  In  In13  1  0.82857112  0.50278026  0.66266895  1
  In  In14  1  0.15576938  0.47703818  0.66961581  1
  In  In15  1  0.17047886  0.14373145  0.68529755  1
  In  In16  1  0.67947245  0.20221368  0.15618943  1
  In  In17  1  0.82362860  0.53103436  0.31612641  1
  In  In18  1  0.30056235  0.66606625  0.65102760  1
  In  In19  1  0.50042449  -0.00902447  0.18587227  1
  In  In20  1  0.81625471  0.52460302  0.00797833  1
  In  In21  1  0.16889677  0.30287455  0.50952177  1
  In  In22  1  0.02858090  0.14404173  0.52772128  1
  In  In23  1  0.66207350  0.14370875  0.52663083  1
  In  In24  1  0.14884451  0.85499905  -0.03305971  1
  In  In25  1  0.49513595  0.53077601  0.32491661  1
  In  In26  1  0.09288841  0.70261874  0.84108892  1
  In  In27  1  0.68001256  0.17409468  0.82715938  1
  In  In28  1  0.03186013  0.14350962  0.15855207  1
  In  In29  1  0.65822635  0.68091834  0.32099638  1
  In  In30  1  0.35649552  0.35051127  0.01963907  1
  In  In31  1  0.36299842  0.15811075  0.47941152  1
  In  In32  1  0.65677215  -0.00523442  0.34431753  1
  In  In33  1  0.17868726  0.10927230  -0.04005819  1
  In  In34  1  0.34978806  0.50818440  0.84471682  1
  In  In35  1  0.67466424  0.81583545  0.15322022  1
  In  In36  1  -0.01619175  0.13502686  0.82784884  1
  In  In37  1  0.16480543  0.66762403  0.15683537  1
  In  In38  1  0.15283154  -0.07937632  0.53211302  1
  In  In39  1  0.51218054  -0.00219399  0.50906365  1
  In  In40  1  0.65231139  0.37697147  0.35059028  1
  In  In41  1  0.50257837  0.83428911  0.68673121  1
  In  In42  1  0.84736302  0.18224953  -0.01413998  1
  In  In43  1  0.83106198  0.36192474  0.15068051  1
  In  In44  1  -0.03112711  0.52104387  0.49966859  1
  In  In45  1  0.15953151  0.13040793  0.34152692  1
  In  In46  1  0.32953076  0.69002565  0.32367615  1
  In  In47  1  -0.01812976  0.33251183  0.34704612  1
  In  In48  1  0.83025541  0.31732831  0.50015562  1
  In  In49  1  -0.00440392  0.81761261  0.17420982  1
  In  In50  1  0.52718695  0.69861013  0.85915261  1
  In  In51  1  0.33577324  0.82892144  0.82993059  1
  In  In52  1  0.52591408  0.53445368  0.01095369  1
  In  In53  1  0.82849338  0.81814236  0.32801965  1
  In  In54  1  -0.01905862  0.68798935  0.65961312  1
  In  In55  1  0.66540947  0.65178302  0.66305923  1
  In  In56  1  0.85501249  -0.02701387  0.50323226  1
  In  In57  1  0.15536245  0.83518481  0.33909623  1
  In  In58  1  0.15360612  0.32188640  0.82835963  1
  In  In59  1  0.51294697  0.32559807  0.86658199  1
  In  In60  1  0.33457049  0.71385252  0.02405221  1
  In  In61  1  0.51531530  0.15649809  0.00304033  1
  In  In62  1  0.33330208  0.16171455  0.15487756  1
  In  In63  1  0.82067016  0.34887435  0.82766509  1
  In  In64  1  0.70500556  -0.03796745  -0.01806784  1
  In  In65  1  0.48714329  0.67595236  0.48496898  1
  In  In66  1  0.85718034  -0.00965682  0.15109076  1
  In  In67  1  0.48430206  -0.03739953  0.85947835  1
  In  In68  1  0.00047770  0.53412710  0.14115262  1
  In  In69  1  0.35350078  0.34322740  0.32349513  1
  In  In70  1  0.83199639  0.84222247  0.66896657  1
  In  In71  1  0.17127405  0.52779463  -0.02489892  1
  Te  Te72  1  0.06840087  0.04970214  0.04767303  1
  Te  Te73  1  0.09250935  0.04044315  0.43987702  1
  Te  Te74  1  0.08567463  0.04908842  0.76222344  1
  Te  Te75  1  0.09923728  0.42060067  0.09453323  1
  Te  Te76  1  0.08818583  0.40816398  0.42571189  1
  Te  Te77  1  0.06541850  0.42124399  0.76956444  1
  Te  Te78  1  0.08252256  0.75454121  0.06618932  1
  Te  Te79  1  0.04896183  0.76644565  0.41670557  1
  Te  Te80  1  0.10108310  0.76599211  0.70592266  1
  Te  Te81  1  0.42029243  0.06471163  0.07856169  1
  Te  Te82  1  0.42464507  0.05359174  0.39022127  1
  Te  Te83  1  0.41752959  0.07671388  0.79301496  1
  Te  Te84  1  0.43673810  0.44644329  0.09246800  1
  Te  Te85  1  0.42101333  0.43212120  0.42294137  1
  Te  Te86  1  0.41075824  0.41037997  0.74663588  1
  Te  Te87  1  0.44707491  0.73870513  0.11872095  1
  Te  Te88  1  0.40050338  0.77362881  0.42060579  1
  Te  Te89  1  0.41179390  0.72346529  0.74403216  1
  Te  Te90  1  0.76541500  0.09756602  0.08818533  1
  Te  Te91  1  0.76050380  0.08477599  0.42049576  1
  Te  Te92  1  0.76954499  0.06802229  0.77486117  1
  Te  Te93  1  0.72652111  0.43389601  0.08345308  1
  Te  Te94  1  0.76917024  0.43444837  0.42568497  1
  Te  Te95  1  0.73220468  0.42657895  0.74204198  1
  Te  Te96  1  0.68969990  0.71793511  0.03550277  1
  Te  Te97  1  0.72098720  0.77423034  0.41786382  1
  Te  Te98  1  0.73165926  0.75749649  0.74848891  1
  Te  Te99  1  0.08788260  0.24926771  0.26505221  1
  Te  Te100  1  0.08129941  0.25154378  0.62043066  1
  Te  Te101  1  0.07207057  0.23070102  0.92034637  1
  Te  Te102  1  0.07126648  0.60411058  0.25772271  1
  Te  Te103  1  0.07978695  0.58521585  0.58122993  1
  Te  Te104  1  0.05031046  0.59225819  0.92762503  1
  Te  Te105  1  0.08256479  0.92360818  0.23889318  1
  Te  Te106  1  0.04069222  0.87742861  0.61563771  1
  Te  Te107  1  0.06072825  0.91846856  0.86427247  1
  Te  Te108  1  0.42868576  0.25430824  0.22726646  1
  Te  Te109  1  0.43495884  0.23393904  0.58943000  1
  Te  Te110  1  0.40485251  0.24034639  0.93243531  1
  Te  Te111  1  0.42328887  0.62000402  0.22980959  1
  Te  Te112  1  0.40053154  0.58377596  0.57264419  1
  Te  Te113  1  0.41232620  0.61621581  0.92986381  1
  Te  Te114  1  0.43108583  0.86341534  0.20909683  1
  Te  Te115  1  0.41511256  0.91249091  0.59108525  1
  Te  Te116  1  0.41271968  0.86962325  0.95007055  1
  Te  Te117  1  0.75827858  0.28428243  0.26759174  1
  Te  Te118  1  0.73863120  0.25124571  0.60128452  1
  Te  Te119  1  0.74056733  0.27047191  0.92998720  1
  Te  Te120  1  0.71565391  0.57896270  0.22551385  1
  Te  Te121  1  0.77113149  0.60349024  0.56966714  1
  Te  Te122  1  0.74050879  0.60445200  0.90817999  1
  Te  Te123  1  0.74779122  0.92819411  0.24111650  1
  Te  Te124  1  0.74769815  0.93603567  0.59378209  1
  Te  Te125  1  0.80447433  0.86320066  0.93771774  1
  Te  Te126  1  0.22556531  0.21891057  0.06626966  1
  Te  Te127  1  0.26037516  0.24575876  0.39730961  1
  Te  Te128  1  0.26073444  0.23838557  0.76268756  1
  Te  Te129  1  0.26360191  0.58526367  0.07760749  1
  Te  Te130  1  0.24256942  0.59699903  0.41211293  1
  Te  Te131  1  0.24214788  0.56886315  0.75471641  1
  Te  Te132  1  0.26153298  0.90613268  0.04942440  1
  Te  Te133  1  0.24673333  0.91797581  0.42010709  1
  Te  Te134  1  0.25349345  0.93219586  0.75877570  1
  Te  Te135  1  0.58205313  0.26759157  0.07133668  1
  Te  Te136  1  0.59635144  0.25072195  0.42767202  1
  Te  Te137  1  0.57630216  0.25061780  0.75922616  1
  Te  Te138  1  0.60939570  0.61005795  0.11053895  1
  Te  Te139  1  0.59385982  0.58633834  0.42486864  1
  Te  Te140  1  0.57593552  0.58670196  0.76787933  1
  Te  Te141  1  0.60248906  0.93250092  0.08654127  1
  Te  Te142  1  0.59259304  0.89840872  0.43349225  1
  Te  Te143  1  0.59279163  0.90741203  0.77759372  1
  Te  Te144  1  0.93149413  0.24650055  0.10562430  1
  Te  Te145  1  0.93176426  0.22106863  0.43685845  1
  Te  Te146  1  0.91357799  0.25050175  0.75828782  1
  Te  Te147  1  0.89468641  0.62236301  0.08957836  1
  Te  Te148  1  0.91228682  0.61160021  0.40053642  1
  Te  Te149  1  0.92497486  0.58017862  0.75083459  1
  Te  Te150  1  0.91483767  0.88568118  0.06573551  1
  Te  Te151  1  0.93052342  0.89256794  0.40610996  1
  Te  Te152  1  0.94206377  0.88825522  0.76300850  1
  Te  Te153  1  0.25623915  0.06632869  0.24585912  1
  Te  Te154  1  0.26225892  0.09350486  0.57400669  1
  Te  Te155  1  0.27361439  0.03724395  0.87374157  1
  Te  Te156  1  0.26515333  0.43505015  0.24251780  1
  Te  Te157  1  0.25180633  0.41694872  0.56680855  1
  Te  Te158  1  0.25100769  0.40753622  0.92249418  1
  Te  Te159  1  0.24259666  0.77321007  0.23085733  1
  Te  Te160  1  0.24400425  0.77984374  0.57335312  1
  Te  Te161  1  0.23129128  0.73519993  0.89864357  1
  Te  Te162  1  0.59553721  0.10357376  0.24804798  1
  Te  Te163  1  0.57788631  0.06970976  0.61842100  1
  Te  Te164  1  0.61381628  0.07157531  0.92584474  1
  Te  Te165  1  0.55839063  0.42011270  0.24975775  1
  Te  Te166  1  0.59902957  0.43104084  0.59025546  1
  Te  Te167  1  0.58280812  0.44704333  0.90646453  1
  Te  Te168  1  0.56737110  0.78057204  0.25370866  1
  Te  Te169  1  0.57682963  0.74771182  0.58680599  1
  Te  Te170  1  0.60984722  0.79638281  0.93128915  1
  Te  Te171  1  0.94051084  0.06878869  0.25548069  1
  Te  Te172  1  0.92964767  0.06062245  0.60457648  1
  Te  Te173  1  0.88387124  0.06188204  0.90920877  1
  Te  Te174  1  0.93441172  0.43460687  0.24485827  1
  Te  Te175  1  0.92187015  0.40512155  0.58332072  1
  Te  Te176  1  0.90744840  0.42290446  0.93194088  1
  Te  Te177  1  0.88191208  0.73184580  0.21981405  1
  Te  Te178  1  0.87105636  0.73436841  0.57275730  1
  Te  Te179  1  0.93065906  0.78916900  0.88064786  1
