# generated using pymatgen
data_In2Te3
_symmetry_space_group_name_H-M   'P 1'
_cell_length_a   18.98500708
_cell_length_b   18.97745930
_cell_length_c   18.98247465
_cell_angle_alpha   89.94082050
_cell_angle_beta   89.85379496
_cell_angle_gamma   90.21730532
_symmetry_Int_Tables_number   1
_chemical_formula_structural   In2Te3
_chemical_formula_sum   'In72 Te108'
_cell_volume   6839.06745148
_cell_formula_units_Z   36
loop_
 _symmetry_equiv_pos_site_id
 _symmetry_equiv_pos_as_xyz
  1  'x, y, z'
loop_
 _atom_site_type_symbol
 _atom_site_label
 _atom_site_symmetry_multiplicity
 _atom_site_fract_x
 _atom_site_fract_y
 _atom_site_fract_z
 _atom_site_occupancy
  In  In0  1  0.82474408  0.16400524  0.67709642  1
  In  In1  1  0.48798027  0.83148619  0.02898225  1
  In  In2  1  0.02095276  0.03460327  0.01887647  1
  In  In3  1  0.66541510  0.18719939  0.83596594  1
  In  In4  1  0.32910045  0.48198442  0.85517860  1
  In  In5  1  0.00012074  0.50653305  0.16257181  1
  In  In6  1  0.15914200  0.50262112  0.65455464  1
  In  In7  1  0.32379745  0.85307431  0.15376675  1
  In  In8  1  0.67252320  0.01250168  0.33697293  1
  In  In9  1  0.65890663  0.49403155  0.16490343  1
  In  In10  1  0.30107411  0.69303538  0.33823774  1
  In  In11  1  0.01146636  0.83204519  0.80537562  1
  In  In12  1  0.36291083  0.83994605  0.81025009  1
  In  In13  1  -0.01515339  0.64626553  -0.01233028  1
  In  In14  1  0.30038145  -0.01843019  0.64068956  1
  In  In15  1  0.82778479  0.18372844  0.33642403  1
  In  In16  1  0.49007707  0.56989759  0.29555064  1
  In  In17  1  0.33086565  0.01255859  0.00750877  1
  In  In18  1  0.84566456  0.00007130  0.47799126  1
  In  In19  1  0.17847690  0.66861466  0.14978154  1
  In  In20  1  0.49632127  0.34653335  0.53063708  1
  In  In21  1  -0.03025926  0.32510971  -0.01043551  1
  In  In22  1  0.63745780  0.65458902  0.02331439  1
  In  In23  1  0.49932487  0.82184249  0.64466359  1
  In  In24  1  0.48905806  0.18348932  0.34560409  1
  In  In25  1  0.31090622  0.31826365  0.67581450  1
  In  In26  1  0.83507296  0.65310071  0.52319755  1
  In  In27  1  0.65182381  0.34520718  0.34132448  1
  In  In28  1  0.50203561  0.65687907  0.48928482  1
  In  In29  1  0.85052182  0.82551093  0.65759428  1
  In  In30  1  0.52076558  0.02850336  0.83387194  1
  In  In31  1  0.66062916  0.00328655  0.67058212  1
  In  In32  1  -0.00935028  0.15152587  0.83452940  1
  In  In33  1  0.81716498  0.48763538  -0.01612102  1
  In  In34  1  0.33688797  0.14544813  0.49949680  1
  In  In35  1  0.81302959  0.49943176  0.70238439  1
  In  In36  1  0.16091936  0.33922736  0.49001212  1
  In  In37  1  0.84574836  0.66004412  0.81891405  1
  In  In38  1  0.01005730  0.34600827  0.66604862  1
  In  In39  1  0.31681224  0.34769909  0.02423402  1
  In  In40  1  0.53375457  0.50411342  0.69534360  1
  In  In41  1  0.84830336  0.82690941  0.34726372  1
  In  In42  1  0.18530571  -0.01287971  0.81874800  1
  In  In43  1  0.83845528  0.01092333  0.16386095  1
  In  In44  1  0.80726460  0.18255505  -0.00476443  1
  In  In45  1  0.49013552  0.00664182  0.18338043  1
  In  In46  1  0.51898212  0.01284233  0.48484572  1
  In  In47  1  0.66265841  0.81772850  0.49635297  1
  In  In48  1  0.02172953  -0.02670504  0.64507601  1
  In  In49  1  0.65411090  0.01569411  -0.01510145  1
  In  In50  1  0.83672111  0.50153995  0.32545091  1
  In  In51  1  0.18752360  0.13532166  0.31678512  1
  In  In52  1  0.66989078  0.81651947  0.85559375  1
  In  In53  1  0.01268386  0.15895318  0.18872207  1
  In  In54  1  0.63541009  0.80922523  0.19964147  1
  In  In55  1  0.83913912  0.83538262  0.03179249  1
  In  In56  1  0.33216438  0.52038972  0.46161268  1
  In  In57  1  0.04555535  0.85658936  0.22392891  1
  In  In58  1  0.35744139  0.16403446  0.82044265  1
  In  In59  1  0.81801709  0.35327100  0.16189748  1
  In  In60  1  0.03209135  0.69587129  0.34164156  1
  In  In61  1  0.81814165  0.32058070  0.52470567  1
  In  In62  1  0.34164078  0.63503038  0.00868056  1
  In  In63  1  0.32733446  0.34433560  0.31033236  1
  In  In64  1  0.01207635  0.16010540  0.47902524  1
  In  In65  1  0.32725161  0.66197649  0.64557835  1
  In  In66  1  0.51147266  0.33508479  0.83926854  1
  In  In67  1  0.17080247  0.68486956  0.84030052  1
  In  In68  1  0.01796579  0.49950045  0.49531404  1
  In  In69  1  0.50289074  0.31698998  0.13194853  1
  In  In70  1  0.15871356  0.81092175  -0.01996575  1
  In  In71  1  0.16228376  0.33698976  0.17617764  1
  Te  Te72  1  0.11507907  0.12696707  0.08504766  1
  Te  Te73  1  0.09851624  0.06125399  0.41278121  1
  Te  Te74  1  0.08462442  0.07073756  0.74245609  1
  Te  Te75  1  0.06989399  0.40496362  0.07714409  1
  Te  Te76  1  0.09237617  0.42476330  0.39478026  1
  Te  Te77  1  0.10972798  0.40744863  0.75411996  1
  Te  Te78  1  0.06469239  0.74158573  0.07661493  1
  Te  Te79  1  0.09561986  0.81311176  0.41182034  1
  Te  Te80  1  0.07746095  0.72415851  0.73470353  1
  Te  Te81  1  0.41829636  0.09396852  0.09130189  1
  Te  Te82  1  0.40767312  0.06429894  0.39364353  1
  Te  Te83  1  0.40671832  0.04775839  0.73722446  1
  Te  Te84  1  0.42631892  0.43262561  0.07868011  1
  Te  Te85  1  0.42095684  0.40828089  0.41325748  1
  Te  Te86  1  0.41526489  0.41617533  0.73814497  1
  Te  Te87  1  0.40811489  0.73069279  0.10652129  1
  Te  Te88  1  0.40796936  0.75345333  0.42576829  1
  Te  Te89  1  0.43270788  0.72557346  0.74196432  1
  Te  Te90  1  0.73268240  0.09092487  0.09281336  1
  Te  Te91  1  0.74337660  0.10351797  0.43573894  1
  Te  Te92  1  0.74720155  0.07381910  0.77220942  1
  Te  Te93  1  0.71909318  0.39740006  0.05819778  1
  Te  Te94  1  0.75508537  0.41868469  0.42269702  1
  Te  Te95  1  0.72077684  0.42410426  0.79627498  1
  Te  Te96  1  0.73398979  0.74909480  0.10022154  1
  Te  Te97  1  0.75317785  0.73096342  0.41363804  1
  Te  Te98  1  0.74986131  0.75082346  0.74365472  1
  Te  Te99  1  0.09259526  0.24839543  0.27945937  1
  Te  Te100  1  0.08604024  0.24521219  0.58197294  1
  Te  Te101  1  0.06755527  0.23579158  0.92600634  1
  Te  Te102  1  0.09208149  0.59101142  0.24807297  1
  Te  Te103  1  0.10687099  0.60170534  0.55770719  1
  Te  Te104  1  0.09849013  0.58126604  0.91934084  1
  Te  Te105  1  0.12202814  0.98585882  0.25823329  1
  Te  Te106  1  0.11007170  0.88969887  0.56394573  1
  Te  Te107  1  0.07505315  0.92648659  0.91222633  1
  Te  Te108  1  0.40863610  0.24342756  0.23325926  1
  Te  Te109  1  0.41102973  0.23674743  0.59498861  1
  Te  Te110  1  0.40219371  0.26792976  0.91937845  1
  Te  Te111  1  0.35085653  0.58055876  0.24990474  1
  Te  Te112  1  0.42438517  0.56284350  0.58319944  1
  Te  Te113  1  0.42993434  0.57102531  0.91162174  1
  Te  Te114  1  0.42475793  0.89520294  0.25132512  1
  Te  Te115  1  0.42416208  0.92537498  0.56866335  1
  Te  Te116  1  0.43260244  0.93054042  0.92241470  1
  Te  Te117  1  0.73253077  0.25886057  0.24617158  1
  Te  Te118  1  0.72957752  0.26263930  0.62535938  1
  Te  Te119  1  0.76963854  0.27721752  0.88881990  1
  Te  Te120  1  0.75158935  0.58092151  0.23788919  1
  Te  Te121  1  0.74004232  0.56690405  0.59417401  1
  Te  Te122  1  0.74904264  0.61131802  0.92770742  1
  Te  Te123  1  0.75757975  0.91553006  0.25432248  1
  Te  Te124  1  0.74977806  0.91869983  0.57267682  1
  Te  Te125  1  0.75582376  0.91538543  0.93150463  1
  Te  Te126  1  0.24502787  0.24126299  0.09972008  1
  Te  Te127  1  0.26248232  0.25085446  0.41537507  1
  Te  Te128  1  0.23948569  0.21376079  0.74786323  1
  Te  Te129  1  0.21358657  0.57016343  0.04476749  1
  Te  Te130  1  0.21864729  0.60938732  0.43152581  1
  Te  Te131  1  0.25399328  0.58309843  0.75457030  1
  Te  Te132  1  0.22282076  0.92169542  0.06440442  1
  Te  Te133  1  0.22829410  0.87843579  0.46176073  1
  Te  Te134  1  0.23899059  0.87437168  0.73254990  1
  Te  Te135  1  0.59457643  0.25333413  0.03873227  1
  Te  Te136  1  0.58273041  0.25351196  0.44033742  1
  Te  Te137  1  0.56676692  0.23967160  0.74199658  1
  Te  Te138  1  0.54852683  0.55146549  0.08176596  1
  Te  Te139  1  0.58987912  0.57835022  0.40109313  1
  Te  Te140  1  0.63688560  0.55375618  0.79286412  1
  Te  Te141  1  0.59702156  0.91694899  0.09158044  1
  Te  Te142  1  0.58496653  0.90461792  0.40046615  1
  Te  Te143  1  0.58369349  0.90168369  0.75659643  1
  Te  Te144  1  0.90516725  0.23532961  0.10667829  1
  Te  Te145  1  0.91969392  0.26636002  0.42378201  1
  Te  Te146  1  0.91903955  0.25720146  0.75108181  1
  Te  Te147  1  0.89144251  0.57747484  0.08582685  1
  Te  Te148  1  0.92984932  0.59453638  0.40506191  1
  Te  Te149  1  0.93322233  0.57672931  0.73764644  1
  Te  Te150  1  0.94715145  0.92489167  0.10188924  1
  Te  Te151  1  0.94512829  0.90429403  0.42792864  1
  Te  Te152  1  0.91282205  0.93011414  0.74659469  1
  Te  Te153  1  0.25888521  0.03803880  0.23422045  1
  Te  Te154  1  0.22448948  0.08550085  0.57227064  1
  Te  Te155  1  0.24919186  0.09056465  0.90754882  1
  Te  Te156  1  0.25164945  0.44276505  0.23226046  1
  Te  Te157  1  0.26353553  0.42326112  0.56854752  1
  Te  Te158  1  0.23327095  0.38669972  0.90931704  1
  Te  Te159  1  0.22205545  0.78159323  0.24249696  1
  Te  Te160  1  0.29620022  0.76599218  0.54381322  1
  Te  Te161  1  0.29053546  0.76018546  0.92008206  1
  Te  Te162  1  0.58400755  0.10323794  0.25598927  1
  Te  Te163  1  0.57696036  0.09220019  0.59235527  1
  Te  Te164  1  0.56134919  0.13177193  0.94752355  1
  Te  Te165  1  0.55736011  0.41293115  0.24753643  1
  Te  Te166  1  0.60345336  0.42694313  0.59258152  1
  Te  Te167  1  0.60015858  0.43947243  0.89684096  1
  Te  Te168  1  0.56693727  0.70284368  0.27001166  1
  Te  Te169  1  0.59875741  0.72081466  0.59288708  1
  Te  Te170  1  0.55794640  0.74291873  0.92680166  1
  Te  Te171  1  0.91596039  0.07657605  0.27595778  1
  Te  Te172  1  0.91890811  0.08484173  0.58390636  1
  Te  Te173  1  0.90257191  0.07846123  0.93627348  1
  Te  Te174  1  0.92748309  0.40553896  0.25161308  1
  Te  Te175  1  0.91430475  0.42880060  0.58250688  1
  Te  Te176  1  0.92722762  0.43538674  0.90368723  1
  Te  Te177  1  0.93127872  0.75441076  0.24371811  1
  Te  Te178  1  0.93476223  0.75078462  0.56662717  1
  Te  Te179  1  0.91425993  0.76737838  0.91588631  1
