# generated using pymatgen
data_In2Te3
_symmetry_space_group_name_H-M   'P 1'
_cell_length_a   18.96118849
_cell_length_b   18.96076116
_cell_length_c   18.96701306
_cell_angle_alpha   90.16954593
_cell_angle_beta   90.04563770
_cell_angle_gamma   90.04318143
_symmetry_Int_Tables_number   1
_chemical_formula_structural   In2Te3
_chemical_formula_sum   'In72 Te108'
_cell_volume   6818.95937669
_cell_formula_units_Z   36
loop_
 _symmetry_equiv_pos_site_id
 _symmetry_equiv_pos_as_xyz
  1  'x, y, z'
loop_
 _atom_site_type_symbol
 _atom_site_label
 _atom_site_symmetry_multiplicity
 _atom_site_fract_x
 _atom_site_fract_y
 _atom_site_fract_z
 _atom_site_occupancy
  In  In0  1  -0.02292313  0.15151374  0.16872574  1
  In  In1  1  0.16516452  0.65639325  0.14147555  1
  In  In2  1  0.81997268  0.01682386  0.83000051  1
  In  In3  1  0.34686196  0.02916496  0.02243110  1
  In  In4  1  0.17950530  0.83376818  0.30361074  1
  In  In5  1  0.00628238  0.83316707  0.51950893  1
  In  In6  1  0.55468718  0.03154167  0.82750365  1
  In  In7  1  0.00160332  0.66370786  -0.00366004  1
  In  In8  1  0.32185905  0.49371396  0.83782578  1
  In  In9  1  0.33824698  0.01652883  0.66546577  1
  In  In10  1  0.67197388  0.00062153  0.33943964  1
  In  In11  1  0.64740799  0.81633095  0.15167882  1
  In  In12  1  0.67828251  0.83288215  0.49022652  1
  In  In13  1  0.29544438  0.22454454  0.48894229  1
  In  In14  1  -0.01628293  0.68113907  0.33796430  1
  In  In15  1  -0.00244246  0.51819660  0.49391720  1
  In  In16  1  0.00202068  0.50226858  0.13293873  1
  In  In17  1  0.66300828  0.44495476  0.83382323  1
  In  In18  1  -0.01451028  0.02338612  0.33347917  1
  In  In19  1  0.82221004  0.49910129  0.69060469  1
  In  In20  1  0.65173623  0.65323833  0.66052159  1
  In  In21  1  0.48284406  0.00014546  0.15052099  1
  In  In22  1  0.83516010  0.02485319  0.50119513  1
  In  In23  1  0.81339181  0.33702326  0.49429798  1
  In  In24  1  0.52529997  0.81022003  0.31826239  1
  In  In25  1  0.34999549  0.47368271  0.49569661  1
  In  In26  1  0.00057511  0.33841823  0.68167470  1
  In  In27  1  0.79197948  0.62649406  0.18115781  1
  In  In28  1  0.15532252  0.19654798  -0.01511791  1
  In  In29  1  0.17382653  0.49779298  0.32741454  1
  In  In30  1  0.35142985  0.00594032  0.33418441  1
  In  In31  1  -0.00095496  0.34486325  0.33540641  1
  In  In32  1  0.50026500  0.02295011  0.52396315  1
  In  In33  1  0.52637768  0.33651937  0.16429159  1
  In  In34  1  0.35064618  0.33742763  0.02341165  1
  In  In35  1  0.15764339  0.15097488  0.65298659  1
  In  In36  1  0.52082537  0.17952577  0.67734051  1
  In  In37  1  0.83048629  0.66989246  0.85169630  1
  In  In38  1  0.16664162  0.83341492  -0.01893142  1
  In  In39  1  0.49369636  0.82674769  -0.02416907  1
  In  In40  1  0.83379526  0.83934482  0.01022075  1
  In  In41  1  0.67920864  0.19833488  0.85461318  1
  In  In42  1  0.34936596  0.80712765  0.82994908  1
  In  In43  1  0.82337156  0.34462328  0.16043173  1
  In  In44  1  0.16492169  0.65168947  0.81968935  1
  In  In45  1  0.35557736  0.20072658  0.86339393  1
  In  In46  1  0.35480266  0.14490656  0.18158787  1
  In  In47  1  0.50902277  0.64282746  0.81513258  1
  In  In48  1  0.50828971  0.47656009  0.33828762  1
  In  In49  1  0.47307359  0.65433497  0.52179206  1
  In  In50  1  -0.00593912  0.17669411  0.50730341  1
  In  In51  1  0.66072756  0.18671117  0.16506437  1
  In  In52  1  0.15729372  0.33078559  0.82301249  1
  In  In53  1  -0.01157786  -0.00720136  0.00239072  1
  In  In54  1  0.67215355  0.85138923  0.82461587  1
  In  In55  1  0.52934745  0.19579080  0.34835697  1
  In  In56  1  0.15749200  0.33493180  0.17693140  1
  In  In57  1  0.17113592  0.00736582  0.80987462  1
  In  In58  1  -0.02413419  0.47371164  0.86164100  1
  In  In59  1  0.82226514  0.82945606  0.32520634  1
  In  In60  1  0.32988953  0.33905181  0.66661244  1
  In  In61  1  0.84818735  0.83231401  0.64527515  1
  In  In62  1  -0.02583007  0.01466868  0.65643548  1
  In  In63  1  0.16530079  0.01459924  0.19248275  1
  In  In64  1  0.32891500  0.80779478  0.13495206  1
  In  In65  1  0.66492185  0.47887215  0.51141544  1
  In  In66  1  0.82227801  0.18641879  0.01585008  1
  In  In67  1  0.36425682  0.63836575  0.02361703  1
  In  In68  1  0.15511526  0.81247469  0.65167929  1
  In  In69  1  0.33898117  0.82766981  0.47433727  1
  In  In70  1  0.64105617  0.61640284  0.01752561  1
  In  In71  1  0.17783118  0.64458885  0.48927573  1
  Te  Te72  1  0.09330805  0.08727756  0.07894542  1
  Te  Te73  1  0.07438977  0.07941819  0.43330504  1
  Te  Te74  1  0.06036239  0.09537775  0.75461621  1
  Te  Te75  1  0.08757879  0.40382769  0.06793740  1
  Te  Te76  1  0.09311190  0.41923962  0.42790719  1
  Te  Te77  1  0.08535446  0.44213575  0.75206832  1
  Te  Te78  1  0.07793639  0.76523204  0.08325186  1
  Te  Te79  1  0.09705578  0.76000866  0.41178593  1
  Te  Te80  1  0.08030772  0.75523866  0.76231873  1
  Te  Te81  1  0.45591984  0.12552940  0.06605716  1
  Te  Te82  1  0.42573625  0.10588319  0.42117019  1
  Te  Te83  1  0.41882028  0.08989571  0.77307920  1
  Te  Te84  1  0.42589094  0.43383404  0.11053946  1
  Te  Te85  1  0.42344706  0.37872009  0.40926957  1
  Te  Te86  1  0.41339824  0.39804885  0.77118185  1
  Te  Te87  1  0.45577885  0.73663292  0.09480110  1
  Te  Te88  1  0.42396881  0.73058032  0.39605057  1
  Te  Te89  1  0.44259387  0.74682583  0.73606731  1
  Te  Te90  1  0.75124948  0.09101783  0.10188391  1
  Te  Te91  1  0.74044573  0.10107692  0.42002662  1
  Te  Te92  1  0.72986362  0.10157076  0.75217461  1
  Te  Te93  1  0.74608798  0.41150292  0.04967973  1
  Te  Te94  1  0.77100099  0.45077487  0.41172136  1
  Te  Te95  1  0.75467212  0.37855610  0.73820783  1
  Te  Te96  1  0.74029638  0.72882525  0.06435881  1
  Te  Te97  1  0.74651304  0.73330890  0.40740877  1
  Te  Te98  1  0.75234767  0.74949654  0.73875960  1
  Te  Te99  1  0.07065225  0.23745509  0.25529637  1
  Te  Te100  1  0.09099806  0.26651759  0.58262919  1
  Te  Te101  1  0.05049331  0.26257039  0.90352382  1
  Te  Te102  1  0.07510921  0.58878587  0.24844563  1
  Te  Te103  1  0.07761579  0.60109299  0.58572389  1
  Te  Te104  1  0.08806683  0.56799951  0.91975664  1
  Te  Te105  1  0.06523910  0.91716746  0.24939818  1
  Te  Te106  1  0.08974495  0.93657167  0.59226851  1
  Te  Te107  1  0.07900062  0.92434308  0.89942500  1
  Te  Te108  1  0.42816154  0.25716962  0.25265671  1
  Te  Te109  1  0.40747122  0.23695113  0.58641851  1
  Te  Te110  1  0.45448551  0.29688351  0.92219820  1
  Te  Te111  1  0.45538223  0.56069765  0.22947081  1
  Te  Te112  1  0.41235534  0.55174127  0.60477734  1
  Te  Te113  1  0.43929332  0.55889718  0.91959353  1
  Te  Te114  1  0.40799446  0.89963994  0.23964611  1
  Te  Te115  1  0.41113747  0.91407628  0.57996319  1
  Te  Te116  1  0.39440063  0.92525564  0.91942732  1
  Te  Te117  1  0.73931777  0.27048571  0.25993150  1
  Te  Te118  1  0.69790464  0.27832442  0.56890251  1
  Te  Te119  1  0.80713343  0.28140919  0.89356776  1
  Te  Te120  1  0.70027974  0.51451494  0.21933894  1
  Te  Te121  1  0.75851334  0.58296040  0.58239683  1
  Te  Te122  1  0.72384482  0.57494240  0.89528971  1
  Te  Te123  1  0.73450368  0.91248164  0.23353058  1
  Te  Te124  1  0.74925596  0.92866572  0.58391068  1
  Te  Te125  1  0.74323234  0.93235684  0.93099274  1
  Te  Te126  1  0.25897186  0.22993790  0.09281205  1
  Te  Te127  1  0.23577966  0.24833588  0.36065741  1
  Te  Te128  1  0.24642936  0.22546888  0.75326748  1
  Te  Te129  1  0.25291228  0.55984156  0.07700136  1
  Te  Te130  1  0.27917727  0.57726855  0.40176091  1
  Te  Te131  1  0.27006104  0.59071598  0.74013421  1
  Te  Te132  1  0.24266354  0.92788288  0.08871479  1
  Te  Te133  1  0.24441251  0.92465369  0.40720334  1
  Te  Te134  1  0.25922301  0.90292340  0.74202152  1
  Te  Te135  1  0.63552261  0.29810907  0.05619027  1
  Te  Te136  1  0.58572706  0.28497703  0.45526448  1
  Te  Te137  1  0.58894736  0.27603114  0.76508469  1
  Te  Te138  1  0.57540533  0.54663743  0.13290587  1
  Te  Te139  1  0.57219796  0.57442171  0.43755481  1
  Te  Te140  1  0.58681061  0.54024002  0.73494296  1
  Te  Te141  1  0.57757880  0.91975641  0.06325902  1
  Te  Te142  1  0.56445280  0.91814190  0.41854978  1
  Te  Te143  1  0.56623091  0.91303806  0.74444590  1
  Te  Te144  1  0.93209590  0.26745063  0.08492690  1
  Te  Te145  1  0.90620310  0.25017602  0.40814080  1
  Te  Te146  1  0.92948200  0.27857916  0.79521880  1
  Te  Te147  1  0.89403899  0.58646554  0.06972101  1
  Te  Te148  1  0.90118647  0.57472313  0.39704275  1
  Te  Te149  1  0.92260701  0.58330099  0.76861198  1
  Te  Te150  1  0.91602243  0.91698132  0.10286570  1
  Te  Te151  1  0.90786572  0.90722511  0.42552886  1
  Te  Te152  1  0.90993288  0.91896544  0.75367642  1
  Te  Te153  1  0.24130227  0.10976359  0.28604319  1
  Te  Te154  1  0.25868208  0.08892359  0.55945586  1
  Te  Te155  1  0.24407876  0.08836245  0.91749364  1
  Te  Te156  1  0.25930811  0.42152775  0.23624058  1
  Te  Te157  1  0.24178266  0.40852859  0.57369867  1
  Te  Te158  1  0.24558627  0.39697001  0.92682742  1
  Te  Te159  1  0.26261601  0.72336058  0.24077431  1
  Te  Te160  1  0.26277640  0.74075201  0.57304906  1
  Te  Te161  1  0.26819063  0.73166907  0.93390088  1
  Te  Te162  1  0.57058861  0.07778721  0.25256801  1
  Te  Te163  1  0.60614918  0.09473104  0.59299990  1
  Te  Te164  1  0.59308195  0.11319206  0.94088504  1
  Te  Te165  1  0.62065431  0.38667527  0.27319362  1
  Te  Te166  1  0.58069681  0.37831899  0.58352807  1
  Te  Te167  1  0.58396396  0.39979674  0.95144732  1
  Te  Te168  1  0.62978512  0.72164745  0.26437388  1
  Te  Te169  1  0.57914412  0.75365833  0.57407590  1
  Te  Te170  1  0.59479735  0.74294309  0.90114569  1
  Te  Te171  1  0.87956808  0.08407862  0.25395937  1
  Te  Te172  1  0.88817156  0.12780005  0.60400344  1
  Te  Te173  1  0.90910552  0.09356133  0.92519015  1
  Te  Te174  1  0.92037823  0.43212823  0.24073623  1
  Te  Te175  1  0.91389422  0.41700712  0.58548200  1
  Te  Te176  1  0.86096121  0.42717560  0.94353605  1
  Te  Te177  1  0.89185231  0.73330534  0.22837933  1
  Te  Te178  1  0.92486291  0.72677006  0.57863283  1
  Te  Te179  1  0.92706885  0.76776986  0.91382832  1
