# generated using pymatgen
data_In2Te3
_symmetry_space_group_name_H-M   'P 1'
_cell_length_a   18.77836601
_cell_length_b   18.77512348
_cell_length_c   18.77355506
_cell_angle_alpha   89.98110614
_cell_angle_beta   89.97449496
_cell_angle_gamma   89.95432116
_symmetry_Int_Tables_number   1
_chemical_formula_structural   In2Te3
_chemical_formula_sum   'In72 Te108'
_cell_volume   6618.91673300
_cell_formula_units_Z   36
loop_
 _symmetry_equiv_pos_site_id
 _symmetry_equiv_pos_as_xyz
  1  'x, y, z'
loop_
 _atom_site_type_symbol
 _atom_site_label
 _atom_site_symmetry_multiplicity
 _atom_site_fract_x
 _atom_site_fract_y
 _atom_site_fract_z
 _atom_site_occupancy
  In  In0  1  0.82646048  0.49876937  0.65176009  1
  In  In1  1  0.66971848  0.18615283  0.17166722  1
  In  In2  1  0.17428959  0.63684419  0.52166796  1
  In  In3  1  0.01346099  0.01385550  0.33774144  1
  In  In4  1  0.32852296  0.02635019  0.33006831  1
  In  In5  1  0.81722111  0.65358568  0.49293166  1
  In  In6  1  -0.00091981  0.82735088  0.49487040  1
  In  In7  1  0.33967339  0.49088610  0.49009838  1
  In  In8  1  0.15971261  0.17021347  0.66957337  1
  In  In9  1  0.82995940  0.17088098  0.33441989  1
  In  In10  1  -0.01400814  0.64353548  0.34886695  1
  In  In11  1  -0.01591139  0.00919826  0.65781835  1
  In  In12  1  0.51432203  0.50194810  0.65354887  1
  In  In13  1  0.33240723  0.30256524  0.65994573  1
  In  In14  1  0.14253518  0.49683322  0.68425907  1
  In  In15  1  0.14694414  0.33277738  0.50572886  1
  In  In16  1  0.33203332  0.50820768  0.17051793  1
  In  In17  1  0.34985935  0.16707096  0.49747071  1
  In  In18  1  0.51145549  0.81160885  -0.01368487  1
  In  In19  1  0.67711108  0.51080977  0.82372980  1
  In  In20  1  0.16202121  0.48849450  0.34377826  1
  In  In21  1  0.51825704  0.17854653  0.01684694  1
  In  In22  1  0.83524959  0.83987879  0.33421795  1
  In  In23  1  0.50355935  0.34458658  0.82833802  1
  In  In24  1  0.65274669  0.64511671  0.34115979  1
  In  In25  1  0.66989886  0.00484973  0.64528284  1
  In  In26  1  -0.00742847  0.45723175  0.18499061  1
  In  In27  1  0.16631043  0.15953835  -0.01652616  1
  In  In28  1  0.35190653  0.82925601  0.49898479  1
  In  In29  1  0.30972693  0.02043902  -0.00144819  1
  In  In30  1  0.65860357  0.34644100  0.66816256  1
  In  In31  1  0.65489507  0.17102237  0.49871022  1
  In  In32  1  0.66624060  0.01243355  -0.00546018  1
  In  In33  1  0.15750696  0.83835491  0.69792302  1
  In  In34  1  0.01888732  0.67256280  0.68567054  1
  In  In35  1  0.66637239  0.80219463  0.82945817  1
  In  In36  1  0.66389951  -0.01350799  0.34141712  1
  In  In37  1  0.87679292  0.18945574  0.68236196  1
  In  In38  1  0.34488892  0.34172596  0.32700573  1
  In  In39  1  0.32133978  0.15896692  0.83617844  1
  In  In40  1  0.33615968  0.83977915  0.14923982  1
  In  In41  1  0.85028476  -0.00839012  0.83740026  1
  In  In42  1  0.84733009  0.17400631  -0.01250032  1
  In  In43  1  0.51440032  0.83227196  0.35917190  1
  In  In44  1  0.19526866  0.01061243  0.13684171  1
  In  In45  1  0.31261881  0.82104974  0.84638313  1
  In  In46  1  0.47227874  -0.00436871  0.80742568  1
  In  In47  1  0.51975623  0.80919910  0.64005811  1
  In  In48  1  0.67835799  0.18684633  0.82230013  1
  In  In49  1  0.66629202  0.48997923  0.17364419  1
  In  In50  1  0.32563515  0.18081178  0.17924827  1
  In  In51  1  0.17950703  0.82322628  0.31084830  1
  In  In52  1  0.83450984  0.33244247  0.49086445  1
  In  In53  1  -0.00256103  0.49071989  0.82707709  1
  In  In54  1  0.17673495  0.66648564  0.14456421  1
  In  In55  1  0.48927207  0.65201965  0.16261138  1
  In  In56  1  0.31584966  0.35465718  -0.00135385  1
  In  In57  1  0.01425021  0.18487137  0.17550005  1
  In  In58  1  0.52478623  0.01108819  0.18560638  1
  In  In59  1  0.00139654  0.84269237  0.13119304  1
  In  In60  1  0.65946808  0.34479073  0.34022217  1
  In  In61  1  0.70097547  0.82204811  0.16843308  1
  In  In62  1  0.81948510  0.50907920  0.00801234  1
  In  In63  1  0.01217630  0.33763684  0.00032692  1
  In  In64  1  0.15526539  0.03478373  0.48516184  1
  In  In65  1  0.31556115  0.50066550  0.84642285  1
  In  In66  1  -0.01567464  0.63898197  -0.03268605  1
  In  In67  1  0.82107453  0.67579871  0.16057257  1
  In  In68  1  0.48901695  0.49995026  -0.00183324  1
  In  In69  1  0.82195507  0.84705641  0.68233305  1
  In  In70  1  0.34104811  0.66047277  0.68285768  1
  In  In71  1  0.85729839  0.81170996  0.01359246  1
  Te  Te72  1  0.07046650  0.07602751  0.07272023  1
  Te  Te73  1  0.06349827  0.13197119  0.41741648  1
  Te  Te74  1  0.08209821  0.07132052  0.74994056  1
  Te  Te75  1  0.09825039  0.41704983  0.09215054  1
  Te  Te76  1  0.05742289  0.40153726  0.40513829  1
  Te  Te77  1  0.04938545  0.38669552  0.73000163  1
  Te  Te78  1  0.07613463  0.73630458  0.05238632  1
  Te  Te79  1  0.09614799  0.74091029  0.41358043  1
  Te  Te80  1  0.09161156  0.74633355  0.79372446  1
  Te  Te81  1  0.41798479  0.07994773  0.09479612  1
  Te  Te82  1  0.43402559  0.06983435  0.42191820  1
  Te  Te83  1  0.40920320  0.10469849  0.73045696  1
  Te  Te84  1  0.42152546  0.40462021  0.09602651  1
  Te  Te85  1  0.44173623  0.41451781  0.41513650  1
  Te  Te86  1  0.40429472  0.42199716  0.74053077  1
  Te  Te87  1  0.40498988  0.73275159  0.06360391  1
  Te  Te88  1  0.41266462  0.73548121  0.40327595  1
  Te  Te89  1  0.42506080  0.76358191  0.75402645  1
  Te  Te90  1  0.75491529  0.09200835  0.08648752  1
  Te  Te91  1  0.75392338  0.07746003  0.42689351  1
  Te  Te92  1  0.76258295  0.08224939  0.74808935  1
  Te  Te93  1  0.76447245  0.40751132  0.09985966  1
  Te  Te94  1  0.73056888  0.42860943  0.44251864  1
  Te  Te95  1  0.76530561  0.40313355  0.75911667  1
  Te  Te96  1  0.73113005  0.73237403  0.04978850  1
  Te  Te97  1  0.73626058  0.75821069  0.41194380  1
  Te  Te98  1  0.74868463  0.72890418  0.73101140  1
  Te  Te99  1  0.11385152  0.22659508  0.27484533  1
  Te  Te100  1  0.06041404  0.24733689  0.59073134  1
  Te  Te101  1  0.06616740  0.23719694  0.89890292  1
  Te  Te102  1  0.08938308  0.58879220  0.24864537  1
  Te  Te103  1  0.05558760  0.56416145  0.57627365  1
  Te  Te104  1  0.09522245  0.55086664  0.92264639  1
  Te  Te105  1  0.09288330  0.92231501  0.23311736  1
  Te  Te106  1  0.09088845  0.91966358  0.57478453  1
  Te  Te107  1  0.11402374  0.95240336  0.96073346  1
  Te  Te108  1  0.43304534  0.24511457  0.25422390  1
  Te  Te109  1  0.43521775  0.27422879  0.55893004  1
  Te  Te110  1  0.41150260  0.25099429  0.92186642  1
  Te  Te111  1  0.43937194  0.55550272  0.26530998  1
  Te  Te112  1  0.42028237  0.59590820  0.57115199  1
  Te  Te113  1  0.41818185  0.58969679  0.90377742  1
  Te  Te114  1  0.41667880  0.91888592  0.25347450  1
  Te  Te115  1  0.42602612  0.91474247  0.59207291  1
  Te  Te116  1  0.41729474  0.92397208  0.93245021  1
  Te  Te117  1  0.76382994  0.27889455  0.24902263  1
  Te  Te118  1  0.75196774  0.24238981  0.59835042  1
  Te  Te119  1  0.74458384  0.26340667  0.92750223  1
  Te  Te120  1  0.76175444  0.57723428  0.25998711  1
  Te  Te121  1  0.72239036  0.59276239  0.59276625  1
  Te  Te122  1  0.76346941  0.59988005  0.90649679  1
  Te  Te123  1  0.76796749  0.93816501  0.23768575  1
  Te  Te124  1  0.75452535  0.91080592  0.56856299  1
  Te  Te125  1  0.74618255  0.90914622  0.91512591  1
  Te  Te126  1  0.23430241  0.25403323  0.08170604  1
  Te  Te127  1  0.25450174  0.26137979  0.42359048  1
  Te  Te128  1  0.23486422  0.26607146  0.76971809  1
  Te  Te129  1  0.25853559  0.57591492  0.06156366  1
  Te  Te130  1  0.25968926  0.58999867  0.40452115  1
  Te  Te131  1  0.22892823  0.59787828  0.76285573  1
  Te  Te132  1  0.22276931  0.87938322  0.04400521  1
  Te  Te133  1  0.24316887  0.92032108  0.41191239  1
  Te  Te134  1  0.27163693  0.91975029  0.74348887  1
  Te  Te135  1  0.59087648  0.28215011  0.09010428  1
  Te  Te136  1  0.56539493  0.26237670  0.42270788  1
  Te  Te137  1  0.56604263  0.24172000  0.73410996  1
  Te  Te138  1  0.59366913  0.58268357  0.07601986  1
  Te  Te139  1  0.57263526  0.60551079  0.45694021  1
  Te  Te140  1  0.57036548  0.59198388  0.75717317  1
  Te  Te141  1  0.58628968  0.91313489  0.08421458  1
  Te  Te142  1  0.58273138  0.92565685  0.44990722  1
  Te  Te143  1  0.59118347  0.91479943  0.75298259  1
  Te  Te144  1  0.91434773  0.26491512  0.09498400  1
  Te  Te145  1  0.93060730  0.25613272  0.40404362  1
  Te  Te146  1  0.95430490  0.25671588  0.78804844  1
  Te  Te147  1  0.92955806  0.58218901  0.10498940  1
  Te  Te148  1  0.89991512  0.54503313  0.42297248  1
  Te  Te149  1  0.90884849  0.58770272  0.74873082  1
  Te  Te150  1  0.90394674  0.93760575  0.07310400  1
  Te  Te151  1  0.91510412  0.93340459  0.42529114  1
  Te  Te152  1  0.94297184  0.89857945  0.75850705  1
  Te  Te153  1  0.21256396  0.10564555  0.26392246  1
  Te  Te154  1  0.25653641  0.08213161  0.58678589  1
  Te  Te155  1  0.21005939  0.04519112  0.87987728  1
  Te  Te156  1  0.23802702  0.40788310  0.23912923  1
  Te  Te157  1  0.24695102  0.42454438  0.59325131  1
  Te  Te158  1  0.21338667  0.41029764  0.90566345  1
  Te  Te159  1  0.27851913  0.73132986  0.24271425  1
  Te  Te160  1  0.24403512  0.75182666  0.59197593  1
  Te  Te161  1  0.22465538  0.75533380  0.94287195  1
  Te  Te162  1  0.59107756  0.10868924  0.27848542  1
  Te  Te163  1  0.56424117  0.08327340  0.57902541  1
  Te  Te164  1  0.57045434  0.08849230  0.90239675  1
  Te  Te165  1  0.56500535  0.44510074  0.27441730  1
  Te  Te166  1  0.59670395  0.42304085  0.55664702  1
  Te  Te167  1  0.59584248  0.41867245  0.92099305  1
  Te  Te168  1  0.58391481  0.75248826  0.23897642  1
  Te  Te169  1  0.60463932  0.71511758  0.56248422  1
  Te  Te170  1  0.57017128  0.70814511  0.89620708  1
  Te  Te171  1  0.91794669  0.08473629  0.24177044  1
  Te  Te172  1  0.90726133  0.09863038  0.57001758  1
  Te  Te173  1  0.93755236  0.09124879  0.90278161  1
  Te  Te174  1  0.91540733  0.43724245  0.30745736  1
  Te  Te175  1  0.92060783  0.40035749  0.59289341  1
  Te  Te176  1  0.90477055  0.41420720  0.92234721  1
  Te  Te177  1  0.93102816  0.75550912  0.24936317  1
  Te  Te178  1  0.91592267  0.73715697  0.58273155  1
  Te  Te179  1  0.92218966  0.75290550  0.89505157  1
