# generated using pymatgen
data_Ca2Al2SiO7
_symmetry_space_group_name_H-M   'P 1'
_cell_length_a   15.46294589
_cell_length_b   15.46114945
_cell_length_c   15.28615849
_cell_angle_alpha   89.98491698
_cell_angle_beta   90.01643466
_cell_angle_gamma   89.98442079
_symmetry_Int_Tables_number   1
_chemical_formula_structural   Ca2Al2SiO7
_chemical_formula_sum   'Ca48 Al48 Si24 O168'
_cell_volume   3654.53666470
_cell_formula_units_Z   24
loop_
 _symmetry_equiv_pos_site_id
 _symmetry_equiv_pos_as_xyz
  1  'x, y, z'
loop_
 _atom_type_symbol
 _atom_type_oxidation_number
  Ca2+  2.0
  Al0+  0.0
  Si0+  0.0
  O2-  -2.0
loop_
 _atom_site_type_symbol
 _atom_site_label
 _atom_site_symmetry_multiplicity
 _atom_site_fract_x
 _atom_site_fract_y
 _atom_site_fract_z
 _atom_site_occupancy
  Ca2+  Ca0  1  0.17392152  0.08667508  0.16774311  1
  Ca2+  Ca1  1  0.17562365  0.07731522  0.51367260  1
  Ca2+  Ca2  1  0.17465181  0.08867806  0.83783582  1
  Ca2+  Ca3  1  0.16430461  0.58654119  0.17168506  1
  Ca2+  Ca4  1  0.17484072  0.58473726  0.50622527  1
  Ca2+  Ca5  1  0.17228254  0.58535894  0.83704174  1
  Ca2+  Ca6  1  0.66673851  0.08185619  0.17769989  1
  Ca2+  Ca7  1  0.65872327  0.07496414  0.50411905  1
  Ca2+  Ca8  1  0.65563279  0.07835199  0.83502774  1
  Ca2+  Ca9  1  0.66602642  0.58512399  0.17256282  1
  Ca2+  Ca10  1  0.65174679  0.57194031  0.50512646  1
  Ca2+  Ca11  1  0.66539021  0.57851441  0.83889011  1
  Ca2+  Ca12  1  0.07906621  0.32658440  0.15868510  1
  Ca2+  Ca13  1  0.07675941  0.33015543  0.50163060  1
  Ca2+  Ca14  1  0.07695827  0.32372310  0.82650607  1
  Ca2+  Ca15  1  0.08134448  0.82186758  0.16245448  1
  Ca2+  Ca16  1  0.08596616  0.83162124  0.49516962  1
  Ca2+  Ca17  1  0.08577124  0.83169733  0.83016924  1
  Ca2+  Ca18  1  0.58497482  0.32607423  0.16998845  1
  Ca2+  Ca19  1  0.58434875  0.32611721  0.49401246  1
  Ca2+  Ca20  1  0.58822865  0.32142086  0.82566196  1
  Ca2+  Ca21  1  0.57774525  0.83423559  0.16212306  1
  Ca2+  Ca22  1  0.58495595  0.82599296  0.49318561  1
  Ca2+  Ca23  1  0.58139310  0.82416529  0.82787137  1
  Ca2+  Ca24  1  0.33409485  0.41595554  0.17337989  1
  Ca2+  Ca25  1  0.34246815  0.42460364  0.50540673  1
  Ca2+  Ca26  1  0.33732026  0.42489448  0.83435709  1
  Ca2+  Ca27  1  0.34225562  0.91729737  0.16652968  1
  Ca2+  Ca28  1  0.33078819  0.91865059  0.50857757  1
  Ca2+  Ca29  1  0.33311923  0.92709140  0.83557792  1
  Ca2+  Ca30  1  0.82529444  0.42337707  0.17131730  1
  Ca2+  Ca31  1  0.82160932  0.41540627  0.50531611  1
  Ca2+  Ca32  1  0.83034320  0.41732486  0.83386230  1
  Ca2+  Ca33  1  0.82459698  0.92529676  0.17673692  1
  Ca2+  Ca34  1  0.82099766  0.92159418  0.50088388  1
  Ca2+  Ca35  1  0.82511013  0.91472074  0.83320366  1
  Ca2+  Ca36  1  0.42868040  0.16584843  0.16231537  1
  Ca2+  Ca37  1  0.42590138  0.16675230  0.49628091  1
  Ca2+  Ca38  1  0.42172835  0.16105452  0.83003095  1
  Ca2+  Ca39  1  0.43079284  0.67984530  0.16342697  1
  Ca2+  Ca40  1  0.42373372  0.67179406  0.49423187  1
  Ca2+  Ca41  1  0.42385474  0.66999888  0.82804163  1
  Ca2+  Ca42  1  0.91918263  0.16453856  0.16110235  1
  Ca2+  Ca43  1  0.91680757  0.16551135  0.50009165  1
  Ca2+  Ca44  1  0.92865746  0.16865591  0.82220693  1
  Ca2+  Ca45  1  0.92399820  0.66066144  0.16005931  1
  Ca2+  Ca46  1  0.92523862  0.66775700  0.49574163  1
  Ca2+  Ca47  1  0.91881494  0.66194577  0.83354078  1
  Al0+  Al48  1  0.00069821  -0.00161101  -0.00327984  1
  Al0+  Al49  1  0.00116606  -0.00053573  0.33656983  1
  Al0+  Al50  1  -0.00060527  -0.00270879  0.66503562  1
  Al0+  Al51  1  -0.00107453  0.49987724  -0.00031070  1
  Al0+  Al52  1  0.00056461  0.49782300  0.33122802  1
  Al0+  Al53  1  0.00015273  0.49982864  0.66195625  1
  Al0+  Al54  1  0.49759135  0.00065896  -0.00234375  1
  Al0+  Al55  1  0.49958536  0.00059475  0.33201505  1
  Al0+  Al56  1  0.49823392  -0.00175698  0.67131376  1
  Al0+  Al57  1  0.49871197  0.49949341  0.00142790  1
  Al0+  Al58  1  0.49867066  0.50115434  0.32904954  1
  Al0+  Al59  1  0.50162856  0.49960016  0.67556913  1
  Al0+  Al60  1  0.24978710  0.25001646  0.00189718  1
  Al0+  Al61  1  0.24787425  0.25092541  0.33319129  1
  Al0+  Al62  1  0.24943717  0.25179627  0.66619903  1
  Al0+  Al63  1  0.24894827  0.75082113  -0.00623313  1
  Al0+  Al64  1  0.25039875  0.74945322  0.32519761  1
  Al0+  Al65  1  0.25103590  0.75000714  0.67566374  1
  Al0+  Al66  1  0.74890906  0.25054400  -0.00302374  1
  Al0+  Al67  1  0.75301607  0.25325957  0.33631358  1
  Al0+  Al68  1  0.75044368  0.25005750  0.66318323  1
  Al0+  Al69  1  0.75089049  0.74907060  0.00297351  1
  Al0+  Al70  1  0.75427025  0.75119438  0.33511232  1
  Al0+  Al71  1  0.75153863  0.74908099  0.66520333  1
  Al0+  Al72  1  0.57095292  0.18095364  0.98617674  1
  Al0+  Al73  1  0.17675741  0.92818145  0.68231205  1
  Al0+  Al74  1  0.56877371  0.17678186  0.65309616  1
  Al0+  Al75  1  0.42887014  0.82222166  0.31988699  1
  Al0+  Al76  1  0.57325082  0.67840491  0.98432464  1
  Al0+  Al77  1  0.57243525  0.18022530  0.32007669  1
  Al0+  Al78  1  0.57193634  0.67807513  0.65340418  1
  Al0+  Al79  1  0.42927779  0.82197920  0.98098722  1
  Al0+  Al80  1  0.42680553  0.32165806  0.31981421  1
  Al0+  Al81  1  0.06930822  0.67780702  0.98425034  1
  Al0+  Al82  1  0.67672933  0.92943413  0.34816157  1
  Al0+  Al83  1  0.07076944  0.17821517  0.98726468  1
  Al0+  Al84  1  0.92879455  0.32149462  0.64958260  1
  Al0+  Al85  1  0.82330961  0.07317450  0.34844736  1
  Al0+  Al86  1  0.68021461  0.42783331  0.68127106  1
  Al0+  Al87  1  0.67892530  0.92743281  0.68145683  1
  Al0+  Al88  1  0.57426213  0.67882173  0.31989660  1
  Al0+  Al89  1  0.32162395  0.56991379  0.68080177  1
  Al0+  Al90  1  0.06952725  0.67888421  0.32097709  1
  Al0+  Al91  1  0.32034793  0.07331952  0.68157377  1
  Al0+  Al92  1  0.67814169  0.43345322  0.34700662  1
  Al0+  Al93  1  0.07284736  0.17704790  0.64982062  1
  Al0+  Al94  1  0.31992074  0.07088956  0.01727529  1
  Al0+  Al95  1  0.81975482  0.56965091  0.01361463  1
  Si0+  Si96  1  0.67641570  0.42569606  0.01827933  1
  Si0+  Si97  1  0.18114808  0.92800313  0.34574844  1
  Si0+  Si98  1  0.07042668  0.17761180  0.31829308  1
  Si0+  Si99  1  0.42620383  0.32227572  0.98341301  1
  Si0+  Si100  1  0.17997568  0.43092011  0.01527057  1
  Si0+  Si101  1  0.82273838  0.07156505  0.01128667  1
  Si0+  Si102  1  0.17544083  0.42971833  0.68351097  1
  Si0+  Si103  1  0.32096983  0.57325808  0.01803387  1
  Si0+  Si104  1  0.67965838  0.93066644  0.01383324  1
  Si0+  Si105  1  0.31765292  0.57024454  0.34589965  1
  Si0+  Si106  1  0.92993272  0.82384138  0.31632957  1
  Si0+  Si107  1  0.93004098  0.32111104  0.31589272  1
  Si0+  Si108  1  0.92750392  0.82085629  0.64984160  1
  Si0+  Si109  1  0.17626490  0.92721874  0.01917791  1
  Si0+  Si110  1  0.42862269  0.32375078  0.65317876  1
  Si0+  Si111  1  0.42813606  0.81950408  0.65109816  1
  Si0+  Si112  1  0.92777071  0.82202059  0.98276067  1
  Si0+  Si113  1  0.82078894  0.07117905  0.68376065  1
  Si0+  Si114  1  0.92801294  0.32132706  0.98381943  1
  Si0+  Si115  1  0.07252616  0.68053049  0.65247231  1
  Si0+  Si116  1  0.82554358  0.57203332  0.35070029  1
  Si0+  Si117  1  0.82457403  0.57169660  0.68179572  1
  Si0+  Si118  1  0.17651807  0.42724312  0.34948253  1
  Si0+  Si119  1  0.32018144  0.07287816  0.34774913  1
  O2-  O120  1  0.24525818  -0.00482959  0.06426958  1
  O2-  O121  1  0.25194247  -0.00159398  0.38849623  1
  O2-  O122  1  0.24317721  0.00573055  0.73095998  1
  O2-  O123  1  0.24993479  0.50163604  0.06016668  1
  O2-  O124  1  0.24970704  0.49656640  0.39021744  1
  O2-  O125  1  0.24644843  0.49530768  0.72832763  1
  O2-  O126  1  0.74983199  0.00355064  0.05470915  1
  O2-  O127  1  0.74620187  0.00550035  0.39693811  1
  O2-  O128  1  0.75027092  0.00539077  0.72968557  1
  O2-  O129  1  0.74157305  0.49894034  0.06089274  1
  O2-  O130  1  0.74932298  0.51231679  0.39457388  1
  O2-  O131  1  0.75520576  0.50375691  0.72545840  1
  O2-  O132  1  -0.00207551  0.24646272  0.27458879  1
  O2-  O133  1  -0.00055915  0.24756746  0.59935302  1
  O2-  O134  1  -0.00725362  0.24879369  0.94061170  1
  O2-  O135  1  -0.00692514  0.75015442  0.27199738  1
  O2-  O136  1  0.00284810  0.75226469  0.60994110  1
  O2-  O137  1  -0.00424228  0.75302452  0.93740238  1
  O2-  O138  1  0.49827890  0.24989422  0.26907085  1
  O2-  O139  1  0.49289414  0.25154443  0.60867534  1
  O2-  O140  1  0.49766296  0.25707070  0.93951068  1
  O2-  O141  1  0.50850788  0.75733703  0.27133824  1
  O2-  O142  1  0.49844829  0.75343299  0.60616008  1
  O2-  O143  1  0.50050185  0.74832064  0.93255540  1
  O2-  O144  1  0.06868291  0.18088545  0.10110846  1
  O2-  O145  1  0.07182355  0.17908755  0.42281696  1
  O2-  O146  1  0.07099440  0.18003193  0.76367469  1
  O2-  O147  1  0.06739812  0.67768435  0.09753728  1
  O2-  O148  1  0.07149273  0.68100416  0.43441650  1
  O2-  O149  1  0.06983665  0.67889267  0.75744007  1
  O2-  O150  1  0.57363371  0.18156605  0.09910365  1
  O2-  O151  1  0.56909889  0.17985802  0.43346829  1
  O2-  O152  1  0.56783084  0.17847774  0.76645443  1
  O2-  O153  1  0.57344590  0.68147513  0.09784237  1
  O2-  O154  1  0.56688484  0.67631187  0.43340369  1
  O2-  O155  1  0.57123638  0.67876821  0.76635485  1
  O2-  O156  1  0.17403821  0.42706412  0.24405880  1
  O2-  O157  1  0.17356045  0.43335542  0.57776009  1
  O2-  O158  1  0.18055172  0.43203593  0.91033488  1
  O2-  O159  1  0.17858918  0.92940761  0.24078049  1
  O2-  O160  1  0.18109431  0.92435694  0.56778972  1
  O2-  O161  1  0.17414591  0.92897230  0.91411325  1
  O2-  O162  1  0.68229939  0.43216795  0.23371329  1
  O2-  O163  1  0.67838329  0.42987690  0.56809434  1
  O2-  O164  1  0.67924432  0.42280058  0.91287880  1
  O2-  O165  1  0.67977058  0.93061151  0.23378408  1
  O2-  O166  1  0.68102607  0.92615281  0.56878688  1
  O2-  O167  1  0.68212656  0.92979363  0.90862794  1
  O2-  O168  1  0.42450969  0.32104007  0.08897793  1
  O2-  O169  1  0.42514807  0.32112109  0.43325402  1
  O2-  O170  1  0.43058239  0.32540083  0.75885947  1
  O2-  O171  1  0.43272325  0.82164820  0.09483888  1
  O2-  O172  1  0.42083541  0.81756798  0.43308491  1
  O2-  O173  1  0.42854927  0.81728050  0.75644942  1
  O2-  O174  1  0.92975598  0.32130226  0.08983738  1
  O2-  O175  1  0.93365829  0.32543442  0.42035251  1
  O2-  O176  1  0.93216283  0.32212968  0.76365276  1
  O2-  O177  1  0.92990470  0.82357903  0.08827717  1
  O2-  O178  1  0.93406576  0.82464524  0.42193390  1
  O2-  O179  1  0.92492028  0.81900774  0.75493793  1
  O2-  O180  1  0.31701715  0.07523011  0.24257426  1
  O2-  O181  1  0.32109628  0.06985189  0.56725946  1
  O2-  O182  1  0.31753481  0.07273515  0.90481592  1
  O2-  O183  1  0.31337532  0.56909619  0.24080050  1
  O2-  O184  1  0.31914869  0.57067724  0.56706297  1
  O2-  O185  1  0.32025003  0.57031805  0.91285238  1
  O2-  O186  1  0.82647659  0.06969747  0.23385140  1
  O2-  O187  1  0.82146071  0.06803450  0.57832591  1
  O2-  O188  1  0.82439743  0.06967904  0.90655925  1
  O2-  O189  1  0.83046594  0.56615965  0.24516315  1
  O2-  O190  1  0.82876062  0.57134540  0.57642275  1
  O2-  O191  1  0.82253966  0.56564231  0.90065158  1
  O2-  O192  1  0.04514916  0.08483945  0.27152237  1
  O2-  O193  1  0.04566926  0.07712179  0.59915873  1
  O2-  O194  1  0.04398868  0.08097110  0.93361111  1
  O2-  O195  1  0.04133337  0.58126682  0.26690158  1
  O2-  O196  1  0.04481633  0.58956966  0.60332916  1
  O2-  O197  1  0.03768289  0.58147242  0.93048571  1
  O2-  O198  1  0.54491316  0.08191374  0.26693201  1
  O2-  O199  1  0.53715714  0.07949325  0.60094140  1
  O2-  O200  1  0.53805258  0.08529097  0.93321092  1
  O2-  O201  1  0.53910253  0.58440609  0.26366693  1
  O2-  O202  1  0.53681500  0.58090215  0.60371570  1
  O2-  O203  1  0.54557214  0.57751085  0.93590079  1
  O2-  O204  1  0.16066570  0.20878400  0.26965418  1
  O2-  O205  1  0.17092390  0.20751065  0.59676771  1
  O2-  O206  1  0.16558656  0.21453264  0.93465954  1
  O2-  O207  1  0.16307711  0.71148816  0.26287118  1
  O2-  O208  1  0.16526623  0.70820852  0.60722087  1
  O2-  O209  1  0.16552382  0.70675668  0.93011142  1
  O2-  O210  1  0.67178777  0.21017320  0.26914431  1
  O2-  O211  1  0.66591157  0.20619655  0.60107490  1
  O2-  O212  1  0.66802171  0.20861774  0.93060985  1
  O2-  O213  1  0.67756573  0.69710766  0.27310576  1
  O2-  O214  1  0.66960600  0.70540542  0.60030910  1
  O2-  O215  1  0.67287869  0.70569281  0.93368255  1
  O2-  O216  1  0.08770982  0.45790184  0.06292725  1
  O2-  O217  1  0.08636431  0.45846464  0.39797289  1
  O2-  O218  1  0.08347856  0.45946604  0.73076238  1
  O2-  O219  1  0.08201460  0.95282378  0.06532495  1
  O2-  O220  1  0.09002541  0.95490275  0.39499151  1
  O2-  O221  1  0.07497262  0.94732392  0.73227718  1
  O2-  O222  1  0.58072126  0.44613015  0.06224185  1
  O2-  O223  1  0.57942508  0.46071229  0.39936739  1
  O2-  O224  1  0.58603629  0.45782376  0.73965237  1
  O2-  O225  1  0.58763549  0.95880654  0.05926946  1
  O2-  O226  1  0.57714524  0.95405135  0.40091865  1
  O2-  O227  1  0.58235750  0.95528455  0.73605717  1
  O2-  O228  1  0.20732927  0.33958972  0.06448307  1
  O2-  O229  1  0.20062177  0.33485770  0.39736465  1
  O2-  O230  1  0.19722021  0.33495048  0.72799221  1
  O2-  O231  1  0.20125564  0.83180602  0.06254474  1
  O2-  O232  1  0.20850185  0.83522241  0.39176552  1
  O2-  O233  1  0.20777146  0.83240059  0.73878121  1
  O2-  O234  1  0.70807231  0.33381273  0.06566425  1
  O2-  O235  1  0.71318264  0.33834911  0.40093836  1
  O2-  O236  1  0.71334930  0.33154035  0.73515682  1
  O2-  O237  1  0.70898914  0.83997392  0.06219475  1
  O2-  O238  1  0.70980400  0.83155095  0.40134540  1
  O2-  O239  1  0.71593278  0.83217684  0.73528791  1
  O2-  O240  1  0.45349240  0.41928098  0.26476426  1
  O2-  O241  1  0.45901393  0.41598896  0.60728017  1
  O2-  O242  1  0.44761208  0.41773837  0.93957405  1
  O2-  O243  1  0.45056888  0.92204446  0.26719276  1
  O2-  O244  1  0.45067871  0.91415572  0.60725125  1
  O2-  O245  1  0.45770808  0.92002603  0.92908700  1
  O2-  O246  1  0.96308783  0.41025482  0.26577588  1
  O2-  O247  1  0.96038064  0.41884630  0.59462294  1
  O2-  O248  1  0.95925662  0.41229557  0.93693150  1
  O2-  O249  1  0.96141660  0.91519162  0.26841913  1
  O2-  O250  1  0.95235481  0.91227714  0.60097081  1
  O2-  O251  1  0.95347820  0.91440307  0.93412679  1
  O2-  O252  1  0.32653114  0.29615615  0.26723334  1
  O2-  O253  1  0.33239953  0.30725258  0.60886290  1
  O2-  O254  1  0.33330029  0.29567007  0.93705478  1
  O2-  O255  1  0.33455629  0.78763164  0.26129763  1
  O2-  O256  1  0.33419233  0.79072195  0.60697697  1
  O2-  O257  1  0.32983077  0.79581955  0.93045976  1
  O2-  O258  1  0.83815848  0.29737491  0.26753515  1
  O2-  O259  1  0.83114126  0.29400069  0.59595324  1
  O2-  O260  1  0.83370879  0.30027128  0.93841633  1
  O2-  O261  1  0.83502782  0.80433281  0.27128819  1
  O2-  O262  1  0.83920236  0.78853474  0.59870976  1
  O2-  O263  1  0.83463436  0.79529090  0.93717794  1
  O2-  O264  1  0.41712970  0.03906302  0.07031908  1
  O2-  O265  1  0.41283692  0.04863514  0.39363469  1
  O2-  O266  1  0.41549204  0.03940656  0.73739727  1
  O2-  O267  1  0.41282935  0.54551596  0.06561774  1
  O2-  O268  1  0.40981550  0.54449348  0.39279950  1
  O2-  O269  1  0.41479784  0.53717556  0.73981764  1
  O2-  O270  1  0.91383905  0.04197401  0.06026957  1
  O2-  O271  1  0.92008796  0.03930510  0.40331584  1
  O2-  O272  1  0.91387697  0.04167613  0.72918885  1
  O2-  O273  1  0.91576075  0.53512250  0.06890187  1
  O2-  O274  1  0.91635848  0.53757447  0.39845591  1
  O2-  O275  1  0.91799815  0.54437950  0.72872722  1
  O2-  O276  1  0.28686655  0.16747778  0.07144206  1
  O2-  O277  1  0.28804726  0.16308731  0.39571719  1
  O2-  O278  1  0.29693355  0.17410385  0.73302588  1
  O2-  O279  1  0.29038246  0.66532409  0.06242435  1
  O2-  O280  1  0.28518166  0.66094974  0.39273335  1
  O2-  O281  1  0.28885153  0.66349051  0.73840935  1
  O2-  O282  1  0.79847659  0.16519707  0.05742251  1
  O2-  O283  1  0.80480834  0.17419535  0.39840245  1
  O2-  O284  1  0.80037149  0.16647627  0.72723682  1
  O2-  O285  1  0.79651480  0.66794063  0.06901864  1
  O2-  O286  1  0.81408061  0.66988421  0.39185565  1
  O2-  O287  1  0.80121587  0.66549690  0.72767067  1
