# generated using pymatgen
data_Ca2Al2SiO7
_symmetry_space_group_name_H-M   'P 1'
_cell_length_a   15.46047616
_cell_length_b   15.46084555
_cell_length_c   15.28557825
_cell_angle_alpha   89.98763705
_cell_angle_beta   90.00660918
_cell_angle_gamma   89.99700449
_symmetry_Int_Tables_number   1
_chemical_formula_structural   Ca2Al2SiO7
_chemical_formula_sum   'Ca48 Al48 Si24 O168'
_cell_volume   3653.74274621
_cell_formula_units_Z   24
loop_
 _symmetry_equiv_pos_site_id
 _symmetry_equiv_pos_as_xyz
  1  'x, y, z'
loop_
 _atom_type_symbol
 _atom_type_oxidation_number
  Ca2+  2.0
  Al0+  0.0
  Si0+  0.0
  O2-  -2.0
loop_
 _atom_site_type_symbol
 _atom_site_label
 _atom_site_symmetry_multiplicity
 _atom_site_fract_x
 _atom_site_fract_y
 _atom_site_fract_z
 _atom_site_occupancy
  Ca2+  Ca0  1  0.17070961  0.07348092  0.18251655  1
  Ca2+  Ca1  1  0.16839788  0.07775750  0.50390839  1
  Ca2+  Ca2  1  0.16554869  0.07913116  0.82892728  1
  Ca2+  Ca3  1  0.16484471  0.58307972  0.17460298  1
  Ca2+  Ca4  1  0.17350820  0.59142727  0.49784757  1
  Ca2+  Ca5  1  0.16118120  0.57666352  0.84381213  1
  Ca2+  Ca6  1  0.67370007  0.08046350  0.17872633  1
  Ca2+  Ca7  1  0.66788524  0.08123803  0.50472957  1
  Ca2+  Ca8  1  0.66001702  0.07513652  0.83200439  1
  Ca2+  Ca9  1  0.67644721  0.58372490  0.17890151  1
  Ca2+  Ca10  1  0.66511157  0.58430392  0.50015500  1
  Ca2+  Ca11  1  0.67234782  0.58881066  0.83614952  1
  Ca2+  Ca12  1  0.09192866  0.32672153  0.16574735  1
  Ca2+  Ca13  1  0.08648495  0.31845787  0.49484115  1
  Ca2+  Ca14  1  0.08452409  0.33054956  0.82844350  1
  Ca2+  Ca15  1  0.07627216  0.82500180  0.16615208  1
  Ca2+  Ca16  1  0.07700828  0.83921950  0.49146997  1
  Ca2+  Ca17  1  0.07166378  0.83502017  0.82840202  1
  Ca2+  Ca18  1  0.58320944  0.33410188  0.17453799  1
  Ca2+  Ca19  1  0.58042149  0.32282900  0.48718224  1
  Ca2+  Ca20  1  0.58091354  0.32514628  0.82478604  1
  Ca2+  Ca21  1  0.57720011  0.82823570  0.16518371  1
  Ca2+  Ca22  1  0.58849939  0.82462847  0.49712497  1
  Ca2+  Ca23  1  0.57962452  0.83105771  0.82592401  1
  Ca2+  Ca24  1  0.33039891  0.42190425  0.17511185  1
  Ca2+  Ca25  1  0.34166176  0.42011844  0.49500037  1
  Ca2+  Ca26  1  0.32567825  0.41943930  0.83817530  1
  Ca2+  Ca27  1  0.32748150  0.91744077  0.17703244  1
  Ca2+  Ca28  1  0.32093629  0.92590474  0.50503284  1
  Ca2+  Ca29  1  0.33288060  0.92092267  0.83471038  1
  Ca2+  Ca30  1  0.82956261  0.43130208  0.17667655  1
  Ca2+  Ca31  1  0.83045394  0.42259897  0.49593574  1
  Ca2+  Ca32  1  0.83164230  0.42558210  0.84302430  1
  Ca2+  Ca33  1  0.83969016  0.91826989  0.17400077  1
  Ca2+  Ca34  1  0.83418388  0.91663547  0.50225359  1
  Ca2+  Ca35  1  0.83120691  0.90790095  0.83122729  1
  Ca2+  Ca36  1  0.41708280  0.16755098  0.17142185  1
  Ca2+  Ca37  1  0.42135075  0.16458027  0.49113226  1
  Ca2+  Ca38  1  0.41905392  0.16731258  0.82309017  1
  Ca2+  Ca39  1  0.41930580  0.66671097  0.16729246  1
  Ca2+  Ca40  1  0.42652989  0.66399953  0.49006468  1
  Ca2+  Ca41  1  0.42040225  0.67572863  0.82868434  1
  Ca2+  Ca42  1  0.92130993  0.16290100  0.17062095  1
  Ca2+  Ca43  1  0.92667646  0.15859091  0.49219375  1
  Ca2+  Ca44  1  0.92427744  0.17053137  0.82498184  1
  Ca2+  Ca45  1  0.91820967  0.67209894  0.16232071  1
  Ca2+  Ca46  1  0.92067920  0.68017154  0.48924779  1
  Ca2+  Ca47  1  0.91840247  0.67230835  0.83253342  1
  Al0+  Al48  1  0.00070244  -0.00047507  -0.00409343  1
  Al0+  Al49  1  -0.00131469  0.00000117  0.33149297  1
  Al0+  Al50  1  -0.00011663  0.00154619  0.66527599  1
  Al0+  Al51  1  -0.00096644  0.49747021  0.00634609  1
  Al0+  Al52  1  -0.00042988  0.49874122  0.33840325  1
  Al0+  Al53  1  -0.00023405  0.50200471  0.66686062  1
  Al0+  Al54  1  0.50072711  -0.00056537  -0.00206084  1
  Al0+  Al55  1  0.50034978  -0.00035965  0.33278229  1
  Al0+  Al56  1  0.50010333  0.00022290  0.67024743  1
  Al0+  Al57  1  0.49940599  0.49663927  -0.00247818  1
  Al0+  Al58  1  0.49946655  0.49842029  0.33118353  1
  Al0+  Al59  1  0.50076793  0.50042416  0.66779595  1
  Al0+  Al60  1  0.25230134  0.25005144  0.00207635  1
  Al0+  Al61  1  0.25176109  0.25019261  0.32791213  1
  Al0+  Al62  1  0.24947455  0.25240220  0.66681269  1
  Al0+  Al63  1  0.25138563  0.75011583  -0.00873599  1
  Al0+  Al64  1  0.24848622  0.74880265  0.33946050  1
  Al0+  Al65  1  0.24947713  0.75083337  0.67374622  1
  Al0+  Al66  1  0.75054452  0.24804698  -0.00138303  1
  Al0+  Al67  1  0.75099372  0.24941831  0.33720417  1
  Al0+  Al68  1  0.74945452  0.25265656  0.66472960  1
  Al0+  Al69  1  0.74932772  0.75089176  0.00170057  1
  Al0+  Al70  1  0.75024464  0.75080972  0.32824337  1
  Al0+  Al71  1  0.75062566  0.75094798  0.66368302  1
  Al0+  Al72  1  0.81815551  0.57114463  0.01387537  1
  Al0+  Al73  1  0.17825514  0.92838269  0.34690075  1
  Al0+  Al74  1  0.92845122  0.82217342  0.98239583  1
  Al0+  Al75  1  0.07063861  0.17986232  0.31887303  1
  Al0+  Al76  1  0.31979480  0.57035686  0.34578716  1
  Al0+  Al77  1  0.07008453  0.67598921  0.98532569  1
  Al0+  Al78  1  0.68090985  0.92898399  0.67991500  1
  Al0+  Al79  1  0.82253627  0.57437334  0.35110150  1
  Al0+  Al80  1  0.32246320  0.07229449  0.34721515  1
  Al0+  Al81  1  0.92920084  0.82119749  0.31747033  1
  Al0+  Al82  1  0.32035341  0.07243559  0.68239236  1
  Al0+  Al83  1  0.17615517  0.92872569  0.68523760  1
  Al0+  Al84  1  0.57056513  0.67864879  0.31916352  1
  Al0+  Al85  1  0.06961062  0.18215657  0.65322424  1
  Al0+  Al86  1  0.82039077  0.07010204  0.34639433  1
  Al0+  Al87  1  0.42947522  0.82204217  0.98594763  1
  Al0+  Al88  1  0.56913747  0.68044760  0.65340869  1
  Al0+  Al89  1  0.17978795  0.42876032  0.01456105  1
  Al0+  Al90  1  0.42954175  0.32063707  0.31657788  1
  Al0+  Al91  1  0.93088976  0.81931206  0.65194800  1
  Al0+  Al92  1  0.57328564  0.17609811  0.31762640  1
  Al0+  Al93  1  0.57062972  0.17808629  0.65293172  1
  Al0+  Al94  1  0.67880681  0.43051505  0.34918728  1
  Al0+  Al95  1  0.07278483  0.67701683  0.32055196  1
  Si0+  Si96  1  0.42807108  0.32247466  0.65074081  1
  Si0+  Si97  1  0.17740499  0.42593734  0.35142616  1
  Si0+  Si98  1  0.67674491  0.42423580  0.01585145  1
  Si0+  Si99  1  0.42697967  0.82104761  0.32035694  1
  Si0+  Si100  1  0.32302145  0.57289611  0.01480321  1
  Si0+  Si101  1  0.67648769  0.92738774  0.34858946  1
  Si0+  Si102  1  0.42581969  0.82269189  0.64911871  1
  Si0+  Si103  1  0.57119211  0.67697495  0.98438331  1
  Si0+  Si104  1  0.92866869  0.31894651  0.98671629  1
  Si0+  Si105  1  0.82001294  0.57082491  0.68216349  1
  Si0+  Si106  1  0.67812741  0.93049009  0.01519604  1
  Si0+  Si107  1  0.07323527  0.17926160  0.98480032  1
  Si0+  Si108  1  0.32384063  0.57121021  0.68328046  1
  Si0+  Si109  1  0.42832892  0.32003645  0.98233062  1
  Si0+  Si110  1  0.82208476  0.07152141  0.01332680  1
  Si0+  Si111  1  0.07376349  0.67563828  0.65068764  1
  Si0+  Si112  1  0.82179038  0.07454376  0.68406573  1
  Si0+  Si113  1  0.67825560  0.42881726  0.68342798  1
  Si0+  Si114  1  0.92765539  0.32213838  0.31660731  1
  Si0+  Si115  1  0.17876079  0.92936291  0.01424260  1
  Si0+  Si116  1  0.57188867  0.17936344  0.98412860  1
  Si0+  Si117  1  0.32267857  0.07001206  0.01565936  1
  Si0+  Si118  1  0.92678334  0.32612810  0.64990598  1
  Si0+  Si119  1  0.17885188  0.43159589  0.68076792  1
  O2-  O120  1  0.25093647  -0.00051167  0.05669692  1
  O2-  O121  1  0.24923918  0.00195104  0.39612911  1
  O2-  O122  1  0.25055734  -0.00061015  0.73511626  1
  O2-  O123  1  0.25074855  0.50797891  0.05853726  1
  O2-  O124  1  0.24346895  0.49773396  0.39472125  1
  O2-  O125  1  0.24773815  0.50451719  0.72407462  1
  O2-  O126  1  0.75349575  -0.00209181  0.05502594  1
  O2-  O127  1  0.74340049  -0.00205546  0.39197419  1
  O2-  O128  1  0.75235048  0.00685671  0.72922782  1
  O2-  O129  1  0.74029659  0.49788411  0.05793422  1
  O2-  O130  1  0.74813023  0.50426929  0.40119118  1
  O2-  O131  1  0.75037215  0.49840055  0.72608698  1
  O2-  O132  1  -0.00142828  0.25656308  0.27039554  1
  O2-  O133  1  -0.00792636  0.25425848  0.60698588  1
  O2-  O134  1  0.00134573  0.25015866  0.94315715  1
  O2-  O135  1  -0.00209379  0.74491540  0.26958828  1
  O2-  O136  1  0.01048186  0.74900299  0.60780997  1
  O2-  O137  1  0.00010965  0.74899782  0.93321262  1
  O2-  O138  1  0.50079616  0.24721442  0.26642621  1
  O2-  O139  1  0.49435284  0.25145606  0.60829189  1
  O2-  O140  1  0.50118705  0.25062316  0.94113862  1
  O2-  O141  1  0.49540668  0.75322365  0.27364237  1
  O2-  O142  1  0.49284709  0.75246263  0.60530741  1
  O2-  O143  1  0.50184236  0.74439432  0.93963671  1
  O2-  O144  1  0.07297629  0.17844341  0.08949896  1
  O2-  O145  1  0.06967710  0.18082154  0.43184961  1
  O2-  O146  1  0.06864136  0.18635267  0.76743344  1
  O2-  O147  1  0.06999122  0.67707350  0.09817164  1
  O2-  O148  1  0.07326690  0.68042948  0.43437621  1
  O2-  O149  1  0.06903632  0.66882831  0.75614404  1
  O2-  O150  1  0.57339733  0.17886816  0.08838335  1
  O2-  O151  1  0.57255232  0.17687331  0.43103568  1
  O2-  O152  1  0.57039279  0.18211495  0.76728442  1
  O2-  O153  1  0.56992023  0.67742859  0.08957589  1
  O2-  O154  1  0.56939112  0.68006450  0.43242093  1
  O2-  O155  1  0.56777674  0.68037471  0.76721577  1
  O2-  O156  1  0.17964147  0.42543893  0.24559209  1
  O2-  O157  1  0.17827434  0.43081499  0.57644918  1
  O2-  O158  1  0.18253387  0.42636385  0.90057554  1
  O2-  O159  1  0.18076225  0.92797263  0.23225482  1
  O2-  O160  1  0.17634656  0.93018156  0.57239827  1
  O2-  O161  1  0.17746288  0.93383816  0.90937632  1
  O2-  O162  1  0.68207705  0.43193287  0.23488624  1
  O2-  O163  1  0.67638300  0.42844506  0.57936007  1
  O2-  O164  1  0.67901125  0.42098689  0.90965430  1
  O2-  O165  1  0.67518386  0.92881905  0.24235808  1
  O2-  O166  1  0.68329085  0.92753118  0.56750502  1
  O2-  O167  1  0.67559942  0.93220871  0.90999111  1
  O2-  O168  1  0.42657855  0.32120806  0.08635685  1
  O2-  O169  1  0.43111843  0.32082304  0.43035498  1
  O2-  O170  1  0.42970451  0.32365691  0.75735009  1
  O2-  O171  1  0.43179579  0.82451682  0.09880816  1
  O2-  O172  1  0.42871443  0.81964716  0.42572296  1
  O2-  O173  1  0.42855193  0.82032311  0.75541108  1
  O2-  O174  1  0.92546054  0.31556619  0.09095218  1
  O2-  O175  1  0.92926760  0.32073273  0.42241939  1
  O2-  O176  1  0.92852065  0.32769353  0.75644794  1
  O2-  O177  1  0.93052456  0.82610419  0.09487500  1
  O2-  O178  1  0.92998439  0.82247660  0.43108985  1
  O2-  O179  1  0.92885639  0.81458542  0.76526721  1
  O2-  O180  1  0.32064201  0.06865362  0.23252237  1
  O2-  O181  1  0.31908511  0.07329986  0.56974898  1
  O2-  O182  1  0.32312226  0.07152128  0.91064267  1
  O2-  O183  1  0.31985624  0.56984324  0.23246314  1
  O2-  O184  1  0.32683204  0.56947075  0.57863663  1
  O2-  O185  1  0.32584686  0.56795554  0.90874499  1
  O2-  O186  1  0.82054839  0.06845890  0.23219689  1
  O2-  O187  1  0.82143183  0.07462418  0.57898894  1
  O2-  O188  1  0.82010815  0.07667331  0.90844877  1
  O2-  O189  1  0.82102929  0.57227190  0.23719944  1
  O2-  O190  1  0.82007284  0.56897787  0.57797010  1
  O2-  O191  1  0.81643035  0.56839890  0.89969962  1
  O2-  O192  1  0.03598225  0.08569780  0.26307272  1
  O2-  O193  1  0.04028520  0.08576492  0.60037941  1
  O2-  O194  1  0.04429649  0.08878112  0.93588796  1
  O2-  O195  1  0.05018737  0.57493309  0.27270903  1
  O2-  O196  1  0.04561962  0.58361955  0.60271403  1
  O2-  O197  1  0.03975260  0.57593178  0.93436693  1
  O2-  O198  1  0.54591410  0.07754772  0.26323443  1
  O2-  O199  1  0.54421325  0.07977462  0.60205869  1
  O2-  O200  1  0.54240791  0.08812888  0.93649769  1
  O2-  O201  1  0.53917521  0.58335743  0.26446551  1
  O2-  O202  1  0.53993402  0.58241433  0.60181018  1
  O2-  O203  1  0.54892912  0.58160323  0.93856090  1
  O2-  O204  1  0.16652013  0.20929967  0.26290224  1
  O2-  O205  1  0.16494552  0.21711414  0.60027404  1
  O2-  O206  1  0.16495680  0.20906188  0.93799772  1
  O2-  O207  1  0.17131809  0.70585848  0.26768061  1
  O2-  O208  1  0.17118618  0.69573777  0.61110707  1
  O2-  O209  1  0.17017456  0.69853119  0.93235571  1
  O2-  O210  1  0.67204095  0.20685503  0.26576726  1
  O2-  O211  1  0.66763627  0.20981661  0.60113064  1
  O2-  O212  1  0.66354818  0.20659521  0.93502775  1
  O2-  O213  1  0.66518217  0.71061402  0.26306742  1
  O2-  O214  1  0.66490670  0.71171918  0.59998127  1
  O2-  O215  1  0.66378329  0.70539403  0.93808747  1
  O2-  O216  1  0.08194093  0.45064225  0.06886799  1
  O2-  O217  1  0.08285734  0.44422392  0.39786507  1
  O2-  O218  1  0.08616960  0.45721951  0.72974259  1
  O2-  O219  1  0.08715871  0.95920203  0.06082691  1
  O2-  O220  1  0.08108715  0.96038423  0.39826091  1
  O2-  O221  1  0.07899695  0.96345451  0.73858489  1
  O2-  O222  1  0.58034467  0.44413441  0.05803728  1
  O2-  O223  1  0.57970830  0.45602358  0.40059727  1
  O2-  O224  1  0.58702900  0.45750273  0.73316536  1
  O2-  O225  1  0.58833752  0.96300625  0.06384706  1
  O2-  O226  1  0.58294926  0.94984568  0.39556525  1
  O2-  O227  1  0.58427570  0.95779375  0.73638169  1
  O2-  O228  1  0.21518035  0.33324094  0.06840299  1
  O2-  O229  1  0.20860662  0.33382627  0.39679484  1
  O2-  O230  1  0.20845292  0.34149150  0.73110738  1
  O2-  O231  1  0.20684372  0.83570567  0.05664366  1
  O2-  O232  1  0.20562165  0.83190433  0.40297393  1
  O2-  O233  1  0.20111652  0.82904922  0.73901381  1
  O2-  O234  1  0.70661883  0.33195841  0.06195078  1
  O2-  O235  1  0.70962554  0.33291922  0.40236541  1
  O2-  O236  1  0.70580509  0.33704768  0.73265427  1
  O2-  O237  1  0.70010773  0.83720128  0.06148630  1
  O2-  O238  1  0.70409917  0.83451324  0.39369461  1
  O2-  O239  1  0.71421431  0.83313265  0.73581738  1
  O2-  O240  1  0.45989486  0.41723584  0.26062531  1
  O2-  O241  1  0.45674466  0.41535452  0.60598638  1
  O2-  O242  1  0.45398745  0.41201803  0.93245786  1
  O2-  O243  1  0.45217582  0.91384891  0.27237989  1
  O2-  O244  1  0.45229777  0.91638585  0.60638999  1
  O2-  O245  1  0.46428700  0.91704657  0.92980007  1
  O2-  O246  1  0.95068410  0.41696570  0.27251250  1
  O2-  O247  1  0.95567190  0.41828930  0.60341334  1
  O2-  O248  1  0.95543330  0.41062266  0.93885619  1
  O2-  O249  1  0.96051087  0.91776790  0.26265648  1
  O2-  O250  1  0.95543354  0.91874649  0.60214707  1
  O2-  O251  1  0.95733611  0.92084360  0.92791667  1
  O2-  O252  1  0.33197693  0.29441568  0.26040682  1
  O2-  O253  1  0.33326987  0.30245966  0.60643032  1
  O2-  O254  1  0.33751842  0.28951818  0.93330643  1
  O2-  O255  1  0.33407675  0.79366072  0.27447572  1
  O2-  O256  1  0.33040456  0.79822694  0.60741680  1
  O2-  O257  1  0.33443827  0.79452827  0.92708474  1
  O2-  O258  1  0.83552872  0.29383883  0.27001230  1
  O2-  O259  1  0.83180231  0.30556097  0.60593751  1
  O2-  O260  1  0.83797140  0.28993996  0.93549776  1
  O2-  O261  1  0.83019959  0.79749602  0.26336926  1
  O2-  O262  1  0.83609401  0.78553627  0.59783438  1
  O2-  O263  1  0.82778227  0.79432257  0.93268038  1
  O2-  O264  1  0.41500557  0.04193098  0.06169614  1
  O2-  O265  1  0.42105637  0.04412788  0.39910329  1
  O2-  O266  1  0.41893889  0.04486851  0.73701957  1
  O2-  O267  1  0.41590539  0.54227585  0.06041309  1
  O2-  O268  1  0.41497975  0.53610073  0.40036759  1
  O2-  O269  1  0.41300770  0.53838820  0.73415325  1
  O2-  O270  1  0.91542336  0.04593534  0.05898821  1
  O2-  O271  1  0.91530548  0.03713827  0.40093550  1
  O2-  O272  1  0.91474742  0.04843506  0.73089754  1
  O2-  O273  1  0.91246159  0.53636425  0.06831051  1
  O2-  O274  1  0.91941147  0.54252945  0.40593045  1
  O2-  O275  1  0.91228550  0.54313412  0.73029243  1
  O2-  O276  1  0.29620400  0.16256866  0.06157763  1
  O2-  O277  1  0.29689009  0.17238459  0.39622926  1
  O2-  O278  1  0.29080603  0.17203068  0.73568169  1
  O2-  O279  1  0.30408379  0.66938641  0.05648674  1
  O2-  O280  1  0.29235028  0.66516722  0.40485463  1
  O2-  O281  1  0.30164823  0.66416015  0.73097136  1
  O2-  O282  1  0.79192780  0.16213176  0.06218186  1
  O2-  O283  1  0.79577217  0.16696845  0.40182471  1
  O2-  O284  1  0.79832045  0.17017910  0.72920061  1
  O2-  O285  1  0.78927628  0.66819903  0.06739877  1
  O2-  O286  1  0.79339053  0.67379468  0.40030870  1
  O2-  O287  1  0.78851484  0.66110154  0.72974357  1
