# generated using pymatgen
data_Ca2Al2SiO7
_symmetry_space_group_name_H-M   'P 1'
_cell_length_a   15.46800905
_cell_length_b   15.46766650
_cell_length_c   15.29190884
_cell_angle_alpha   89.99719034
_cell_angle_beta   90.00522438
_cell_angle_gamma   89.99755537
_symmetry_Int_Tables_number   1
_chemical_formula_structural   Ca2Al2SiO7
_chemical_formula_sum   'Ca48 Al48 Si24 O168'
_cell_volume   3658.65041810
_cell_formula_units_Z   24
loop_
 _symmetry_equiv_pos_site_id
 _symmetry_equiv_pos_as_xyz
  1  'x, y, z'
loop_
 _atom_type_symbol
 _atom_type_oxidation_number
  Ca2+  2.0
  Al0+  0.0
  Si0+  0.0
  O2-  -2.0
loop_
 _atom_site_type_symbol
 _atom_site_label
 _atom_site_symmetry_multiplicity
 _atom_site_fract_x
 _atom_site_fract_y
 _atom_site_fract_z
 _atom_site_occupancy
  Ca2+  Ca0  1  0.16767380  0.07417980  0.17486954  1
  Ca2+  Ca1  1  0.16605716  0.07479836  0.51308796  1
  Ca2+  Ca2  1  0.16649403  0.08462633  0.82926906  1
  Ca2+  Ca3  1  0.16942878  0.58422146  0.17175421  1
  Ca2+  Ca4  1  0.17456976  0.58089434  0.51605582  1
  Ca2+  Ca5  1  0.16582274  0.58363397  0.82604681  1
  Ca2+  Ca6  1  0.67038517  0.08062614  0.16856879  1
  Ca2+  Ca7  1  0.66202673  0.08557446  0.50585320  1
  Ca2+  Ca8  1  0.67218865  0.07790458  0.84059056  1
  Ca2+  Ca9  1  0.67621082  0.58896064  0.16803959  1
  Ca2+  Ca10  1  0.67423156  0.58185297  0.51014923  1
  Ca2+  Ca11  1  0.67184527  0.57791366  0.83669077  1
  Ca2+  Ca12  1  0.07211045  0.33618680  0.16447710  1
  Ca2+  Ca13  1  0.07052785  0.34628887  0.50305578  1
  Ca2+  Ca14  1  0.07584047  0.32864716  0.81842122  1
  Ca2+  Ca15  1  0.07781690  0.83322911  0.16052363  1
  Ca2+  Ca16  1  0.08281272  0.83480380  0.50354958  1
  Ca2+  Ca17  1  0.07037845  0.83036416  0.82176067  1
  Ca2+  Ca18  1  0.58798262  0.33049594  0.16385984  1
  Ca2+  Ca19  1  0.58443603  0.32666339  0.50342728  1
  Ca2+  Ca20  1  0.58488808  0.33245843  0.82070290  1
  Ca2+  Ca21  1  0.59218386  0.82294175  0.16077729  1
  Ca2+  Ca22  1  0.58206090  0.81881696  0.49873881  1
  Ca2+  Ca23  1  0.59285792  0.82141034  0.82966656  1
  Ca2+  Ca24  1  0.33088357  0.41805491  0.16770009  1
  Ca2+  Ca25  1  0.32831237  0.41817546  0.51525124  1
  Ca2+  Ca26  1  0.33327145  0.41680352  0.82618310  1
  Ca2+  Ca27  1  0.32581674  0.91518501  0.17508596  1
  Ca2+  Ca28  1  0.32232031  0.92145047  0.51159941  1
  Ca2+  Ca29  1  0.32894895  0.91935767  0.82866029  1
  Ca2+  Ca30  1  0.82871569  0.42656898  0.17198908  1
  Ca2+  Ca31  1  0.83250366  0.42427255  0.50975476  1
  Ca2+  Ca32  1  0.82575705  0.42362994  0.83494758  1
  Ca2+  Ca33  1  0.83151764  0.91667522  0.16116414  1
  Ca2+  Ca34  1  0.83322413  0.91833519  0.50699788  1
  Ca2+  Ca35  1  0.83410796  0.91841059  0.84037425  1
  Ca2+  Ca36  1  0.42422853  0.16505130  0.16600045  1
  Ca2+  Ca37  1  0.42297729  0.16545610  0.50372249  1
  Ca2+  Ca38  1  0.42475084  0.17160526  0.81932797  1
  Ca2+  Ca39  1  0.43190579  0.66596426  0.16075871  1
  Ca2+  Ca40  1  0.43130280  0.65186569  0.50116924  1
  Ca2+  Ca41  1  0.42893044  0.66170324  0.82540576  1
  Ca2+  Ca42  1  0.91295935  0.17084165  0.16376200  1
  Ca2+  Ca43  1  0.92141509  0.18203517  0.50208527  1
  Ca2+  Ca44  1  0.91720166  0.17170628  0.82213562  1
  Ca2+  Ca45  1  0.91188192  0.66912171  0.15954840  1
  Ca2+  Ca46  1  0.91656466  0.66530480  0.50220252  1
  Ca2+  Ca47  1  0.91103472  0.67424331  0.82456470  1
  Al0+  Al48  1  0.00184494  -0.00002001  0.00155587  1
  Al0+  Al49  1  -0.00122540  0.00037117  0.33677092  1
  Al0+  Al50  1  -0.00207014  0.00020072  0.66256328  1
  Al0+  Al51  1  0.00126934  0.49864620  0.00231705  1
  Al0+  Al52  1  -0.00061634  0.50227692  0.33002564  1
  Al0+  Al53  1  0.00067134  0.50384957  0.66841252  1
  Al0+  Al54  1  0.49799535  -0.00025688  0.00437436  1
  Al0+  Al55  1  0.49943489  0.00008257  0.32838007  1
  Al0+  Al56  1  0.49929556  -0.00257652  0.66766371  1
  Al0+  Al57  1  0.49767360  0.49864181  0.00064099  1
  Al0+  Al58  1  0.50144400  0.49846243  0.32549211  1
  Al0+  Al59  1  0.50031088  0.49747589  0.66514873  1
  Al0+  Al60  1  0.25044185  0.24982487  0.00314714  1
  Al0+  Al61  1  0.24968970  0.24873013  0.33235155  1
  Al0+  Al62  1  0.25138652  0.24799574  0.66766546  1
  Al0+  Al63  1  0.25145574  0.74958292  0.00095936  1
  Al0+  Al64  1  0.24933342  0.74969652  0.33804867  1
  Al0+  Al65  1  0.24929470  0.75169868  0.67418961  1
  Al0+  Al66  1  0.75035573  0.25019217  0.00618745  1
  Al0+  Al67  1  0.74990919  0.25046640  0.32488925  1
  Al0+  Al68  1  0.75099469  0.24959173  0.66161971  1
  Al0+  Al69  1  0.75070305  0.75062385  -0.00157627  1
  Al0+  Al70  1  0.75123366  0.75131604  0.33382490  1
  Al0+  Al71  1  0.74939779  0.75128276  0.66002727  1
  Al0+  Al72  1  0.67589658  0.42859891  0.01618979  1
  Al0+  Al73  1  0.07190378  0.17849666  0.65311945  1
  Al0+  Al74  1  0.56975056  0.17826710  0.31680494  1
  Al0+  Al75  1  0.92906764  0.32394807  0.65406860  1
  Al0+  Al76  1  0.17800340  0.92883601  0.34850985  1
  Al0+  Al77  1  0.56998915  0.67993867  0.98483944  1
  Al0+  Al78  1  0.82366344  0.07154339  0.01474725  1
  Al0+  Al79  1  0.17758259  0.42816968  0.68108005  1
  Al0+  Al80  1  0.57272326  0.17570736  0.65438721  1
  Al0+  Al81  1  0.93058255  0.32313317  0.31719315  1
  Al0+  Al82  1  0.42922362  0.32046299  0.65259250  1
  Al0+  Al83  1  0.32251564  0.07081434  0.68237881  1
  Al0+  Al84  1  0.07229663  0.68046809  0.65209687  1
  Al0+  Al85  1  0.17556756  0.92980069  0.68515187  1
  Al0+  Al86  1  0.93166992  0.81990586  0.98727693  1
  Al0+  Al87  1  0.68035315  0.42730542  0.67877657  1
  Al0+  Al88  1  0.82033806  0.57210068  0.34909986  1
  Al0+  Al89  1  0.92753778  0.82140504  0.64947849  1
  Al0+  Al90  1  0.82131429  0.57052898  0.01475818  1
  Al0+  Al91  1  0.56997106  0.67778882  0.65395474  1
  Al0+  Al92  1  0.32341976  0.57179044  0.68196786  1
  Al0+  Al93  1  0.82085684  0.57398655  0.68119806  1
  Al0+  Al94  1  0.57222248  0.67900652  0.31788730  1
  Al0+  Al95  1  0.67808831  0.92915697  0.01471215  1
  Si0+  Si96  1  0.42767700  0.82041694  0.31783039  1
  Si0+  Si97  1  0.32195146  0.56890715  0.34591731  1
  Si0+  Si98  1  0.81951588  0.07296005  0.34992980  1
  Si0+  Si99  1  0.18003822  0.42723354  0.01655632  1
  Si0+  Si100  1  0.42714713  0.31929897  0.98488426  1
  Si0+  Si101  1  0.81930148  0.07056694  0.67802821  1
  Si0+  Si102  1  0.42771860  0.82149357  0.65154525  1
  Si0+  Si103  1  0.07529206  0.67598864  0.98397868  1
  Si0+  Si104  1  0.92943458  0.82355139  0.31643164  1
  Si0+  Si105  1  0.42527641  0.32165366  0.31396937  1
  Si0+  Si106  1  0.57066834  0.17879359  0.98621234  1
  Si0+  Si107  1  0.18069370  0.92918690  0.01567177  1
  Si0+  Si108  1  0.32014285  0.07270835  0.01777240  1
  Si0+  Si109  1  0.32028370  0.57125574  0.01672156  1
  Si0+  Si110  1  0.67776832  0.42677248  0.35015037  1
  Si0+  Si111  1  0.42498580  0.82346774  0.98291663  1
  Si0+  Si112  1  0.67866086  0.93018338  0.34891707  1
  Si0+  Si113  1  0.07186532  0.68097247  0.31820942  1
  Si0+  Si114  1  0.67827295  0.92847300  0.67902479  1
  Si0+  Si115  1  0.32281323  0.07174074  0.35038792  1
  Si0+  Si116  1  0.17912217  0.42908548  0.34574708  1
  Si0+  Si117  1  0.07207864  0.18008216  0.98729322  1
  Si0+  Si118  1  0.92882846  0.32076661  0.98505636  1
  Si0+  Si119  1  0.07096355  0.17706710  0.31628050  1
  O2-  O120  1  0.25232975  -0.00142868  0.06005735  1
  O2-  O121  1  0.25217485  0.00481807  0.39274351  1
  O2-  O122  1  0.24730377  0.00288457  0.73421811  1
  O2-  O123  1  0.24680759  0.50243869  0.05929386  1
  O2-  O124  1  0.25442455  0.49495144  0.38715195  1
  O2-  O125  1  0.24979715  0.50041188  0.73141268  1
  O2-  O126  1  0.74944586  0.00177874  0.06586676  1
  O2-  O127  1  0.74726572  0.00296147  0.39191602  1
  O2-  O128  1  0.74759602  0.00097218  0.72026827  1
  O2-  O129  1  0.74792780  0.50061936  0.06672934  1
  O2-  O130  1  0.74470574  0.49723390  0.39327636  1
  O2-  O131  1  0.75057843  0.49998068  0.72968759  1
  O2-  O132  1  0.00535181  0.24742501  0.26990501  1
  O2-  O133  1  0.00671503  0.25704098  0.60395595  1
  O2-  O134  1  -0.00254271  0.24653259  0.94504656  1
  O2-  O135  1  0.00099884  0.75189148  0.27564272  1
  O2-  O136  1  0.00001461  0.75011328  0.59897449  1
  O2-  O137  1  0.00357552  0.74199660  0.94249689  1
  O2-  O138  1  0.49476170  0.25339561  0.27011709  1
  O2-  O139  1  0.50084937  0.24758343  0.60393152  1
  O2-  O140  1  0.50325198  0.25307024  0.94467710  1
  O2-  O141  1  0.49666682  0.75366508  0.27131804  1
  O2-  O142  1  0.49051450  0.74788937  0.60665790  1
  O2-  O143  1  0.49685216  0.75797599  0.94008755  1
  O2-  O144  1  0.07443206  0.18292206  0.09280591  1
  O2-  O145  1  0.07001839  0.17605507  0.42076665  1
  O2-  O146  1  0.06552717  0.17766989  0.76755986  1
  O2-  O147  1  0.07930453  0.67881859  0.09043074  1
  O2-  O148  1  0.07452782  0.67962404  0.42217056  1
  O2-  O149  1  0.07123603  0.68273526  0.76591168  1
  O2-  O150  1  0.56679004  0.17833242  0.09158742  1
  O2-  O151  1  0.56819840  0.17644523  0.42904872  1
  O2-  O152  1  0.57335343  0.17447922  0.76827313  1
  O2-  O153  1  0.56780465  0.68188088  0.09852865  1
  O2-  O154  1  0.57031893  0.67898354  0.43057793  1
  O2-  O155  1  0.57125906  0.68084379  0.76688364  1
  O2-  O156  1  0.17993079  0.43150407  0.23977839  1
  O2-  O157  1  0.17924610  0.43133207  0.56670730  1
  O2-  O158  1  0.18124801  0.42259717  0.91271455  1
  O2-  O159  1  0.17991093  0.92953291  0.23419589  1
  O2-  O160  1  0.17804962  0.93129466  0.57130553  1
  O2-  O161  1  0.18063548  0.93052303  0.91169190  1
  O2-  O162  1  0.67898273  0.42772908  0.24428523  1
  O2-  O163  1  0.68143165  0.42700468  0.56489348  1
  O2-  O164  1  0.67657433  0.42681588  0.90327670  1
  O2-  O165  1  0.68100339  0.92966897  0.24389553  1
  O2-  O166  1  0.67821572  0.92876955  0.57339575  1
  O2-  O167  1  0.67760813  0.93176469  0.90123765  1
  O2-  O168  1  0.42278639  0.31598935  0.09038021  1
  O2-  O169  1  0.42160180  0.32341678  0.41828464  1
  O2-  O170  1  0.43181161  0.31942229  0.76680264  1
  O2-  O171  1  0.41912225  0.81986403  0.08880388  1
  O2-  O172  1  0.42868372  0.82093265  0.42277137  1
  O2-  O173  1  0.43260904  0.82408755  0.75713867  1
  O2-  O174  1  0.93281336  0.32177410  0.09054230  1
  O2-  O175  1  0.93238055  0.32373126  0.42948321  1
  O2-  O176  1  0.92672045  0.31863190  0.76795633  1
  O2-  O177  1  0.93583287  0.82093909  0.10121588  1
  O2-  O178  1  0.92872807  0.82555765  0.42071941  1
  O2-  O179  1  0.92665671  0.82274990  0.76311535  1
  O2-  O180  1  0.32136536  0.07043896  0.24382919  1
  O2-  O181  1  0.32573539  0.06490811  0.56871910  1
  O2-  O182  1  0.31930104  0.07608812  0.91376622  1
  O2-  O183  1  0.31851267  0.56972709  0.24015645  1
  O2-  O184  1  0.32351207  0.56890429  0.56753752  1
  O2-  O185  1  0.32134102  0.57136759  0.91264182  1
  O2-  O186  1  0.82055819  0.07068071  0.24476805  1
  O2-  O187  1  0.81794155  0.06997275  0.57259514  1
  O2-  O188  1  0.82321436  0.07231428  0.90123148  1
  O2-  O189  1  0.82086245  0.57274721  0.23578417  1
  O2-  O190  1  0.81785085  0.57337642  0.56718319  1
  O2-  O191  1  0.82289569  0.56890921  0.90216963  1
  O2-  O192  1  0.04162995  0.08417545  0.26899074  1
  O2-  O193  1  0.03632370  0.08443536  0.59696943  1
  O2-  O194  1  0.05039601  0.08632096  0.94254788  1
  O2-  O195  1  0.04486234  0.59011329  0.26771822  1
  O2-  O196  1  0.04822351  0.58142429  0.59898127  1
  O2-  O197  1  0.05463732  0.57987933  0.94206382  1
  O2-  O198  1  0.53771577  0.08228032  0.26000013  1
  O2-  O199  1  0.54248491  0.07773673  0.60050515  1
  O2-  O200  1  0.53994442  0.08692586  0.94114559  1
  O2-  O201  1  0.54149432  0.58312265  0.26167862  1
  O2-  O202  1  0.54109504  0.58188017  0.59849727  1
  O2-  O203  1  0.53424575  0.58321408  0.93480632  1
  O2-  O204  1  0.16640634  0.19894531  0.27048368  1
  O2-  O205  1  0.17353502  0.19465468  0.60422666  1
  O2-  O206  1  0.16289010  0.21186351  0.94053155  1
  O2-  O207  1  0.16413477  0.70895900  0.26952289  1
  O2-  O208  1  0.17238252  0.70899671  0.60156819  1
  O2-  O209  1  0.16847081  0.70345904  0.93884923  1
  O2-  O210  1  0.66578245  0.20770440  0.26096925  1
  O2-  O211  1  0.66898008  0.20406298  0.59755687  1
  O2-  O212  1  0.66523086  0.20162401  0.94318186  1
  O2-  O213  1  0.66808036  0.71483289  0.26502514  1
  O2-  O214  1  0.66201002  0.71495815  0.59622251  1
  O2-  O215  1  0.66647749  0.71027568  0.93223106  1
  O2-  O216  1  0.08813759  0.45274923  0.06541738  1
  O2-  O217  1  0.08879472  0.46148517  0.39106228  1
  O2-  O218  1  0.08063356  0.45728497  0.73631472  1
  O2-  O219  1  0.09059543  0.95882410  0.06558811  1
  O2-  O220  1  0.08114019  0.95895379  0.40096993  1
  O2-  O221  1  0.07641604  0.96025729  0.73512329  1
  O2-  O222  1  0.57534567  0.45258505  0.06839825  1
  O2-  O223  1  0.58135968  0.44972178  0.39103604  1
  O2-  O224  1  0.58162006  0.45324561  0.73053274  1
  O2-  O225  1  0.57849847  0.95447975  0.06902114  1
  O2-  O226  1  0.58485861  0.95613927  0.39272995  1
  O2-  O227  1  0.58712277  0.95256002  0.72815750  1
  O2-  O228  1  0.21308569  0.33826068  0.06808665  1
  O2-  O229  1  0.20061583  0.33463411  0.38962945  1
  O2-  O230  1  0.20458220  0.32940246  0.73352804  1
  O2-  O231  1  0.20772790  0.83662090  0.06358935  1
  O2-  O232  1  0.20874295  0.83251590  0.40233906  1
  O2-  O233  1  0.20497598  0.83334976  0.74044610  1
  O2-  O234  1  0.70500138  0.33076359  0.07043989  1
  O2-  O235  1  0.70440633  0.33207525  0.39226803  1
  O2-  O236  1  0.70920914  0.32837212  0.73133325  1
  O2-  O237  1  0.71045975  0.83243200  0.06859650  1
  O2-  O238  1  0.70871050  0.83959426  0.39670436  1
  O2-  O239  1  0.70927999  0.83822168  0.72630968  1
  O2-  O240  1  0.45103142  0.41426022  0.26447442  1
  O2-  O241  1  0.45648272  0.41738477  0.59661249  1
  O2-  O242  1  0.44729965  0.41355550  0.94067057  1
  O2-  O243  1  0.45006008  0.91422635  0.26992604  1
  O2-  O244  1  0.45903447  0.91143821  0.60164566  1
  O2-  O245  1  0.44579626  0.91977014  0.94101473  1
  O2-  O246  1  0.96513935  0.41814610  0.26058423  1
  O2-  O247  1  0.95555268  0.42258145  0.60140847  1
  O2-  O248  1  0.96051022  0.41153907  0.93895913  1
  O2-  O249  1  0.95827985  0.91531415  0.26876268  1
  O2-  O250  1  0.95576144  0.91906786  0.59516611  1
  O2-  O251  1  0.96474284  0.91675383  0.93473336  1
  O2-  O252  1  0.33175422  0.29492527  0.26545232  1
  O2-  O253  1  0.33086373  0.29353855  0.59955317  1
  O2-  O254  1  0.33681405  0.28631577  0.93802073  1
  O2-  O255  1  0.33370597  0.79254104  0.27190991  1
  O2-  O256  1  0.33132143  0.80329733  0.61011475  1
  O2-  O257  1  0.33281587  0.79488353  0.93545912  1
  O2-  O258  1  0.83529075  0.29137256  0.26176002  1
  O2-  O259  1  0.83536539  0.28887754  0.59651846  1
  O2-  O260  1  0.83556386  0.29486515  0.94111374  1
  O2-  O261  1  0.83774280  0.79524394  0.26941585  1
  O2-  O262  1  0.83042425  0.79423737  0.59322950  1
  O2-  O263  1  0.83403054  0.79493468  0.93427441  1
  O2-  O264  1  0.41180712  0.04672242  0.06675689  1
  O2-  O265  1  0.41654526  0.04451170  0.39386873  1
  O2-  O266  1  0.41900135  0.03639376  0.73772461  1
  O2-  O267  1  0.40940625  0.53933308  0.06710450  1
  O2-  O268  1  0.41582469  0.54289197  0.38905001  1
  O2-  O269  1  0.41998669  0.53935392  0.73561511  1
  O2-  O270  1  0.92175223  0.04213549  0.06994260  1
  O2-  O271  1  0.91061426  0.04352747  0.39682955  1
  O2-  O272  1  0.90986092  0.04208695  0.72616675  1
  O2-  O273  1  0.92117774  0.54247710  0.06806619  1
  O2-  O274  1  0.91900046  0.54152851  0.39870497  1
  O2-  O275  1  0.92021939  0.55153002  0.73264151  1
  O2-  O276  1  0.28840425  0.16230493  0.06860718  1
  O2-  O277  1  0.30024105  0.16702484  0.39340954  1
  O2-  O278  1  0.29949355  0.16960960  0.73609111  1
  O2-  O279  1  0.29414348  0.66334945  0.06594794  1
  O2-  O280  1  0.29311454  0.65939981  0.39371238  1
  O2-  O281  1  0.29850952  0.66999863  0.73639395  1
  O2-  O282  1  0.79613031  0.16889241  0.07030869  1
  O2-  O283  1  0.79182031  0.16592125  0.39385061  1
  O2-  O284  1  0.79320715  0.16203258  0.72607189  1
  O2-  O285  1  0.79332550  0.66956315  0.06685914  1
  O2-  O286  1  0.79149735  0.67010445  0.40080382  1
  O2-  O287  1  0.78834066  0.67254808  0.73113716  1
