# generated using pymatgen
data_Ca2Al2SiO7
_symmetry_space_group_name_H-M   'P 1'
_cell_length_a   15.45661538
_cell_length_b   15.45700220
_cell_length_c   15.28306553
_cell_angle_alpha   89.98725330
_cell_angle_beta   89.99571368
_cell_angle_gamma   89.99672497
_symmetry_Int_Tables_number   1
_chemical_formula_structural   Ca2Al2SiO7
_chemical_formula_sum   'Ca48 Al48 Si24 O168'
_cell_volume   3651.32197870
_cell_formula_units_Z   24
loop_
 _symmetry_equiv_pos_site_id
 _symmetry_equiv_pos_as_xyz
  1  'x, y, z'
loop_
 _atom_type_symbol
 _atom_type_oxidation_number
  Ca2+  2.0
  Al0+  0.0
  Si0+  0.0
  O2-  -2.0
loop_
 _atom_site_type_symbol
 _atom_site_label
 _atom_site_symmetry_multiplicity
 _atom_site_fract_x
 _atom_site_fract_y
 _atom_site_fract_z
 _atom_site_occupancy
  Ca2+  Ca0  1  0.17117377  0.08099364  0.17725870  1
  Ca2+  Ca1  1  0.17156452  0.08099658  0.50815115  1
  Ca2+  Ca2  1  0.16641673  0.07981224  0.82886616  1
  Ca2+  Ca3  1  0.17710275  0.58957624  0.16877849  1
  Ca2+  Ca4  1  0.17162248  0.58114267  0.50809085  1
  Ca2+  Ca5  1  0.16513032  0.58321889  0.83883445  1
  Ca2+  Ca6  1  0.66238150  0.07779469  0.16675487  1
  Ca2+  Ca7  1  0.66962943  0.07967412  0.50368712  1
  Ca2+  Ca8  1  0.66498756  0.07588146  0.84393151  1
  Ca2+  Ca9  1  0.67266345  0.58928725  0.17452503  1
  Ca2+  Ca10  1  0.67359415  0.58619453  0.49713850  1
  Ca2+  Ca11  1  0.67875496  0.58952410  0.83991520  1
  Ca2+  Ca12  1  0.08770954  0.32664173  0.16806315  1
  Ca2+  Ca13  1  0.09683408  0.32257030  0.49959747  1
  Ca2+  Ca14  1  0.08700085  0.33035709  0.82391538  1
  Ca2+  Ca15  1  0.07159633  0.82579495  0.16044093  1
  Ca2+  Ca16  1  0.07530616  0.83443638  0.49870688  1
  Ca2+  Ca17  1  0.07628026  0.82221013  0.82541197  1
  Ca2+  Ca18  1  0.58193830  0.33396990  0.16526839  1
  Ca2+  Ca19  1  0.57268972  0.33702482  0.49252918  1
  Ca2+  Ca20  1  0.57681358  0.32834307  0.82883330  1
  Ca2+  Ca21  1  0.57924679  0.82377167  0.16398088  1
  Ca2+  Ca22  1  0.57527086  0.82654864  0.49096878  1
  Ca2+  Ca23  1  0.58744292  0.82921357  0.83594219  1
  Ca2+  Ca24  1  0.33918795  0.42753057  0.17221871  1
  Ca2+  Ca25  1  0.33474562  0.41882875  0.50293840  1
  Ca2+  Ca26  1  0.32777714  0.41800977  0.83279452  1
  Ca2+  Ca27  1  0.33461986  0.92220398  0.17646295  1
  Ca2+  Ca28  1  0.33126022  0.92724190  0.50725283  1
  Ca2+  Ca29  1  0.32541299  0.91746755  0.83387000  1
  Ca2+  Ca30  1  0.82539835  0.43106657  0.17663052  1
  Ca2+  Ca31  1  0.82901499  0.42806885  0.50339561  1
  Ca2+  Ca32  1  0.83878008  0.43204705  0.83786841  1
  Ca2+  Ca33  1  0.82871475  0.90468774  0.16728639  1
  Ca2+  Ca34  1  0.83684134  0.90948500  0.50226939  1
  Ca2+  Ca35  1  0.83295673  0.91176771  0.83883237  1
  Ca2+  Ca36  1  0.41869592  0.17286965  0.16557904  1
  Ca2+  Ca37  1  0.40354560  0.17681727  0.49592910  1
  Ca2+  Ca38  1  0.41887548  0.16922734  0.82612918  1
  Ca2+  Ca39  1  0.42517276  0.65942840  0.16358606  1
  Ca2+  Ca40  1  0.42017574  0.67105741  0.48559423  1
  Ca2+  Ca41  1  0.42299500  0.65882597  0.83361958  1
  Ca2+  Ca42  1  0.92224439  0.16798591  0.16573550  1
  Ca2+  Ca43  1  0.93258248  0.16489428  0.49455001  1
  Ca2+  Ca44  1  0.92241069  0.17111907  0.82530475  1
  Ca2+  Ca45  1  0.91415939  0.67103119  0.15940371  1
  Ca2+  Ca46  1  0.91742464  0.66981290  0.49858881  1
  Ca2+  Ca47  1  0.91887308  0.67201659  0.82684082  1
  Al0+  Al48  1  0.00022132  0.00083637  -0.00278732  1
  Al0+  Al49  1  -0.00055826  -0.00071593  0.32320554  1
  Al0+  Al50  1  -0.00050980  0.00026837  0.66435720  1
  Al0+  Al51  1  0.00076436  0.49766298  0.00489641  1
  Al0+  Al52  1  0.00033465  0.49805080  0.33777631  1
  Al0+  Al53  1  0.00020169  0.50102348  0.67069047  1
  Al0+  Al54  1  0.50041537  0.00096683  0.00062832  1
  Al0+  Al55  1  0.50010298  0.00124181  0.33645660  1
  Al0+  Al56  1  0.50184889  -0.00010981  0.67093429  1
  Al0+  Al57  1  0.49860357  0.49926678  -0.00385515  1
  Al0+  Al58  1  0.50000442  0.49919822  0.33317304  1
  Al0+  Al59  1  0.50191060  0.49793140  0.66314359  1
  Al0+  Al60  1  0.24995333  0.24985896  0.00007798  1
  Al0+  Al61  1  0.25206718  0.24883030  0.32503077  1
  Al0+  Al62  1  0.25199768  0.25184340  0.66886061  1
  Al0+  Al63  1  0.24914049  0.75084901  0.00201421  1
  Al0+  Al64  1  0.24711489  0.75223157  0.33514022  1
  Al0+  Al65  1  0.25102682  0.75135980  0.66788923  1
  Al0+  Al66  1  0.75038821  0.24879326  -0.00470051  1
  Al0+  Al67  1  0.75072507  0.24963395  0.33840504  1
  Al0+  Al68  1  0.74876201  0.24977979  0.66670767  1
  Al0+  Al69  1  0.74724857  0.75182891  0.00117408  1
  Al0+  Al70  1  0.74936064  0.75073931  0.33226430  1
  Al0+  Al71  1  0.74962294  0.74978819  0.66646074  1
  Al0+  Al72  1  0.31963863  0.57234436  0.34650631  1
  Al0+  Al73  1  0.06965454  0.18149629  0.65389506  1
  Al0+  Al74  1  0.92829971  0.81961775  0.65069096  1
  Al0+  Al75  1  0.81869455  0.57042672  0.68195660  1
  Al0+  Al76  1  0.82007680  0.57086209  0.01436143  1
  Al0+  Al77  1  0.07355929  0.67664895  0.65085090  1
  Al0+  Al78  1  0.57035996  0.17876089  0.98682992  1
  Al0+  Al79  1  0.67806580  0.42726498  0.34884108  1
  Al0+  Al80  1  0.43036161  0.32017816  0.31796970  1
  Al0+  Al81  1  0.42562701  0.82415574  0.32018212  1
  Al0+  Al82  1  0.17665565  0.92790080  0.68249024  1
  Al0+  Al83  1  0.32099785  0.07198875  0.68344552  1
  Al0+  Al84  1  0.56806245  0.67985301  0.31859166  1
  Al0+  Al85  1  0.82197215  0.57398854  0.35012323  1
  Al0+  Al86  1  0.43108232  0.31908825  0.65227972  1
  Al0+  Al87  1  0.56901786  0.67885559  0.98535238  1
  Al0+  Al88  1  0.93018687  0.81843263  0.31774903  1
  Al0+  Al89  1  0.07262057  0.67710753  0.98594580  1
  Al0+  Al90  1  0.32090904  0.07037015  0.34636557  1
  Al0+  Al91  1  0.67916157  0.93045454  0.01550560  1
  Al0+  Al92  1  0.92805907  0.81985745  0.98358203  1
  Al0+  Al93  1  0.07085043  0.18050556  0.31854005  1
  Al0+  Al94  1  0.32057396  0.57036331  0.01268441  1
  Al0+  Al95  1  0.18090154  0.43117275  0.67880452  1
  Si0+  Si96  1  0.42721123  0.32159481  0.98103136  1
  Si0+  Si97  1  0.92590183  0.32234952  0.31764180  1
  Si0+  Si98  1  0.57607445  0.17719240  0.31806031  1
  Si0+  Si99  1  0.17769844  0.93011512  0.01627155  1
  Si0+  Si100  1  0.67995721  0.93031596  0.34920368  1
  Si0+  Si101  1  0.32017782  0.07119627  0.01610161  1
  Si0+  Si102  1  0.57307770  0.17537013  0.64885937  1
  Si0+  Si103  1  0.07263338  0.67346391  0.31744807  1
  Si0+  Si104  1  0.82134511  0.07229554  0.68066796  1
  Si0+  Si105  1  0.67815187  0.42606978  0.01386773  1
  Si0+  Si106  1  0.17805639  0.42504564  0.01901163  1
  Si0+  Si107  1  0.42713232  0.82399686  0.98308970  1
  Si0+  Si108  1  0.42932648  0.82278581  0.65369570  1
  Si0+  Si109  1  0.67643485  0.42671718  0.68546603  1
  Si0+  Si110  1  0.82328860  0.07103932  0.34782065  1
  Si0+  Si111  1  0.17961703  0.42664079  0.34857684  1
  Si0+  Si112  1  0.57033963  0.67979773  0.65194445  1
  Si0+  Si113  1  0.07237402  0.17946978  0.98327973  1
  Si0+  Si114  1  0.82370358  0.07382387  0.01688429  1
  Si0+  Si115  1  0.17456323  0.92973762  0.34879233  1
  Si0+  Si116  1  0.32516527  0.57384353  0.68179444  1
  Si0+  Si117  1  0.92561774  0.32391503  0.65000402  1
  Si0+  Si118  1  0.67996198  0.92957874  0.68196652  1
  Si0+  Si119  1  0.92925001  0.32010826  0.98579294  1
  O2-  O120  1  0.24930982  0.00069423  0.05895044  1
  O2-  O121  1  0.24845878  -0.00665865  0.39230479  1
  O2-  O122  1  0.25008355  -0.00107746  0.73368535  1
  O2-  O123  1  0.24457591  0.49675288  0.06033219  1
  O2-  O124  1  0.24276608  0.49992906  0.39306355  1
  O2-  O125  1  0.25157851  0.50998926  0.72543272  1
  O2-  O126  1  0.75632447  0.00414627  0.06126453  1
  O2-  O127  1  0.75177041  0.00109112  0.39111989  1
  O2-  O128  1  0.74983451  0.00233244  0.72317366  1
  O2-  O129  1  0.74346090  0.49672160  0.05923368  1
  O2-  O130  1  0.75044012  0.49964403  0.39783564  1
  O2-  O131  1  0.74648173  0.49316298  0.72999983  1
  O2-  O132  1  -0.00394119  0.25556614  0.27186752  1
  O2-  O133  1  -0.00515329  0.25576597  0.60573751  1
  O2-  O134  1  0.00119011  0.25037671  0.94229869  1
  O2-  O135  1  0.00092100  0.73922917  0.27339037  1
  O2-  O136  1  0.00204175  0.74938542  0.60098972  1
  O2-  O137  1  -0.00175473  0.74590733  0.93477412  1
  O2-  O138  1  0.50868812  0.24720765  0.27436067  1
  O2-  O139  1  0.50497334  0.24343330  0.60472620  1
  O2-  O140  1  0.49645103  0.25269845  0.93830576  1
  O2-  O141  1  0.49214177  0.74824564  0.26857169  1
  O2-  O142  1  0.49432800  0.74631926  0.61153451  1
  O2-  O143  1  0.49246495  0.75209300  0.93803348  1
  O2-  O144  1  0.07308399  0.17974842  0.08842547  1
  O2-  O145  1  0.07098919  0.18033030  0.43146744  1
  O2-  O146  1  0.06661425  0.18316386  0.76752739  1
  O2-  O147  1  0.07393444  0.68083490  0.09965083  1
  O2-  O148  1  0.07396341  0.67418037  0.42279021  1
  O2-  O149  1  0.07114400  0.67634989  0.76436193  1
  O2-  O150  1  0.56841716  0.17946341  0.09985151  1
  O2-  O151  1  0.57800176  0.17561985  0.42347604  1
  O2-  O152  1  0.57396256  0.17548305  0.75461054  1
  O2-  O153  1  0.56876891  0.67891722  0.09772326  1
  O2-  O154  1  0.56870479  0.68394348  0.43291030  1
  O2-  O155  1  0.57133162  0.68127892  0.75731868  1
  O2-  O156  1  0.18063938  0.42607210  0.24276839  1
  O2-  O157  1  0.18550817  0.42824680  0.56590046  1
  O2-  O158  1  0.17937043  0.41976189  0.91361394  1
  O2-  O159  1  0.17321031  0.93369612  0.24272219  1
  O2-  O160  1  0.17768164  0.93077009  0.56886122  1
  O2-  O161  1  0.17802215  0.93231181  0.91144054  1
  O2-  O162  1  0.68178224  0.42417596  0.23493412  1
  O2-  O163  1  0.67569290  0.42703447  0.58032759  1
  O2-  O164  1  0.68120916  0.42512753  0.90813675  1
  O2-  O165  1  0.67950179  0.93177494  0.24434566  1
  O2-  O166  1  0.67825214  0.93050275  0.57672762  1
  O2-  O167  1  0.67899877  0.93299534  0.90188664  1
  O2-  O168  1  0.42633122  0.32101779  0.08647031  1
  O2-  O169  1  0.42775818  0.31768505  0.43093020  1
  O2-  O170  1  0.43350762  0.31874339  0.76568062  1
  O2-  O171  1  0.42915602  0.82690788  0.08834124  1
  O2-  O172  1  0.43092692  0.82507922  0.43435991  1
  O2-  O173  1  0.43216093  0.82459963  0.75891449  1
  O2-  O174  1  0.92880297  0.31715584  0.09075059  1
  O2-  O175  1  0.92480345  0.31915661  0.42296027  1
  O2-  O176  1  0.92495377  0.32016425  0.75622116  1
  O2-  O177  1  0.93015621  0.81950838  0.09723658  1
  O2-  O178  1  0.93217455  0.82224665  0.43046046  1
  O2-  O179  1  0.92521387  0.81846949  0.76382613  1
  O2-  O180  1  0.31886498  0.07023786  0.23249081  1
  O2-  O181  1  0.32012382  0.07083175  0.56993787  1
  O2-  O182  1  0.31874288  0.07236410  0.91123155  1
  O2-  O183  1  0.31987083  0.56993895  0.23327018  1
  O2-  O184  1  0.32759824  0.57217184  0.57630516  1
  O2-  O185  1  0.32170789  0.56648185  0.89940803  1
  O2-  O186  1  0.82249222  0.07288976  0.24284958  1
  O2-  O187  1  0.81981914  0.07335422  0.57544303  1
  O2-  O188  1  0.82336010  0.07613767  0.91111995  1
  O2-  O189  1  0.82037090  0.57341046  0.23631267  1
  O2-  O190  1  0.81525037  0.57160759  0.56930298  1
  O2-  O191  1  0.82006890  0.56912602  0.90103239  1
  O2-  O192  1  0.03696293  0.08688699  0.26048453  1
  O2-  O193  1  0.03799370  0.08603228  0.59910657  1
  O2-  O194  1  0.04490034  0.08808930  0.93570214  1
  O2-  O195  1  0.05243516  0.57764155  0.27313755  1
  O2-  O196  1  0.04519362  0.57743792  0.59960006  1
  O2-  O197  1  0.05048583  0.57436167  0.93918478  1
  O2-  O198  1  0.54762533  0.08449758  0.27201348  1
  O2-  O199  1  0.54991514  0.08046409  0.60426734  1
  O2-  O200  1  0.53848484  0.08306991  0.93140733  1
  O2-  O201  1  0.54462256  0.58042235  0.26669222  1
  O2-  O202  1  0.54862774  0.58616969  0.60614895  1
  O2-  O203  1  0.53995819  0.58210185  0.92930689  1
  O2-  O204  1  0.16479604  0.21228873  0.26011376  1
  O2-  O205  1  0.16650749  0.21337011  0.60222367  1
  O2-  O206  1  0.16416468  0.20800022  0.93623041  1
  O2-  O207  1  0.16468684  0.70371655  0.27056665  1
  O2-  O208  1  0.17425465  0.70287102  0.60071985  1
  O2-  O209  1  0.17063375  0.70795747  0.93300122  1
  O2-  O210  1  0.67056165  0.19986926  0.27176185  1
  O2-  O211  1  0.66776516  0.19960988  0.60347169  1
  O2-  O212  1  0.66773738  0.20573547  0.93090083  1
  O2-  O213  1  0.66483659  0.71389215  0.26645176  1
  O2-  O214  1  0.65891257  0.71426345  0.60355567  1
  O2-  O215  1  0.66350857  0.71461963  0.93065625  1
  O2-  O216  1  0.08372038  0.44463281  0.06589626  1
  O2-  O217  1  0.08362764  0.44208371  0.39390531  1
  O2-  O218  1  0.08277198  0.45374162  0.73439494  1
  O2-  O219  1  0.08616602  0.96067722  0.06328821  1
  O2-  O220  1  0.08281536  0.96293703  0.39390299  1
  O2-  O221  1  0.07891701  0.96010467  0.73533937  1
  O2-  O222  1  0.58214622  0.44734253  0.05593525  1
  O2-  O223  1  0.58033339  0.45622032  0.40187761  1
  O2-  O224  1  0.58335678  0.45400346  0.73204497  1
  O2-  O225  1  0.58335372  0.96465965  0.06969332  1
  O2-  O226  1  0.58958787  0.95951166  0.39923379  1
  O2-  O227  1  0.58930908  0.95635793  0.73243562  1
  O2-  O228  1  0.20744911  0.33224892  0.06666741  1
  O2-  O229  1  0.21228727  0.33428389  0.39247430  1
  O2-  O230  1  0.21573331  0.33738663  0.73666840  1
  O2-  O231  1  0.20403022  0.83869158  0.06442270  1
  O2-  O232  1  0.19170401  0.83445104  0.39374145  1
  O2-  O233  1  0.20683201  0.83007596  0.73692961  1
  O2-  O234  1  0.70577493  0.33251402  0.05964671  1
  O2-  O235  1  0.70533441  0.32870206  0.40419453  1
  O2-  O236  1  0.69897686  0.33092930  0.72990297  1
  O2-  O237  1  0.70777627  0.83459284  0.07095876  1
  O2-  O238  1  0.70840235  0.83962236  0.39764275  1
  O2-  O239  1  0.70878813  0.83855775  0.72970138  1
  O2-  O240  1  0.46073076  0.41611170  0.26340997  1
  O2-  O241  1  0.46229726  0.41545386  0.59714349  1
  O2-  O242  1  0.45224754  0.41389116  0.93292882  1
  O2-  O243  1  0.45951234  0.92141675  0.26739004  1
  O2-  O244  1  0.46353905  0.91279859  0.60598912  1
  O2-  O245  1  0.45667654  0.91595325  0.93563072  1
  O2-  O246  1  0.95041224  0.41655744  0.27209958  1
  O2-  O247  1  0.94976489  0.41782133  0.60651683  1
  O2-  O248  1  0.95734346  0.41170785  0.93872391  1
  O2-  O249  1  0.96081022  0.91365385  0.26037019  1
  O2-  O250  1  0.95316903  0.91977960  0.59928738  1
  O2-  O251  1  0.95608537  0.92025340  0.93316980  1
  O2-  O252  1  0.33747149  0.28598136  0.25903086  1
  O2-  O253  1  0.33482507  0.28855433  0.59873844  1
  O2-  O254  1  0.33358970  0.29306501  0.93585357  1
  O2-  O255  1  0.32377533  0.80514728  0.27093165  1
  O2-  O256  1  0.33579023  0.80301680  0.60738183  1
  O2-  O257  1  0.33220768  0.80146853  0.93913055  1
  O2-  O258  1  0.83369351  0.29308309  0.27054256  1
  O2-  O259  1  0.83156576  0.29762700  0.60473360  1
  O2-  O260  1  0.83907790  0.29204504  0.93500245  1
  O2-  O261  1  0.83201621  0.79150388  0.26583361  1
  O2-  O262  1  0.82949204  0.79011905  0.59765756  1
  O2-  O263  1  0.82781883  0.79566833  0.93375288  1
  O2-  O264  1  0.41208275  0.04409486  0.06265621  1
  O2-  O265  1  0.41844059  0.04528604  0.40171869  1
  O2-  O266  1  0.42067518  0.04363735  0.73537264  1
  O2-  O267  1  0.41708237  0.53634662  0.06608552  1
  O2-  O268  1  0.41570561  0.54027990  0.39990859  1
  O2-  O269  1  0.41743171  0.54148672  0.72805996  1
  O2-  O270  1  0.91867013  0.05077901  0.06188327  1
  O2-  O271  1  0.91507638  0.04019001  0.39327446  1
  O2-  O272  1  0.91234979  0.04546400  0.72919898  1
  O2-  O273  1  0.91607866  0.53800099  0.06871431  1
  O2-  O274  1  0.92078172  0.54489171  0.40257096  1
  O2-  O275  1  0.91536552  0.54093340  0.73637486  1
  O2-  O276  1  0.29177932  0.16356479  0.06294645  1
  O2-  O277  1  0.28556997  0.16691231  0.39699509  1
  O2-  O278  1  0.29141292  0.16906142  0.73760982  1
  O2-  O279  1  0.29392463  0.66846197  0.06646050  1
  O2-  O280  1  0.29258929  0.67055511  0.40027403  1
  O2-  O281  1  0.30791760  0.66934010  0.72677226  1
  O2-  O282  1  0.79619966  0.16713740  0.06327451  1
  O2-  O283  1  0.79823952  0.16196818  0.39835015  1
  O2-  O284  1  0.79513890  0.16476269  0.72925675  1
  O2-  O285  1  0.78810210  0.66733601  0.06620971  1
  O2-  O286  1  0.78924709  0.67129113  0.40304377  1
  O2-  O287  1  0.78281107  0.66602993  0.73548215  1
