# generated using pymatgen
data_Ca2Al2SiO7
_symmetry_space_group_name_H-M   'P 1'
_cell_length_a   15.46266440
_cell_length_b   15.46117001
_cell_length_c   15.28509002
_cell_angle_alpha   90.00400535
_cell_angle_beta   90.00839220
_cell_angle_gamma   89.97613517
_symmetry_Int_Tables_number   1
_chemical_formula_structural   Ca2Al2SiO7
_chemical_formula_sum   'Ca48 Al48 Si24 O168'
_cell_volume   3654.21960339
_cell_formula_units_Z   24
loop_
 _symmetry_equiv_pos_site_id
 _symmetry_equiv_pos_as_xyz
  1  'x, y, z'
loop_
 _atom_type_symbol
 _atom_type_oxidation_number
  Ca2+  2.0
  Al0+  0.0
  Si0+  0.0
  O2-  -2.0
loop_
 _atom_site_type_symbol
 _atom_site_label
 _atom_site_symmetry_multiplicity
 _atom_site_fract_x
 _atom_site_fract_y
 _atom_site_fract_z
 _atom_site_occupancy
  Ca2+  Ca0  1  0.17273767  0.09318832  0.16918960  1
  Ca2+  Ca1  1  0.16602155  0.08173086  0.50610195  1
  Ca2+  Ca2  1  0.17167181  0.07651456  0.83966444  1
  Ca2+  Ca3  1  0.16007846  0.57813918  0.16499352  1
  Ca2+  Ca4  1  0.16772079  0.57820538  0.51043010  1
  Ca2+  Ca5  1  0.15516236  0.57680666  0.83884325  1
  Ca2+  Ca6  1  0.66781051  0.08259420  0.17009914  1
  Ca2+  Ca7  1  0.66219473  0.07537261  0.50498103  1
  Ca2+  Ca8  1  0.66715613  0.08045910  0.83881579  1
  Ca2+  Ca9  1  0.67357901  0.58528224  0.17162382  1
  Ca2+  Ca10  1  0.66411667  0.57881386  0.50816374  1
  Ca2+  Ca11  1  0.66990376  0.57884980  0.83640711  1
  Ca2+  Ca12  1  0.07571808  0.33136676  0.16268188  1
  Ca2+  Ca13  1  0.08011037  0.33051528  0.49322166  1
  Ca2+  Ca14  1  0.07937157  0.34173518  0.83360792  1
  Ca2+  Ca15  1  0.07038443  0.82793348  0.15710574  1
  Ca2+  Ca16  1  0.07259815  0.83792408  0.49801653  1
  Ca2+  Ca17  1  0.07331355  0.82776695  0.82364052  1
  Ca2+  Ca18  1  0.57328063  0.32260572  0.15871083  1
  Ca2+  Ca19  1  0.58424372  0.32213586  0.49329195  1
  Ca2+  Ca20  1  0.58621386  0.32072318  0.82777232  1
  Ca2+  Ca21  1  0.59239794  0.82943386  0.16824493  1
  Ca2+  Ca22  1  0.59707717  0.82405379  0.49728003  1
  Ca2+  Ca23  1  0.58529244  0.82914728  0.82472525  1
  Ca2+  Ca24  1  0.33084897  0.40575449  0.16755845  1
  Ca2+  Ca25  1  0.33046784  0.41436527  0.50514606  1
  Ca2+  Ca26  1  0.32105160  0.41205469  0.84050581  1
  Ca2+  Ca27  1  0.33292648  0.92422970  0.16819990  1
  Ca2+  Ca28  1  0.32434792  0.91889035  0.50857866  1
  Ca2+  Ca29  1  0.32741044  0.92011602  0.83875297  1
  Ca2+  Ca30  1  0.84271393  0.42195346  0.16757645  1
  Ca2+  Ca31  1  0.82871838  0.41697451  0.50623162  1
  Ca2+  Ca32  1  0.82938543  0.42198215  0.84228778  1
  Ca2+  Ca33  1  0.83434920  0.92008102  0.17099049  1
  Ca2+  Ca34  1  0.82802159  0.91322782  0.50361444  1
  Ca2+  Ca35  1  0.83189542  0.91732216  0.83728405  1
  Ca2+  Ca36  1  0.42450626  0.17049493  0.15961995  1
  Ca2+  Ca37  1  0.42774544  0.17166550  0.49374350  1
  Ca2+  Ca38  1  0.42328086  0.16593832  0.83468568  1
  Ca2+  Ca39  1  0.42458116  0.66688479  0.16644509  1
  Ca2+  Ca40  1  0.42974706  0.66508414  0.49797295  1
  Ca2+  Ca41  1  0.42306411  0.66691000  0.82809265  1
  Ca2+  Ca42  1  0.91561720  0.17580902  0.16033553  1
  Ca2+  Ca43  1  0.92432698  0.17436673  0.49088260  1
  Ca2+  Ca44  1  0.90718951  0.17264907  0.83469374  1
  Ca2+  Ca45  1  0.91519918  0.67757481  0.15662725  1
  Ca2+  Ca46  1  0.91818152  0.67888421  0.50069263  1
  Ca2+  Ca47  1  0.92168318  0.67271251  0.83225113  1
  Al0+  Al48  1  -0.00247048  -0.00019942  0.00082467  1
  Al0+  Al49  1  0.00121110  0.00045001  0.32598893  1
  Al0+  Al50  1  0.00016985  0.00234592  0.66786413  1
  Al0+  Al51  1  -0.00137348  0.49935944  0.00284953  1
  Al0+  Al52  1  0.00128964  0.50140050  0.33542806  1
  Al0+  Al53  1  -0.00030385  0.50197489  0.66546389  1
  Al0+  Al54  1  0.49838910  -0.00192092  0.00173949  1
  Al0+  Al55  1  0.49932610  -0.00182805  0.33706180  1
  Al0+  Al56  1  0.50079776  0.00086796  0.66678836  1
  Al0+  Al57  1  0.49665644  0.49852364  -0.00328669  1
  Al0+  Al58  1  0.50024246  0.50166840  0.32634175  1
  Al0+  Al59  1  0.49920625  0.49925670  0.66861114  1
  Al0+  Al60  1  0.24994793  0.24929504  0.00511034  1
  Al0+  Al61  1  0.25019627  0.25043657  0.33169379  1
  Al0+  Al62  1  0.25016520  0.25156284  0.67163803  1
  Al0+  Al63  1  0.25102632  0.74691079  -0.00102324  1
  Al0+  Al64  1  0.25178924  0.74894146  0.33594880  1
  Al0+  Al65  1  0.25004055  0.74974935  0.66799246  1
  Al0+  Al66  1  0.74912171  0.24784114  -0.00314334  1
  Al0+  Al67  1  0.75086294  0.25127419  0.32718477  1
  Al0+  Al68  1  0.74901558  0.25033236  0.66411882  1
  Al0+  Al69  1  0.75010498  0.74822756  -0.00080204  1
  Al0+  Al70  1  0.75219239  0.74988726  0.32982467  1
  Al0+  Al71  1  0.75075922  0.75094035  0.66418160  1
  Al0+  Al72  1  0.81806002  0.56914634  0.01384425  1
  Al0+  Al73  1  0.57012179  0.67887274  0.65461012  1
  Al0+  Al74  1  0.67808407  0.42756416  0.67911203  1
  Al0+  Al75  1  0.93012966  0.81987050  0.31832346  1
  Al0+  Al76  1  0.43016151  0.32145775  0.31933906  1
  Al0+  Al77  1  0.57193309  0.17848470  0.65111740  1
  Al0+  Al78  1  0.92973246  0.82409977  0.65014038  1
  Al0+  Al79  1  0.17752540  0.92894690  0.68010546  1
  Al0+  Al80  1  0.07087422  0.67876567  0.98594060  1
  Al0+  Al81  1  0.57173216  0.17491598  0.31794212  1
  Al0+  Al82  1  0.93001961  0.31997465  0.98501118  1
  Al0+  Al83  1  0.68119471  0.92970889  0.34728193  1
  Al0+  Al84  1  0.68002068  0.92886266  0.68017297  1
  Al0+  Al85  1  0.57130442  0.68080842  0.31942801  1
  Al0+  Al86  1  0.17859175  0.43016993  0.68019601  1
  Al0+  Al87  1  0.57035166  0.17701174  0.98319747  1
  Al0+  Al88  1  0.42636752  0.32067369  0.98184073  1
  Al0+  Al89  1  0.82060286  0.07155856  0.01414137  1
  Al0+  Al90  1  0.07212223  0.67797600  0.65016603  1
  Al0+  Al91  1  0.31977764  0.06859656  0.01488040  1
  Al0+  Al92  1  0.17940815  0.43078862  0.01651159  1
  Al0+  Al93  1  0.92875292  0.32384656  0.31893057  1
  Al0+  Al94  1  0.92707260  0.82302721  0.98273881  1
  Al0+  Al95  1  0.07148139  0.17887025  0.31877685  1
  Si0+  Si96  1  0.42893301  0.82004292  0.98597222  1
  Si0+  Si97  1  0.82393890  0.07411601  0.34924494  1
  Si0+  Si98  1  0.07267586  0.17775470  0.98238981  1
  Si0+  Si99  1  0.82176174  0.57117093  0.35007830  1
  Si0+  Si100  1  0.07275271  0.18097737  0.65499163  1
  Si0+  Si101  1  0.17766029  0.92556293  0.01694190  1
  Si0+  Si102  1  0.32007239  0.07163129  0.35037858  1
  Si0+  Si103  1  0.07509450  0.67853153  0.31792159  1
  Si0+  Si104  1  0.67797627  0.43052311  0.34589524  1
  Si0+  Si105  1  0.32180610  0.07196965  0.68349349  1
  Si0+  Si106  1  0.42673029  0.32036405  0.65112476  1
  Si0+  Si107  1  0.67564063  0.42690773  0.01679750  1
  Si0+  Si108  1  0.32339321  0.57219185  0.34984079  1
  Si0+  Si109  1  0.18041682  0.43031088  0.34971712  1
  Si0+  Si110  1  0.32285692  0.57227609  0.68378252  1
  Si0+  Si111  1  0.82080993  0.57169601  0.68269156  1
  Si0+  Si112  1  0.82234758  0.07342999  0.68144377  1
  Si0+  Si113  1  0.17871921  0.92797524  0.34709456  1
  Si0+  Si114  1  0.32482622  0.57375882  0.01950197  1
  Si0+  Si115  1  0.57135031  0.67832822  0.98501801  1
  Si0+  Si116  1  0.42776421  0.82330423  0.65087212  1
  Si0+  Si117  1  0.42486391  0.82147420  0.31786592  1
  Si0+  Si118  1  0.92880836  0.32185738  0.65304264  1
  Si0+  Si119  1  0.67767270  0.92697558  0.01626984  1
  O2-  O120  1  0.24282280  -0.00351623  0.06348532  1
  O2-  O121  1  0.24814706  0.00036808  0.39096420  1
  O2-  O122  1  0.25435809  0.00143239  0.72674505  1
  O2-  O123  1  0.25588699  0.50479386  0.06291212  1
  O2-  O124  1  0.25213140  0.50101527  0.39157680  1
  O2-  O125  1  0.25069667  0.50712466  0.72716978  1
  O2-  O126  1  0.74665479  -0.00455958  0.05954389  1
  O2-  O127  1  0.75322359  0.00778438  0.39442905  1
  O2-  O128  1  0.75444650  0.00369792  0.72529535  1
  O2-  O129  1  0.74344899  0.49530031  0.06324641  1
  O2-  O130  1  0.75208639  0.49784220  0.39058224  1
  O2-  O131  1  0.75171771  0.50289702  0.72609305  1
  O2-  O132  1  -0.00272606  0.24850842  0.26954597  1
  O2-  O133  1  0.00193361  0.25215139  0.61248043  1
  O2-  O134  1  0.00290251  0.24424813  0.93621389  1
  O2-  O135  1  0.00715123  0.74689805  0.27365000  1
  O2-  O136  1  0.00424097  0.75375142  0.60036706  1
  O2-  O137  1  0.00354136  0.75447265  0.93546071  1
  O2-  O138  1  0.50069036  0.24834208  0.26957882  1
  O2-  O139  1  0.49768062  0.25476435  0.60630768  1
  O2-  O140  1  0.50106477  0.25160134  0.93243570  1
  O2-  O141  1  0.49789452  0.75738987  0.27353268  1
  O2-  O142  1  0.49727333  0.75531780  0.60672992  1
  O2-  O143  1  0.49960625  0.74888414  0.94389427  1
  O2-  O144  1  0.07208456  0.18071972  0.08795239  1
  O2-  O145  1  0.07228666  0.18102201  0.43348949  1
  O2-  O146  1  0.07401434  0.18068052  0.75957160  1
  O2-  O147  1  0.06958935  0.68132886  0.10017871  1
  O2-  O148  1  0.07573861  0.67874109  0.42336531  1
  O2-  O149  1  0.06773518  0.67646200  0.76313858  1
  O2-  O150  1  0.56838914  0.17595949  0.09668012  1
  O2-  O151  1  0.56955914  0.17634987  0.43204524  1
  O2-  O152  1  0.57180872  0.17780591  0.76361166  1
  O2-  O153  1  0.57168017  0.67989752  0.09031138  1
  O2-  O154  1  0.56994836  0.67888523  0.43247363  1
  O2-  O155  1  0.56803643  0.67996441  0.76792575  1
  O2-  O156  1  0.17913493  0.43170843  0.24505205  1
  O2-  O157  1  0.18140589  0.42786698  0.56655440  1
  O2-  O158  1  0.17921511  0.43276002  0.90321638  1
  O2-  O159  1  0.18238565  0.92490859  0.24240435  1
  O2-  O160  1  0.17855564  0.93377054  0.56623163  1
  O2-  O161  1  0.18184760  0.92619726  0.91128670  1
  O2-  O162  1  0.67667381  0.43459926  0.24117187  1
  O2-  O163  1  0.68087894  0.42757994  0.56527425  1
  O2-  O164  1  0.67764802  0.43002667  0.91086535  1
  O2-  O165  1  0.68342899  0.92784765  0.23426792  1
  O2-  O166  1  0.68157998  0.92901811  0.56703032  1
  O2-  O167  1  0.67606590  0.92598433  0.91057014  1
  O2-  O168  1  0.42882864  0.31838857  0.09545674  1
  O2-  O169  1  0.43027960  0.32094535  0.43358148  1
  O2-  O170  1  0.42407724  0.31731409  0.75604549  1
  O2-  O171  1  0.42875269  0.81985957  0.09120963  1
  O2-  O172  1  0.41885710  0.81784958  0.42304363  1
  O2-  O173  1  0.42849333  0.82248457  0.75683025  1
  O2-  O174  1  0.93251357  0.32057123  0.09775021  1
  O2-  O175  1  0.93157916  0.32479650  0.43349692  1
  O2-  O176  1  0.92772595  0.32172555  0.75789726  1
  O2-  O177  1  0.92635392  0.82023653  0.09664860  1
  O2-  O178  1  0.93030408  0.81939222  0.43134367  1
  O2-  O179  1  0.92920626  0.82379880  0.76300539  1
  O2-  O180  1  0.31999940  0.07038037  0.24545049  1
  O2-  O181  1  0.31933668  0.07282475  0.57743943  1
  O2-  O182  1  0.31963299  0.06423743  0.90158356  1
  O2-  O183  1  0.32282419  0.57597380  0.24530673  1
  O2-  O184  1  0.32528502  0.56936931  0.57773601  1
  O2-  O185  1  0.32790660  0.57629488  0.91426454  1
  O2-  O186  1  0.82402276  0.07202916  0.24391173  1
  O2-  O187  1  0.82346855  0.07559019  0.57579881  1
  O2-  O188  1  0.81816526  0.07175254  0.90078329  1
  O2-  O189  1  0.82139137  0.57168919  0.24500013  1
  O2-  O190  1  0.82053218  0.56958274  0.57645676  1
  O2-  O191  1  0.81486841  0.56918271  0.90070257  1
  O2-  O192  1  0.05135754  0.08000418  0.26437484  1
  O2-  O193  1  0.04506021  0.09022685  0.60564096  1
  O2-  O194  1  0.04996612  0.08240164  0.93920933  1
  O2-  O195  1  0.04885007  0.58473266  0.27368335  1
  O2-  O196  1  0.04032066  0.58074168  0.59502168  1
  O2-  O197  1  0.03697779  0.58196562  0.93469912  1
  O2-  O198  1  0.54155540  0.07614587  0.26752269  1
  O2-  O199  1  0.53922523  0.08219856  0.59740893  1
  O2-  O200  1  0.53805694  0.07815518  0.93252221  1
  O2-  O201  1  0.53843585  0.58733588  0.26182391  1
  O2-  O202  1  0.53767723  0.58230802  0.59999073  1
  O2-  O203  1  0.54377362  0.58655389  0.93804872  1
  O2-  O204  1  0.16846580  0.21019006  0.26600255  1
  O2-  O205  1  0.16442942  0.20883136  0.60651640  1
  O2-  O206  1  0.16628815  0.20374379  0.93791532  1
  O2-  O207  1  0.16948545  0.70200281  0.27266083  1
  O2-  O208  1  0.17385042  0.70005562  0.60096233  1
  O2-  O209  1  0.17253821  0.69855991  0.93559975  1
  O2-  O210  1  0.67064432  0.20105352  0.26677712  1
  O2-  O211  1  0.66792254  0.20991705  0.59572860  1
  O2-  O212  1  0.66851378  0.20406701  0.92983240  1
  O2-  O213  1  0.66684540  0.71132062  0.26416947  1
  O2-  O214  1  0.66656733  0.70757566  0.59969842  1
  O2-  O215  1  0.66166530  0.70663511  0.93633139  1
  O2-  O216  1  0.08401335  0.46327857  0.07176522  1
  O2-  O217  1  0.08906145  0.45888461  0.39868175  1
  O2-  O218  1  0.08060707  0.45909765  0.73263605  1
  O2-  O219  1  0.08245156  0.94771392  0.06010811  1
  O2-  O220  1  0.08616878  0.95574955  0.39308319  1
  O2-  O221  1  0.08296888  0.96302276  0.73541709  1
  O2-  O222  1  0.58087269  0.45276771  0.06022513  1
  O2-  O223  1  0.58719365  0.46239672  0.39344140  1
  O2-  O224  1  0.58161414  0.45678873  0.73364856  1
  O2-  O225  1  0.58401308  0.95088781  0.06313768  1
  O2-  O226  1  0.58157373  0.95222619  0.40085718  1
  O2-  O227  1  0.58204190  0.95721419  0.73322897  1
  O2-  O228  1  0.20891079  0.33386549  0.07058149  1
  O2-  O229  1  0.20805849  0.33805272  0.39698947  1
  O2-  O230  1  0.20956598  0.33461842  0.73640631  1
  O2-  O231  1  0.20750789  0.83285423  0.06279491  1
  O2-  O232  1  0.20820915  0.83704431  0.39651170  1
  O2-  O233  1  0.20680075  0.83183729  0.73360434  1
  O2-  O234  1  0.70060705  0.33263105  0.05993211  1
  O2-  O235  1  0.70302640  0.33676810  0.39168952  1
  O2-  O236  1  0.71103697  0.33195734  0.73328892  1
  O2-  O237  1  0.70344178  0.83304170  0.06162641  1
  O2-  O238  1  0.71605492  0.83265880  0.39966688  1
  O2-  O239  1  0.70925722  0.83160597  0.73382106  1
  O2-  O240  1  0.45554743  0.41932163  0.26474768  1
  O2-  O241  1  0.44855748  0.41566648  0.60754903  1
  O2-  O242  1  0.44767714  0.42180248  0.93107272  1
  O2-  O243  1  0.44678181  0.91642760  0.27437003  1
  O2-  O244  1  0.45038545  0.91729293  0.60495445  1
  O2-  O245  1  0.45653962  0.91053708  0.93693854  1
  O2-  O246  1  0.96152461  0.42171372  0.26738780  1
  O2-  O247  1  0.95490171  0.41349227  0.60497567  1
  O2-  O248  1  0.96202311  0.41606570  0.93174871  1
  O2-  O249  1  0.95869906  0.91623463  0.26400138  1
  O2-  O250  1  0.95804033  0.92357574  0.59789375  1
  O2-  O251  1  0.95129016  0.92310552  0.93202471  1
  O2-  O252  1  0.33160954  0.29337998  0.26812570  1
  O2-  O253  1  0.33384510  0.29184165  0.60351837  1
  O2-  O254  1  0.32791402  0.28840715  0.93191949  1
  O2-  O255  1  0.33408500  0.79128243  0.26793886  1
  O2-  O256  1  0.33427301  0.79782708  0.60452914  1
  O2-  O257  1  0.33775776  0.79259206  0.93711095  1
  O2-  O258  1  0.82979926  0.30253844  0.26540863  1
  O2-  O259  1  0.83882290  0.29227042  0.60322196  1
  O2-  O260  1  0.83293141  0.29082345  0.93118338  1
  O2-  O261  1  0.83630317  0.78540971  0.26277174  1
  O2-  O262  1  0.83288995  0.79105948  0.59651869  1
  O2-  O263  1  0.82958320  0.78962983  0.93097419  1
  O2-  O264  1  0.41431707  0.03290142  0.07075114  1
  O2-  O265  1  0.41069008  0.04281441  0.39964974  1
  O2-  O266  1  0.41513509  0.04644249  0.72913151  1
  O2-  O267  1  0.41870084  0.54810153  0.06619309  1
  O2-  O268  1  0.41556245  0.54316491  0.39653581  1
  O2-  O269  1  0.41467796  0.54465734  0.73238751  1
  O2-  O270  1  0.91824576  0.04426732  0.06900070  1
  O2-  O271  1  0.91861340  0.04692987  0.39364413  1
  O2-  O272  1  0.91593640  0.05113509  0.72887008  1
  O2-  O273  1  0.91344747  0.53840656  0.06963491  1
  O2-  O274  1  0.91415127  0.54537590  0.39818871  1
  O2-  O275  1  0.91364856  0.54455067  0.72846338  1
  O2-  O276  1  0.29036123  0.16439768  0.07057801  1
  O2-  O277  1  0.29131253  0.16316987  0.39832367  1
  O2-  O278  1  0.29388251  0.16396683  0.73083318  1
  O2-  O279  1  0.30026976  0.66752504  0.06712340  1
  O2-  O280  1  0.29630451  0.66331899  0.40009682  1
  O2-  O281  1  0.30356576  0.66770174  0.72848593  1
  O2-  O282  1  0.78958200  0.16830074  0.06827855  1
  O2-  O283  1  0.80253943  0.17014360  0.39333054  1
  O2-  O284  1  0.79421664  0.16625603  0.72777405  1
  O2-  O285  1  0.78540006  0.66532638  0.06904851  1
  O2-  O286  1  0.79048204  0.66171609  0.39721800  1
  O2-  O287  1  0.79460125  0.66493084  0.72773406  1
