# generated using pymatgen
data_Ca2Al2SiO7
_symmetry_space_group_name_H-M   'P 1'
_cell_length_a   15.45223273
_cell_length_b   15.45212960
_cell_length_c   15.27923964
_cell_angle_alpha   90.00178639
_cell_angle_beta   89.99478852
_cell_angle_gamma   89.99375299
_symmetry_Int_Tables_number   1
_chemical_formula_structural   Ca2Al2SiO7
_chemical_formula_sum   'Ca48 Al48 Si24 O168'
_cell_volume   3648.22252384
_cell_formula_units_Z   24
loop_
 _symmetry_equiv_pos_site_id
 _symmetry_equiv_pos_as_xyz
  1  'x, y, z'
loop_
 _atom_type_symbol
 _atom_type_oxidation_number
  Ca2+  2.0
  Al0+  0.0
  Si0+  0.0
  O2-  -2.0
loop_
 _atom_site_type_symbol
 _atom_site_label
 _atom_site_symmetry_multiplicity
 _atom_site_fract_x
 _atom_site_fract_y
 _atom_site_fract_z
 _atom_site_occupancy
  Ca2+  Ca0  1  0.17173299  0.08058157  0.17242104  1
  Ca2+  Ca1  1  0.17761623  0.08930989  0.50301913  1
  Ca2+  Ca2  1  0.17912673  0.07521853  0.84130719  1
  Ca2+  Ca3  1  0.16134866  0.58610241  0.16973002  1
  Ca2+  Ca4  1  0.17052080  0.58662836  0.50471032  1
  Ca2+  Ca5  1  0.17292751  0.59045568  0.83589651  1
  Ca2+  Ca6  1  0.67437302  0.07096943  0.17537714  1
  Ca2+  Ca7  1  0.66656802  0.07817331  0.49909974  1
  Ca2+  Ca8  1  0.66354456  0.07558204  0.83873970  1
  Ca2+  Ca9  1  0.66014164  0.57341202  0.16981437  1
  Ca2+  Ca10  1  0.66777660  0.57899493  0.50655393  1
  Ca2+  Ca11  1  0.67115320  0.58582245  0.83865301  1
  Ca2+  Ca12  1  0.07705924  0.32276572  0.16233126  1
  Ca2+  Ca13  1  0.07779904  0.32955914  0.49545269  1
  Ca2+  Ca14  1  0.07026155  0.33438232  0.83016744  1
  Ca2+  Ca15  1  0.08254279  0.82745470  0.16351074  1
  Ca2+  Ca16  1  0.07114352  0.82949862  0.49056773  1
  Ca2+  Ca17  1  0.08155179  0.83376197  0.83155901  1
  Ca2+  Ca18  1  0.58198334  0.33698362  0.16437690  1
  Ca2+  Ca19  1  0.57971869  0.32857232  0.49497559  1
  Ca2+  Ca20  1  0.58670292  0.32524055  0.82884921  1
  Ca2+  Ca21  1  0.58249208  0.83827962  0.16324400  1
  Ca2+  Ca22  1  0.57488246  0.83093320  0.49653821  1
  Ca2+  Ca23  1  0.58306745  0.82457437  0.82545071  1
  Ca2+  Ca24  1  0.33423287  0.41924942  0.17510918  1
  Ca2+  Ca25  1  0.33364085  0.42157621  0.50454923  1
  Ca2+  Ca26  1  0.33557784  0.42532092  0.83361781  1
  Ca2+  Ca27  1  0.33182014  0.92606984  0.17231678  1
  Ca2+  Ca28  1  0.33971667  0.92241995  0.50485315  1
  Ca2+  Ca29  1  0.33600570  0.92439592  0.83862198  1
  Ca2+  Ca30  1  0.82256713  0.41256366  0.17008805  1
  Ca2+  Ca31  1  0.83045948  0.42220820  0.50671647  1
  Ca2+  Ca32  1  0.83189230  0.41959096  0.83849101  1
  Ca2+  Ca33  1  0.82356283  0.91386656  0.17624090  1
  Ca2+  Ca34  1  0.83435687  0.91450775  0.50061820  1
  Ca2+  Ca35  1  0.82807896  0.91437763  0.83742803  1
  Ca2+  Ca36  1  0.40973149  0.16897610  0.16788244  1
  Ca2+  Ca37  1  0.42020242  0.16448220  0.49403174  1
  Ca2+  Ca38  1  0.42146414  0.15963882  0.82686947  1
  Ca2+  Ca39  1  0.42324526  0.67741497  0.16210564  1
  Ca2+  Ca40  1  0.41515959  0.67669893  0.49740807  1
  Ca2+  Ca41  1  0.42862906  0.67077725  0.82361786  1
  Ca2+  Ca42  1  0.91642115  0.16511081  0.16635987  1
  Ca2+  Ca43  1  0.92107494  0.16890707  0.49218146  1
  Ca2+  Ca44  1  0.91007920  0.18133690  0.82806698  1
  Ca2+  Ca45  1  0.92574901  0.66954853  0.16511668  1
  Ca2+  Ca46  1  0.91459379  0.67577021  0.49609964  1
  Ca2+  Ca47  1  0.92044103  0.67058237  0.82537180  1
  Al0+  Al48  1  0.00253686  0.00046237  0.00174012  1
  Al0+  Al49  1  -0.00009687  -0.00036070  0.32784620  1
  Al0+  Al50  1  -0.00030046  0.00103329  0.66558634  1
  Al0+  Al51  1  0.00137890  0.50104447  -0.00809122  1
  Al0+  Al52  1  -0.00071110  0.49894032  0.33049178  1
  Al0+  Al53  1  -0.00201912  0.49931039  0.66654117  1
  Al0+  Al54  1  0.50042550  0.00250779  0.00933177  1
  Al0+  Al55  1  0.50094728  0.00049771  0.33576931  1
  Al0+  Al56  1  0.50115436  -0.00018862  0.66376603  1
  Al0+  Al57  1  0.50049776  0.50091743  -0.00117093  1
  Al0+  Al58  1  0.49878648  0.49891124  0.33557186  1
  Al0+  Al59  1  0.49952120  0.49760578  0.66892153  1
  Al0+  Al60  1  0.24959055  0.25294365  0.00033327  1
  Al0+  Al61  1  0.24893920  0.25123964  0.32964745  1
  Al0+  Al62  1  0.24951954  0.24982281  0.67534258  1
  Al0+  Al63  1  0.25057820  0.75150237  -0.00065494  1
  Al0+  Al64  1  0.25211752  0.75069546  0.32496045  1
  Al0+  Al65  1  0.25019555  0.75015459  0.66905678  1
  Al0+  Al66  1  0.74845820  0.25131266  -0.00006717  1
  Al0+  Al67  1  0.74839554  0.24916162  0.34177527  1
  Al0+  Al68  1  0.74948400  0.24928512  0.65665891  1
  Al0+  Al69  1  0.75133510  0.74896272  0.00205532  1
  Al0+  Al70  1  0.74907679  0.74727396  0.33327137  1
  Al0+  Al71  1  0.75066283  0.74761111  0.66334279  1
  Al0+  Al72  1  0.92653174  0.82112785  0.31633673  1
  Al0+  Al73  1  0.92941478  0.82189846  0.65411841  1
  Al0+  Al74  1  0.07174666  0.67807446  0.31912648  1
  Al0+  Al75  1  0.31779212  0.07183654  0.34865523  1
  Al0+  Al76  1  0.43000310  0.32082437  0.32078835  1
  Al0+  Al77  1  0.32146551  0.07310572  0.01772111  1
  Al0+  Al78  1  0.57192154  0.67593071  0.65099599  1
  Al0+  Al79  1  0.92905970  0.32215443  0.65069253  1
  Al0+  Al80  1  0.43117692  0.82331598  0.31762902  1
  Al0+  Al81  1  0.32241470  0.06994054  0.68053327  1
  Al0+  Al82  1  0.67971047  0.42978490  0.01256772  1
  Al0+  Al83  1  0.17844788  0.92725058  0.01705992  1
  Al0+  Al84  1  0.67890906  0.92595895  0.35164199  1
  Al0+  Al85  1  0.57119553  0.67875586  0.98693093  1
  Al0+  Al86  1  0.82353762  0.06947124  0.34954197  1
  Al0+  Al87  1  0.07119699  0.17960655  0.32023639  1
  Al0+  Al88  1  0.68124545  0.92717237  0.01170266  1
  Al0+  Al89  1  0.32087566  0.57179474  0.68038382  1
  Al0+  Al90  1  0.92822273  0.31819592  0.98731520  1
  Al0+  Al91  1  0.56999099  0.17817500  0.65266363  1
  Al0+  Al92  1  0.42852826  0.82066657  0.65327836  1
  Al0+  Al93  1  0.67686649  0.42940208  0.34936941  1
  Al0+  Al94  1  0.07192381  0.68025010  0.98309151  1
  Al0+  Al95  1  0.81969357  0.57108211  0.68082541  1
  Si0+  Si96  1  0.56903221  0.18012422  0.98769092  1
  Si0+  Si97  1  0.07256222  0.67804864  0.65117058  1
  Si0+  Si98  1  0.42719444  0.32290876  0.98405854  1
  Si0+  Si99  1  0.07421012  0.17742903  0.98112620  1
  Si0+  Si100  1  0.92580115  0.32135792  0.31699067  1
  Si0+  Si101  1  0.68083620  0.92980212  0.68081589  1
  Si0+  Si102  1  0.92792495  0.82307250  0.98337476  1
  Si0+  Si103  1  0.07236529  0.17929718  0.65233683  1
  Si0+  Si104  1  0.67853810  0.42591084  0.68363527  1
  Si0+  Si105  1  0.42573918  0.32115752  0.65225286  1
  Si0+  Si106  1  0.82471102  0.57146606  0.01697302  1
  Si0+  Si107  1  0.57078827  0.67644193  0.31718111  1
  Si0+  Si108  1  0.17676670  0.42774790  0.68521700  1
  Si0+  Si109  1  0.17902764  0.92565193  0.35002506  1
  Si0+  Si110  1  0.82145088  0.07380944  0.01327124  1
  Si0+  Si111  1  0.17553078  0.92863884  0.68182378  1
  Si0+  Si112  1  0.82250320  0.07229505  0.68162380  1
  Si0+  Si113  1  0.17795133  0.42953263  0.34638626  1
  Si0+  Si114  1  0.32150795  0.56997330  0.01553843  1
  Si0+  Si115  1  0.17760807  0.43122629  0.01512227  1
  Si0+  Si116  1  0.57271859  0.17887510  0.31488360  1
  Si0+  Si117  1  0.43064442  0.82426944  0.98422912  1
  Si0+  Si118  1  0.82370471  0.56929340  0.34966474  1
  Si0+  Si119  1  0.32001425  0.57185366  0.34640762  1
  O2-  O120  1  0.24866133  0.00143540  0.06636897  1
  O2-  O121  1  0.24540886  -0.00454052  0.39667390  1
  O2-  O122  1  0.24808378  -0.00583193  0.72553120  1
  O2-  O123  1  0.24896432  0.50102709  0.05904066  1
  O2-  O124  1  0.24559173  0.50385404  0.38827364  1
  O2-  O125  1  0.24509340  0.49788765  0.72832538  1
  O2-  O126  1  0.75988208  -0.00134967  0.05665997  1
  O2-  O127  1  0.75393880  -0.00429971  0.40116578  1
  O2-  O128  1  0.75255863  0.00031182  0.72423748  1
  O2-  O129  1  0.75375812  0.50454808  0.06072438  1
  O2-  O130  1  0.75364826  0.50212092  0.39434596  1
  O2-  O131  1  0.74421778  0.49705717  0.72833276  1
  O2-  O132  1  -0.00840202  0.24971015  0.27334525  1
  O2-  O133  1  0.00470514  0.24783808  0.60631813  1
  O2-  O134  1  0.00094035  0.24207966  0.93807063  1
  O2-  O135  1  0.00086115  0.75038906  0.26809012  1
  O2-  O136  1  0.00479655  0.74757020  0.60773108  1
  O2-  O137  1  -0.00211186  0.75617693  0.93795318  1
  O2-  O138  1  0.50422425  0.24776912  0.27035814  1
  O2-  O139  1  0.49264415  0.25136907  0.60804658  1
  O2-  O140  1  0.49562606  0.24850259  0.94390242  1
  O2-  O141  1  0.50881811  0.75080141  0.27197751  1
  O2-  O142  1  0.49742073  0.74585632  0.60244179  1
  O2-  O143  1  0.50062508  0.75715012  0.93988202  1
  O2-  O144  1  0.07552113  0.18096152  0.08665618  1
  O2-  O145  1  0.07406561  0.18615304  0.43353209  1
  O2-  O146  1  0.07044585  0.18047399  0.75801696  1
  O2-  O147  1  0.06886178  0.67730098  0.09570098  1
  O2-  O148  1  0.07210516  0.67763344  0.43286268  1
  O2-  O149  1  0.07164668  0.67952297  0.75695999  1
  O2-  O150  1  0.57117934  0.18267989  0.09222480  1
  O2-  O151  1  0.57044891  0.18001964  0.42065656  1
  O2-  O152  1  0.57080967  0.17816947  0.76680277  1
  O2-  O153  1  0.56612613  0.67487250  0.09981584  1
  O2-  O154  1  0.56617991  0.67402182  0.42252394  1
  O2-  O155  1  0.57269419  0.67938555  0.76509741  1
  O2-  O156  1  0.17895437  0.42931482  0.24106972  1
  O2-  O157  1  0.17771554  0.42548103  0.57932290  1
  O2-  O158  1  0.17911194  0.43105713  0.91013080  1
  O2-  O159  1  0.18268513  0.92607960  0.24453720  1
  O2-  O160  1  0.17254749  0.93073447  0.57653358  1
  O2-  O161  1  0.17969135  0.92892284  0.90279680  1
  O2-  O162  1  0.67693187  0.43099198  0.23569209  1
  O2-  O163  1  0.67982461  0.42656461  0.57805011  1
  O2-  O164  1  0.68094645  0.42692216  0.89977853  1
  O2-  O165  1  0.67943033  0.92939323  0.23755130  1
  O2-  O166  1  0.68099057  0.93134599  0.57631825  1
  O2-  O167  1  0.68042452  0.92968997  0.89786727  1
  O2-  O168  1  0.42734868  0.32567986  0.08903065  1
  O2-  O169  1  0.42955498  0.32146844  0.43380520  1
  O2-  O170  1  0.42742534  0.32162174  0.75835374  1
  O2-  O171  1  0.43177796  0.82200693  0.08990959  1
  O2-  O172  1  0.42801056  0.81969105  0.43051094  1
  O2-  O173  1  0.43244023  0.82212848  0.76729350  1
  O2-  O174  1  0.92879519  0.31644801  0.10034038  1
  O2-  O175  1  0.93011576  0.32405616  0.42249224  1
  O2-  O176  1  0.92835004  0.32048041  0.76423846  1
  O2-  O177  1  0.92659134  0.82055003  0.08840133  1
  O2-  O178  1  0.92864312  0.81857780  0.43034470  1
  O2-  O179  1  0.92991526  0.82221107  0.76752825  1
  O2-  O180  1  0.31473477  0.07318172  0.23594956  1
  O2-  O181  1  0.32016717  0.07285014  0.56766281  1
  O2-  O182  1  0.32325669  0.07114880  0.90363205  1
  O2-  O183  1  0.32172927  0.56866372  0.24105915  1
  O2-  O184  1  0.31787041  0.57008308  0.56691384  1
  O2-  O185  1  0.32162343  0.56703475  0.91042772  1
  O2-  O186  1  0.81912280  0.07198177  0.23534698  1
  O2-  O187  1  0.82451791  0.07161117  0.57721787  1
  O2-  O188  1  0.81674524  0.07677685  0.90719052  1
  O2-  O189  1  0.82579843  0.56608198  0.24389114  1
  O2-  O190  1  0.82047044  0.56910043  0.56780549  1
  O2-  O191  1  0.82386227  0.57054969  0.91115878  1
  O2-  O192  1  0.04612195  0.08287029  0.26447489  1
  O2-  O193  1  0.04719242  0.08649049  0.60553161  1
  O2-  O194  1  0.05440163  0.08174422  0.93743084  1
  O2-  O195  1  0.04276453  0.57927199  0.26495878  1
  O2-  O196  1  0.04817481  0.58373963  0.60685564  1
  O2-  O197  1  0.04285068  0.58425039  0.92661221  1
  O2-  O198  1  0.54693119  0.08525124  0.27005582  1
  O2-  O199  1  0.54010701  0.08313358  0.59675583  1
  O2-  O200  1  0.54218057  0.08741552  0.94066650  1
  O2-  O201  1  0.53729613  0.58548464  0.26992962  1
  O2-  O202  1  0.54575486  0.57539866  0.60197092  1
  O2-  O203  1  0.53708555  0.58376626  0.93094433  1
  O2-  O204  1  0.16310488  0.21783241  0.26216621  1
  O2-  O205  1  0.16671477  0.20659968  0.60843033  1
  O2-  O206  1  0.16584504  0.20966941  0.93406557  1
  O2-  O207  1  0.16973014  0.70375612  0.26366034  1
  O2-  O208  1  0.16680563  0.70115850  0.60626917  1
  O2-  O209  1  0.17002463  0.70982153  0.93022732  1
  O2-  O210  1  0.66692447  0.20567693  0.27107805  1
  O2-  O211  1  0.66399185  0.20911785  0.59466837  1
  O2-  O212  1  0.65925667  0.20967600  0.93764345  1
  O2-  O213  1  0.66681812  0.69268667  0.27338223  1
  O2-  O214  1  0.66894447  0.70499132  0.59737136  1
  O2-  O215  1  0.67032064  0.70530516  0.93558685  1
  O2-  O216  1  0.08581361  0.45990777  0.06176004  1
  O2-  O217  1  0.08527106  0.45387727  0.39425724  1
  O2-  O218  1  0.08296259  0.45332286  0.73055583  1
  O2-  O219  1  0.07872774  0.95319611  0.06961786  1
  O2-  O220  1  0.08338349  0.94884973  0.39151339  1
  O2-  O221  1  0.08406545  0.95857048  0.73159238  1
  O2-  O222  1  0.58243890  0.46057150  0.06633652  1
  O2-  O223  1  0.58101140  0.46154822  0.40424736  1
  O2-  O224  1  0.58305443  0.44469011  0.72863351  1
  O2-  O225  1  0.58752978  0.96148172  0.06834021  1
  O2-  O226  1  0.58194277  0.95935818  0.40448184  1
  O2-  O227  1  0.59013719  0.96002258  0.72895275  1
  O2-  O228  1  0.20456227  0.33927150  0.06276951  1
  O2-  O229  1  0.21006573  0.34042854  0.39573700  1
  O2-  O230  1  0.20268602  0.33604323  0.73568747  1
  O2-  O231  1  0.20744918  0.82865214  0.06935069  1
  O2-  O232  1  0.20639249  0.83152377  0.39430562  1
  O2-  O233  1  0.19715362  0.83392501  0.72737295  1
  O2-  O234  1  0.71076538  0.33381521  0.06835926  1
  O2-  O235  1  0.70398919  0.33277859  0.40404637  1
  O2-  O236  1  0.70863227  0.33194379  0.72728155  1
  O2-  O237  1  0.70812846  0.83060680  0.06776106  1
  O2-  O238  1  0.70219062  0.82491583  0.40133140  1
  O2-  O239  1  0.70897957  0.83748726  0.72684141  1
  O2-  O240  1  0.46028821  0.41751990  0.26545237  1
  O2-  O241  1  0.45147791  0.41404702  0.60541599  1
  O2-  O242  1  0.45878802  0.41275471  0.93503919  1
  O2-  O243  1  0.46085835  0.92048996  0.26437930  1
  O2-  O244  1  0.46047182  0.91682199  0.59892980  1
  O2-  O245  1  0.45542198  0.91991710  0.94215776  1
  O2-  O246  1  0.95400768  0.41301904  0.26895303  1
  O2-  O247  1  0.96076959  0.41801949  0.59616587  1
  O2-  O248  1  0.96161953  0.41324821  0.93156318  1
  O2-  O249  1  0.95117136  0.91983800  0.26334925  1
  O2-  O250  1  0.95823224  0.91906505  0.59999869  1
  O2-  O251  1  0.95091718  0.91852827  0.93860677  1
  O2-  O252  1  0.33395381  0.29171720  0.26455464  1
  O2-  O253  1  0.32999574  0.29886357  0.60955691  1
  O2-  O254  1  0.33405688  0.30011145  0.93652699  1
  O2-  O255  1  0.33729753  0.78944917  0.26049417  1
  O2-  O256  1  0.32855249  0.79532756  0.60156526  1
  O2-  O257  1  0.33731682  0.79776033  0.93903193  1
  O2-  O258  1  0.83040992  0.29677920  0.27461029  1
  O2-  O259  1  0.83443457  0.29113671  0.59487990  1
  O2-  O260  1  0.83182099  0.28781298  0.93132013  1
  O2-  O261  1  0.82834648  0.78961842  0.26415902  1
  O2-  O262  1  0.83475963  0.78917185  0.59904151  1
  O2-  O263  1  0.83481290  0.79569797  0.93674822  1
  O2-  O264  1  0.41908071  0.04708456  0.07313857  1
  O2-  O265  1  0.41643966  0.04395255  0.39905755  1
  O2-  O266  1  0.41942699  0.03834431  0.73419368  1
  O2-  O267  1  0.41154429  0.53866972  0.06388598  1
  O2-  O268  1  0.40888200  0.53993548  0.39626337  1
  O2-  O269  1  0.41639621  0.53793020  0.73645197  1
  O2-  O270  1  0.91839299  0.05726595  0.05493092  1
  O2-  O271  1  0.92446543  0.04590153  0.40015475  1
  O2-  O272  1  0.91428913  0.04689273  0.73090479  1
  O2-  O273  1  0.91825012  0.54237028  0.06074951  1
  O2-  O274  1  0.91657884  0.54197614  0.39724814  1
  O2-  O275  1  0.91666802  0.53982623  0.73494054  1
  O2-  O276  1  0.29375591  0.17400948  0.06644775  1
  O2-  O277  1  0.28474206  0.16918384  0.40083426  1
  O2-  O278  1  0.29312529  0.16611058  0.73752905  1
  O2-  O279  1  0.29620863  0.66311529  0.06068129  1
  O2-  O280  1  0.29389434  0.66464650  0.39224149  1
  O2-  O281  1  0.29158651  0.66791339  0.73721185  1
  O2-  O282  1  0.78920459  0.16375868  0.06235982  1
  O2-  O283  1  0.79432978  0.16730514  0.40417753  1
  O2-  O284  1  0.79064003  0.16442217  0.72661673  1
  O2-  O285  1  0.80207460  0.66532240  0.06295904  1
  O2-  O286  1  0.79899554  0.66317900  0.39454729  1
  O2-  O287  1  0.79019587  0.66790736  0.73616421  1
