# generated using pymatgen
data_Ca2Al2SiO7
_symmetry_space_group_name_H-M   'P 1'
_cell_length_a   15.45843031
_cell_length_b   15.46005525
_cell_length_c   15.28435766
_cell_angle_alpha   90.00176931
_cell_angle_beta   90.00928988
_cell_angle_gamma   89.99644545
_symmetry_Int_Tables_number   1
_chemical_formula_structural   Ca2Al2SiO7
_chemical_formula_sum   'Ca48 Al48 Si24 O168'
_cell_volume   3652.78086642
_cell_formula_units_Z   24
loop_
 _symmetry_equiv_pos_site_id
 _symmetry_equiv_pos_as_xyz
  1  'x, y, z'
loop_
 _atom_type_symbol
 _atom_type_oxidation_number
  Ca2+  2.0
  Al0+  0.0
  Si0+  0.0
  O2-  -2.0
loop_
 _atom_site_type_symbol
 _atom_site_label
 _atom_site_symmetry_multiplicity
 _atom_site_fract_x
 _atom_site_fract_y
 _atom_site_fract_z
 _atom_site_occupancy
  Ca2+  Ca0  1  0.16643791  0.07173263  0.17239796  1
  Ca2+  Ca1  1  0.17185726  0.07301534  0.50687218  1
  Ca2+  Ca2  1  0.16354323  0.07461424  0.83924023  1
  Ca2+  Ca3  1  0.16245054  0.58496910  0.17236261  1
  Ca2+  Ca4  1  0.17721760  0.59228476  0.50119981  1
  Ca2+  Ca5  1  0.16862795  0.58067825  0.83916441  1
  Ca2+  Ca6  1  0.66851940  0.08187326  0.17316781  1
  Ca2+  Ca7  1  0.66354176  0.07851759  0.50741769  1
  Ca2+  Ca8  1  0.66579236  0.07817614  0.83155720  1
  Ca2+  Ca9  1  0.67071610  0.58153319  0.16982943  1
  Ca2+  Ca10  1  0.67571828  0.58742193  0.50570935  1
  Ca2+  Ca11  1  0.66436764  0.58227090  0.84117900  1
  Ca2+  Ca12  1  0.08150644  0.33153111  0.15945603  1
  Ca2+  Ca13  1  0.07331568  0.33506494  0.49529979  1
  Ca2+  Ca14  1  0.08574769  0.32922648  0.83074387  1
  Ca2+  Ca15  1  0.08295375  0.82681521  0.15936411  1
  Ca2+  Ca16  1  0.07879523  0.83617658  0.49334916  1
  Ca2+  Ca17  1  0.07731035  0.83941217  0.83171472  1
  Ca2+  Ca18  1  0.58376317  0.32994367  0.16400644  1
  Ca2+  Ca19  1  0.58082486  0.31843129  0.49523148  1
  Ca2+  Ca20  1  0.58430316  0.32936389  0.82656214  1
  Ca2+  Ca21  1  0.57186377  0.82541313  0.15642316  1
  Ca2+  Ca22  1  0.58428725  0.83055538  0.50045083  1
  Ca2+  Ca23  1  0.57956892  0.82437032  0.82785634  1
  Ca2+  Ca24  1  0.32521422  0.42490351  0.17003527  1
  Ca2+  Ca25  1  0.33485423  0.42856208  0.50244697  1
  Ca2+  Ca26  1  0.33137498  0.42425551  0.83853300  1
  Ca2+  Ca27  1  0.32147573  0.91361944  0.17207868  1
  Ca2+  Ca28  1  0.31994182  0.92177907  0.50500113  1
  Ca2+  Ca29  1  0.32435339  0.91894231  0.83668724  1
  Ca2+  Ca30  1  0.83033244  0.42276140  0.17408577  1
  Ca2+  Ca31  1  0.84154619  0.42202348  0.50180426  1
  Ca2+  Ca32  1  0.82786042  0.41595796  0.83971568  1
  Ca2+  Ca33  1  0.83667312  0.91096192  0.16937812  1
  Ca2+  Ca34  1  0.83007103  0.91058358  0.50803714  1
  Ca2+  Ca35  1  0.83098683  0.90665882  0.83452004  1
  Ca2+  Ca36  1  0.41910311  0.15987495  0.16679629  1
  Ca2+  Ca37  1  0.42407904  0.14954349  0.49746492  1
  Ca2+  Ca38  1  0.41964735  0.16658826  0.82424597  1
  Ca2+  Ca39  1  0.41692233  0.67062802  0.15825965  1
  Ca2+  Ca40  1  0.42011005  0.65945568  0.49740276  1
  Ca2+  Ca41  1  0.42314397  0.66825207  0.82965414  1
  Ca2+  Ca42  1  0.92463785  0.17205314  0.16297796  1
  Ca2+  Ca43  1  0.91176581  0.18077129  0.49637711  1
  Ca2+  Ca44  1  0.92419699  0.17262046  0.83013655  1
  Ca2+  Ca45  1  0.92472204  0.67502963  0.16503915  1
  Ca2+  Ca46  1  0.92364821  0.67659616  0.48993690  1
  Ca2+  Ca47  1  0.92412366  0.67552121  0.83164450  1
  Al0+  Al48  1  -0.00014674  0.00294011  -0.00285659  1
  Al0+  Al49  1  -0.00378390  0.00325393  0.33582748  1
  Al0+  Al50  1  -0.00142368  0.00248057  0.66540681  1
  Al0+  Al51  1  -0.00178461  0.50156227  0.00078650  1
  Al0+  Al52  1  -0.00265624  0.50093909  0.33035338  1
  Al0+  Al53  1  0.00048660  0.50178049  0.66426126  1
  Al0+  Al54  1  0.50151258  0.00014179  -0.00384218  1
  Al0+  Al55  1  0.50150933  -0.00242485  0.32988737  1
  Al0+  Al56  1  0.50053862  -0.00241352  0.67159278  1
  Al0+  Al57  1  0.50086691  0.49713055  0.00284952  1
  Al0+  Al58  1  0.50004168  0.49523651  0.33649034  1
  Al0+  Al59  1  0.50155870  0.49944330  0.66544640  1
  Al0+  Al60  1  0.25123331  0.25136186  0.00021754  1
  Al0+  Al61  1  0.25278190  0.25074120  0.33862114  1
  Al0+  Al62  1  0.25071423  0.25169492  0.66627234  1
  Al0+  Al63  1  0.25060491  0.75165026  -0.00491685  1
  Al0+  Al64  1  0.25034871  0.74956607  0.33908649  1
  Al0+  Al65  1  0.25138037  0.75006159  0.67687663  1
  Al0+  Al66  1  0.74958385  0.24989452  0.00523904  1
  Al0+  Al67  1  0.74787610  0.24846205  0.32486607  1
  Al0+  Al68  1  0.74904033  0.25005638  0.65905032  1
  Al0+  Al69  1  0.74955406  0.74973383  -0.00368456  1
  Al0+  Al70  1  0.75020918  0.74778787  0.33342826  1
  Al0+  Al71  1  0.75083297  0.74915404  0.66496033  1
  Al0+  Al72  1  0.92694015  0.82400674  0.31882698  1
  Al0+  Al73  1  0.42760868  0.82329367  0.98324365  1
  Al0+  Al74  1  0.56750996  0.17727777  0.31754893  1
  Al0+  Al75  1  0.32311952  0.07024064  0.34687560  1
  Al0+  Al76  1  0.93077033  0.82118534  0.65227078  1
  Al0+  Al77  1  0.07225573  0.18136683  0.98773838  1
  Al0+  Al78  1  0.81935958  0.56978533  0.34803940  1
  Al0+  Al79  1  0.07325087  0.68199223  0.31982208  1
  Al0+  Al80  1  0.07232597  0.67664559  0.98388450  1
  Al0+  Al81  1  0.93006085  0.82260182  0.98420321  1
  Al0+  Al82  1  0.32330328  0.56963856  0.68267700  1
  Al0+  Al83  1  0.17577414  0.92929183  0.34799954  1
  Al0+  Al84  1  0.56943284  0.67684343  0.98662720  1
  Al0+  Al85  1  0.17851802  0.93018705  0.01478688  1
  Al0+  Al86  1  0.67872073  0.42781303  0.01439497  1
  Al0+  Al87  1  0.57030428  0.67785802  0.65120810  1
  Al0+  Al88  1  0.17790196  0.42911843  0.01294309  1
  Al0+  Al89  1  0.32154528  0.07167382  0.68288111  1
  Al0+  Al90  1  0.92961085  0.32176449  0.65421775  1
  Al0+  Al91  1  0.17565705  0.93025890  0.68469242  1
  Al0+  Al92  1  0.68128314  0.92732900  0.68095444  1
  Al0+  Al93  1  0.56786838  0.17785515  0.65375233  1
  Al0+  Al94  1  0.32135428  0.57080425  0.34552172  1
  Al0+  Al95  1  0.92945189  0.32145312  0.31724576  1
  Si0+  Si96  1  0.42719989  0.32407672  0.31463733  1
  Si0+  Si97  1  0.07358673  0.17898861  0.64875013  1
  Si0+  Si98  1  0.57148556  0.67551088  0.31988990  1
  Si0+  Si99  1  0.82090243  0.57382472  0.01730872  1
  Si0+  Si100  1  0.57327301  0.17929485  0.98388363  1
  Si0+  Si101  1  0.68064231  0.92844795  0.34631715  1
  Si0+  Si102  1  0.42711598  0.32306088  0.64923449  1
  Si0+  Si103  1  0.82220512  0.57097329  0.68260815  1
  Si0+  Si104  1  0.17615549  0.42779534  0.34991466  1
  Si0+  Si105  1  0.32148262  0.57113823  0.01552656  1
  Si0+  Si106  1  0.17604693  0.42956315  0.68205666  1
  Si0+  Si107  1  0.92664730  0.32181142  0.98516801  1
  Si0+  Si108  1  0.42775172  0.82039130  0.64887956  1
  Si0+  Si109  1  0.81980949  0.07161151  0.01554537  1
  Si0+  Si110  1  0.07405552  0.67837778  0.65035324  1
  Si0+  Si111  1  0.43088948  0.81855672  0.32095189  1
  Si0+  Si112  1  0.81998991  0.07559154  0.68271011  1
  Si0+  Si113  1  0.67846556  0.42515298  0.35263881  1
  Si0+  Si114  1  0.07433333  0.17976788  0.31881992  1
  Si0+  Si115  1  0.68164815  0.42842626  0.67919046  1
  Si0+  Si116  1  0.32424843  0.07286035  0.01634740  1
  Si0+  Si117  1  0.42993924  0.31962740  0.98546880  1
  Si0+  Si118  1  0.67901248  0.92852688  0.01528979  1
  Si0+  Si119  1  0.81915826  0.07371464  0.34814736  1
  O2-  O120  1  0.25672106  0.00291624  0.05992186  1
  O2-  O121  1  0.24621930  0.00404689  0.39655138  1
  O2-  O122  1  0.24647529  0.00449600  0.73413780  1
  O2-  O123  1  0.24717070  0.50867246  0.06023001  1
  O2-  O124  1  0.24438257  0.49795939  0.39263045  1
  O2-  O125  1  0.24704968  0.49547342  0.72695432  1
  O2-  O126  1  0.75105819  -0.00193994  0.05816623  1
  O2-  O127  1  0.75389754  -0.00305144  0.38894880  1
  O2-  O128  1  0.75684658  0.00196853  0.72767841  1
  O2-  O129  1  0.75203673  0.50385071  0.06016747  1
  O2-  O130  1  0.74597362  0.49433217  0.39760628  1
  O2-  O131  1  0.75153662  0.49896692  0.72384818  1
  O2-  O132  1  0.00847673  0.25058778  0.27266174  1
  O2-  O133  1  0.00502033  0.24873849  0.60574183  1
  O2-  O134  1  0.00014110  0.25907049  0.94044430  1
  O2-  O135  1  0.00413375  0.75724114  0.27017127  1
  O2-  O136  1  0.00959808  0.75107821  0.60647208  1
  O2-  O137  1  0.00352073  0.75204531  0.93434148  1
  O2-  O138  1  0.49164042  0.25075905  0.27081033  1
  O2-  O139  1  0.48889388  0.24744556  0.60587332  1
  O2-  O140  1  0.50076245  0.24859346  0.94240698  1
  O2-  O141  1  0.49697815  0.74252227  0.27852588  1
  O2-  O142  1  0.49436809  0.75024341  0.60249688  1
  O2-  O143  1  0.49872853  0.74887788  0.93533818  1
  O2-  O144  1  0.06948523  0.18172912  0.10097046  1
  O2-  O145  1  0.07143026  0.18149106  0.42438640  1
  O2-  O146  1  0.07257083  0.18076806  0.75460491  1
  O2-  O147  1  0.06987797  0.67634996  0.09735598  1
  O2-  O148  1  0.07296490  0.68207053  0.43366602  1
  O2-  O149  1  0.06942001  0.67302550  0.75559180  1
  O2-  O150  1  0.57307098  0.17858622  0.08898126  1
  O2-  O151  1  0.56833509  0.17656272  0.43054363  1
  O2-  O152  1  0.57117508  0.18326353  0.76713541  1
  O2-  O153  1  0.56794023  0.67851653  0.10106005  1
  O2-  O154  1  0.57272475  0.67809814  0.42499498  1
  O2-  O155  1  0.57030472  0.67659763  0.76393126  1
  O2-  O156  1  0.17810480  0.42620314  0.24417683  1
  O2-  O157  1  0.17424302  0.43133359  0.57650281  1
  O2-  O158  1  0.18293710  0.42654645  0.89985591  1
  O2-  O159  1  0.17795334  0.92836973  0.23417103  1
  O2-  O160  1  0.17574051  0.93052012  0.57099580  1
  O2-  O161  1  0.17682486  0.93492486  0.90230563  1
  O2-  O162  1  0.67847121  0.42677401  0.24680116  1
  O2-  O163  1  0.68287701  0.42822976  0.57433054  1
  O2-  O164  1  0.68140249  0.42427772  0.90079000  1
  O2-  O165  1  0.67909625  0.93006030  0.24089730  1
  O2-  O166  1  0.68160369  0.92854840  0.56721048  1
  O2-  O167  1  0.67890913  0.93047643  0.91039725  1
  O2-  O168  1  0.43044274  0.31932981  0.09044269  1
  O2-  O169  1  0.43128025  0.33014052  0.41970286  1
  O2-  O170  1  0.43131048  0.32547711  0.75516972  1
  O2-  O171  1  0.42991994  0.82289512  0.09803539  1
  O2-  O172  1  0.43454961  0.82039594  0.42580286  1
  O2-  O173  1  0.43152142  0.81906538  0.75426473  1
  O2-  O174  1  0.92533142  0.31760423  0.09061490  1
  O2-  O175  1  0.92898837  0.31954472  0.43069490  1
  O2-  O176  1  0.92837032  0.31985437  0.76743843  1
  O2-  O177  1  0.92884791  0.82156655  0.09761875  1
  O2-  O178  1  0.92390465  0.81997884  0.43224644  1
  O2-  O179  1  0.92881297  0.81713432  0.76498306  1
  O2-  O180  1  0.32397272  0.06597931  0.23308436  1
  O2-  O181  1  0.32076022  0.06715815  0.56943521  1
  O2-  O182  1  0.32456959  0.07457450  0.91101305  1
  O2-  O183  1  0.32434171  0.56889542  0.23268481  1
  O2-  O184  1  0.32350624  0.56739134  0.56926299  1
  O2-  O185  1  0.32524552  0.56460967  0.91014317  1
  O2-  O186  1  0.81686577  0.07635254  0.24280534  1
  O2-  O187  1  0.81604088  0.07838133  0.57700790  1
  O2-  O188  1  0.81590722  0.07727674  0.91072737  1
  O2-  O189  1  0.81459737  0.56975310  0.23515776  1
  O2-  O190  1  0.82187148  0.56997246  0.57745779  1
  O2-  O191  1  0.82021025  0.57213082  0.91128912  1
  O2-  O192  1  0.04358283  0.08771556  0.27248914  1
  O2-  O193  1  0.04638123  0.08657473  0.60229188  1
  O2-  O194  1  0.03557363  0.08901052  0.93045003  1
  O2-  O195  1  0.04203452  0.58387515  0.26809765  1
  O2-  O196  1  0.04505039  0.58677177  0.60189365  1
  O2-  O197  1  0.04072911  0.57870665  0.92983448  1
  O2-  O198  1  0.53936921  0.08057428  0.26097946  1
  O2-  O199  1  0.54164444  0.07904901  0.60154759  1
  O2-  O200  1  0.54878576  0.08706752  0.93636419  1
  O2-  O201  1  0.54811692  0.58109857  0.27605173  1
  O2-  O202  1  0.54234059  0.58049567  0.59658409  1
  O2-  O203  1  0.54309686  0.57696294  0.93527897  1
  O2-  O204  1  0.17001660  0.20115709  0.27540392  1
  O2-  O205  1  0.16739424  0.20383739  0.60274684  1
  O2-  O206  1  0.16890046  0.21068907  0.93296358  1
  O2-  O207  1  0.17378100  0.70499629  0.26801014  1
  O2-  O208  1  0.17083577  0.70025161  0.61008010  1
  O2-  O209  1  0.17241753  0.69827087  0.93316035  1
  O2-  O210  1  0.66232664  0.20955025  0.26081114  1
  O2-  O211  1  0.66190428  0.21235638  0.59677391  1
  O2-  O212  1  0.66456633  0.21002494  0.93767872  1
  O2-  O213  1  0.66098497  0.70706458  0.27106347  1
  O2-  O214  1  0.66646637  0.71083628  0.59760664  1
  O2-  O215  1  0.66756001  0.70442781  0.93371969  1
  O2-  O216  1  0.07868265  0.45330346  0.06534759  1
  O2-  O217  1  0.08163649  0.45174495  0.39380875  1
  O2-  O218  1  0.08352528  0.45702924  0.73008381  1
  O2-  O219  1  0.08220478  0.96555041  0.06717878  1
  O2-  O220  1  0.07645354  0.95726251  0.40005723  1
  O2-  O221  1  0.07626857  0.96057917  0.73576865  1
  O2-  O222  1  0.58207288  0.45515792  0.07066275  1
  O2-  O223  1  0.58439543  0.44763296  0.39828039  1
  O2-  O224  1  0.58957242  0.45454331  0.72661839  1
  O2-  O225  1  0.58776184  0.95918467  0.06302344  1
  O2-  O226  1  0.59025582  0.95918581  0.39428466  1
  O2-  O227  1  0.58620153  0.95861452  0.73666405  1
  O2-  O228  1  0.21377441  0.33462291  0.06890214  1
  O2-  O229  1  0.20266825  0.33558052  0.39874400  1
  O2-  O230  1  0.19863769  0.33454854  0.72635386  1
  O2-  O231  1  0.20862137  0.83166924  0.06581372  1
  O2-  O232  1  0.20792138  0.83311935  0.40278433  1
  O2-  O233  1  0.20391188  0.83221390  0.73767398  1
  O2-  O234  1  0.71014873  0.33237885  0.07140626  1
  O2-  O235  1  0.70548528  0.33032688  0.39496029  1
  O2-  O236  1  0.71041144  0.33661674  0.72667023  1
  O2-  O237  1  0.70430249  0.83569286  0.06211543  1
  O2-  O238  1  0.70493368  0.83599166  0.39394206  1
  O2-  O239  1  0.71288039  0.83099939  0.73529086  1
  O2-  O240  1  0.45892005  0.41464024  0.26469001  1
  O2-  O241  1  0.46140673  0.41256959  0.60047183  1
  O2-  O242  1  0.45925107  0.41050157  0.93734410  1
  O2-  O243  1  0.46461604  0.90621770  0.26948867  1
  O2-  O244  1  0.45716800  0.91319222  0.60401143  1
  O2-  O245  1  0.45981267  0.92046278  0.92981578  1
  O2-  O246  1  0.95523104  0.41852639  0.26298237  1
  O2-  O247  1  0.95985415  0.41839815  0.59919662  1
  O2-  O248  1  0.94415321  0.41757282  0.94201612  1
  O2-  O249  1  0.94390989  0.92717292  0.27098346  1
  O2-  O250  1  0.95224094  0.92156271  0.60088725  1
  O2-  O251  1  0.95370990  0.92232140  0.93201682  1
  O2-  O252  1  0.33125632  0.30344716  0.27140308  1
  O2-  O253  1  0.33082077  0.30763360  0.60517767  1
  O2-  O254  1  0.33907004  0.29340069  0.93591383  1
  O2-  O255  1  0.33795603  0.79356672  0.27522744  1
  O2-  O256  1  0.33234499  0.79605423  0.60664027  1
  O2-  O257  1  0.33015070  0.79815161  0.92911231  1
  O2-  O258  1  0.83434141  0.28722594  0.26279592  1
  O2-  O259  1  0.83499075  0.28972955  0.59661639  1
  O2-  O260  1  0.83485551  0.28898342  0.93884309  1
  O2-  O261  1  0.82976796  0.78947236  0.26520565  1
  O2-  O262  1  0.83531046  0.78635375  0.59864522  1
  O2-  O263  1  0.83130791  0.79285843  0.93227031  1
  O2-  O264  1  0.41984359  0.04880429  0.06024086  1
  O2-  O265  1  0.42045001  0.03457097  0.39850044  1
  O2-  O266  1  0.41930739  0.04251209  0.73663739  1
  O2-  O267  1  0.41220048  0.53838866  0.06395269  1
  O2-  O268  1  0.41705681  0.53625524  0.40119607  1
  O2-  O269  1  0.41953218  0.53497523  0.73578042  1
  O2-  O270  1  0.91206615  0.04641373  0.06268490  1
  O2-  O271  1  0.91209644  0.05580152  0.39688857  1
  O2-  O272  1  0.91579192  0.05682350  0.72584640  1
  O2-  O273  1  0.91378514  0.54818180  0.06412224  1
  O2-  O274  1  0.91613616  0.53918162  0.40205837  1
  O2-  O275  1  0.91391362  0.54276620  0.72974206  1
  O2-  O276  1  0.29931915  0.16658920  0.06232344  1
  O2-  O277  1  0.30689024  0.17225931  0.39808995  1
  O2-  O278  1  0.30092563  0.17470278  0.73098206  1
  O2-  O279  1  0.30380945  0.66786271  0.05674547  1
  O2-  O280  1  0.29513465  0.66631696  0.40369057  1
  O2-  O281  1  0.29690518  0.66577526  0.73820668  1
  O2-  O282  1  0.78864025  0.16075109  0.06702272  1
  O2-  O283  1  0.78397976  0.16335265  0.39567821  1
  O2-  O284  1  0.78765026  0.16689892  0.73021486  1
  O2-  O285  1  0.79285075  0.66665718  0.06373723  1
  O2-  O286  1  0.78595776  0.66536867  0.40356413  1
  O2-  O287  1  0.79179305  0.66123336  0.73012697  1
