# generated using pymatgen
data_Ca2Al2SiO7
_symmetry_space_group_name_H-M   'P 1'
_cell_length_a   15.45898250
_cell_length_b   15.46094786
_cell_length_c   15.28352118
_cell_angle_alpha   90.02599216
_cell_angle_beta   89.99802982
_cell_angle_gamma   90.02024454
_symmetry_Int_Tables_number   1
_chemical_formula_structural   Ca2Al2SiO7
_chemical_formula_sum   'Ca48 Al48 Si24 O168'
_cell_volume   3652.92177594
_cell_formula_units_Z   24
loop_
 _symmetry_equiv_pos_site_id
 _symmetry_equiv_pos_as_xyz
  1  'x, y, z'
loop_
 _atom_type_symbol
 _atom_type_oxidation_number
  Ca2+  2.0
  Al0+  0.0
  Si0+  0.0
  O2-  -2.0
loop_
 _atom_site_type_symbol
 _atom_site_label
 _atom_site_symmetry_multiplicity
 _atom_site_fract_x
 _atom_site_fract_y
 _atom_site_fract_z
 _atom_site_occupancy
  Ca2+  Ca0  1  0.16959513  0.07626271  0.16958424  1
  Ca2+  Ca1  1  0.17502677  0.07396674  0.49784344  1
  Ca2+  Ca2  1  0.16459202  0.07404567  0.84062584  1
  Ca2+  Ca3  1  0.16808094  0.57207501  0.17029734  1
  Ca2+  Ca4  1  0.17308816  0.57271186  0.50699999  1
  Ca2+  Ca5  1  0.17214289  0.57311230  0.83461088  1
  Ca2+  Ca6  1  0.66802317  0.07347145  0.16789165  1
  Ca2+  Ca7  1  0.66914963  0.07849789  0.50153287  1
  Ca2+  Ca8  1  0.68001709  0.08104162  0.84136143  1
  Ca2+  Ca9  1  0.66127193  0.57621111  0.17169882  1
  Ca2+  Ca10  1  0.66557998  0.58113846  0.49853781  1
  Ca2+  Ca11  1  0.67064236  0.58144572  0.83735867  1
  Ca2+  Ca12  1  0.08232079  0.32944734  0.15984829  1
  Ca2+  Ca13  1  0.07895197  0.33900864  0.49049730  1
  Ca2+  Ca14  1  0.09115554  0.32821227  0.83206455  1
  Ca2+  Ca15  1  0.08090172  0.84001448  0.15748136  1
  Ca2+  Ca16  1  0.08623680  0.83580423  0.49647798  1
  Ca2+  Ca17  1  0.07959318  0.84188976  0.83102271  1
  Ca2+  Ca18  1  0.57363287  0.34022634  0.16147815  1
  Ca2+  Ca19  1  0.57779545  0.33239124  0.48803221  1
  Ca2+  Ca20  1  0.58124197  0.33786458  0.83539888  1
  Ca2+  Ca21  1  0.57745935  0.83761071  0.16188452  1
  Ca2+  Ca22  1  0.57293262  0.82773298  0.48752059  1
  Ca2+  Ca23  1  0.57110222  0.84278983  0.83065827  1
  Ca2+  Ca24  1  0.32567285  0.40751986  0.17286620  1
  Ca2+  Ca25  1  0.32627706  0.41959284  0.50450583  1
  Ca2+  Ca26  1  0.32910637  0.42040124  0.84050240  1
  Ca2+  Ca27  1  0.32825166  0.91748997  0.17568069  1
  Ca2+  Ca28  1  0.32811940  0.90998099  0.50266980  1
  Ca2+  Ca29  1  0.32510478  0.90876583  0.83837672  1
  Ca2+  Ca30  1  0.82190546  0.41171051  0.17291171  1
  Ca2+  Ca31  1  0.82949905  0.41966468  0.50260785  1
  Ca2+  Ca32  1  0.82885729  0.42506323  0.83897748  1
  Ca2+  Ca33  1  0.82651220  0.91738322  0.16621494  1
  Ca2+  Ca34  1  0.82435218  0.92080917  0.50427424  1
  Ca2+  Ca35  1  0.83122702  0.92577705  0.84546311  1
  Ca2+  Ca36  1  0.40891350  0.17508564  0.16477706  1
  Ca2+  Ca37  1  0.41377279  0.17190406  0.49107042  1
  Ca2+  Ca38  1  0.41589143  0.17365901  0.83380102  1
  Ca2+  Ca39  1  0.42158685  0.67743471  0.16512862  1
  Ca2+  Ca40  1  0.41575888  0.67339310  0.49423941  1
  Ca2+  Ca41  1  0.41277284  0.67554108  0.82909698  1
  Ca2+  Ca42  1  0.92219074  0.16789416  0.15985549  1
  Ca2+  Ca43  1  0.91770113  0.17176593  0.49460905  1
  Ca2+  Ca44  1  0.92123699  0.15845513  0.83204427  1
  Ca2+  Ca45  1  0.92065686  0.67466710  0.16098443  1
  Ca2+  Ca46  1  0.91900714  0.66212045  0.49634037  1
  Ca2+  Ca47  1  0.91489550  0.67187575  0.83088394  1
  Al0+  Al48  1  0.00126656  0.00128853  -0.00019723  1
  Al0+  Al49  1  0.00106268  0.00050077  0.33743137  1
  Al0+  Al50  1  -0.00018078  0.00093063  0.66854969  1
  Al0+  Al51  1  0.00121390  0.50036003  0.00275386  1
  Al0+  Al52  1  -0.00118479  0.50006322  0.32967715  1
  Al0+  Al53  1  -0.00218732  0.49967529  0.67462132  1
  Al0+  Al54  1  0.50087050  0.00287724  -0.00346504  1
  Al0+  Al55  1  0.50106485  0.00154718  0.33764938  1
  Al0+  Al56  1  0.49835761  0.00171292  0.66027911  1
  Al0+  Al57  1  0.50025116  0.50284444  -0.00244089  1
  Al0+  Al58  1  0.50006028  0.50017766  0.33044228  1
  Al0+  Al59  1  0.49913846  0.50080850  0.66897658  1
  Al0+  Al60  1  0.24906671  0.25006036  -0.00683209  1
  Al0+  Al61  1  0.24804963  0.24712024  0.33839164  1
  Al0+  Al62  1  0.24911455  0.24636060  0.66651490  1
  Al0+  Al63  1  0.25032894  0.74741094  0.00050338  1
  Al0+  Al64  1  0.24914117  0.74751592  0.33195498  1
  Al0+  Al65  1  0.24761893  0.74808532  0.66976590  1
  Al0+  Al66  1  0.75073982  0.25212296  0.00675248  1
  Al0+  Al67  1  0.75018664  0.25116600  0.33331986  1
  Al0+  Al68  1  0.75057679  0.24884477  0.66931786  1
  Al0+  Al69  1  0.75135346  0.75064370  -0.00183474  1
  Al0+  Al70  1  0.75155086  0.74956424  0.33395893  1
  Al0+  Al71  1  0.74818969  0.74946308  0.66938937  1
  Al0+  Al72  1  0.81956277  0.07024343  0.67961217  1
  Al0+  Al73  1  0.18158226  0.92824065  0.01260653  1
  Al0+  Al74  1  0.06917163  0.18077780  0.98557426  1
  Al0+  Al75  1  0.57308783  0.67927418  0.31761855  1
  Al0+  Al76  1  0.32197389  0.57057614  0.68211374  1
  Al0+  Al77  1  0.82028836  0.57202437  0.68038364  1
  Al0+  Al78  1  0.82335939  0.07173203  0.01707801  1
  Al0+  Al79  1  0.42744442  0.81954264  0.65177918  1
  Al0+  Al80  1  0.67950601  0.92743273  0.34755909  1
  Al0+  Al81  1  0.42811703  0.82253091  0.31769912  1
  Al0+  Al82  1  0.42956761  0.32152979  0.98550260  1
  Al0+  Al83  1  0.18129400  0.42780207  0.01510346  1
  Al0+  Al84  1  0.17884846  0.92600658  0.34811711  1
  Al0+  Al85  1  0.17779200  0.42862291  0.34553487  1
  Al0+  Al86  1  0.67727168  0.92887984  0.01364002  1
  Al0+  Al87  1  0.67776608  0.42929222  0.34692478  1
  Al0+  Al88  1  0.18091787  0.92991978  0.68100158  1
  Al0+  Al89  1  0.42825096  0.31898229  0.32163978  1
  Al0+  Al90  1  0.67887299  0.43185082  0.01409180  1
  Al0+  Al91  1  0.42901900  0.82301587  0.98614827  1
  Al0+  Al92  1  0.93095053  0.82027263  0.98625253  1
  Al0+  Al93  1  0.17841301  0.42630843  0.68208408  1
  Al0+  Al94  1  0.92848492  0.32206612  0.31964874  1
  Al0+  Al95  1  0.32213171  0.07069718  0.34732333  1
  Si0+  Si96  1  0.57460566  0.17939725  0.98279485  1
  Si0+  Si97  1  0.07078111  0.67775144  0.31880789  1
  Si0+  Si98  1  0.07077783  0.17688195  0.64879486  1
  Si0+  Si99  1  0.07027591  0.17747345  0.31716903  1
  Si0+  Si100  1  0.07267460  0.67538933  0.98137982  1
  Si0+  Si101  1  0.57358496  0.67677630  0.64950737  1
  Si0+  Si102  1  0.82229486  0.57182091  0.34865073  1
  Si0+  Si103  1  0.42874123  0.32116987  0.65152635  1
  Si0+  Si104  1  0.32278700  0.57196835  0.01938484  1
  Si0+  Si105  1  0.57280246  0.18123288  0.65099243  1
  Si0+  Si106  1  0.92803090  0.82224261  0.65121003  1
  Si0+  Si107  1  0.57426496  0.17763456  0.31628106  1
  Si0+  Si108  1  0.93059049  0.82233435  0.32047718  1
  Si0+  Si109  1  0.92935701  0.32113184  0.65308466  1
  Si0+  Si110  1  0.67782051  0.42730341  0.68252699  1
  Si0+  Si111  1  0.82225025  0.07200209  0.35036457  1
  Si0+  Si112  1  0.92635428  0.32371016  0.98236037  1
  Si0+  Si113  1  0.32236281  0.07297654  0.01357229  1
  Si0+  Si114  1  0.82321595  0.57327729  0.01829374  1
  Si0+  Si115  1  0.32440766  0.07204969  0.68500902  1
  Si0+  Si116  1  0.57241130  0.67935368  0.98140895  1
  Si0+  Si117  1  0.32172064  0.57061293  0.34868493  1
  Si0+  Si118  1  0.06746348  0.67768248  0.65229465  1
  Si0+  Si119  1  0.67623750  0.92851786  0.68195223  1
  O2-  O120  1  0.26052509  -0.00152265  0.05787956  1
  O2-  O121  1  0.25632905  -0.00751053  0.39742680  1
  O2-  O122  1  0.25826905  0.00129479  0.72863047  1
  O2-  O123  1  0.25686547  0.50043139  0.06329445  1
  O2-  O124  1  0.25399295  0.50073162  0.39291939  1
  O2-  O125  1  0.25429839  0.49413598  0.73177962  1
  O2-  O126  1  0.74992266  -0.00000830  0.06448069  1
  O2-  O127  1  0.75328100  0.00353139  0.39448184  1
  O2-  O128  1  0.74682658  -0.00560922  0.72659534  1
  O2-  O129  1  0.75503773  0.50453751  0.06192797  1
  O2-  O130  1  0.75279019  0.50390330  0.39305656  1
  O2-  O131  1  0.74395716  0.49867714  0.72592341  1
  O2-  O132  1  0.00269430  0.24726521  0.27332678  1
  O2-  O133  1  0.00302866  0.25303253  0.60936200  1
  O2-  O134  1  -0.00586295  0.25518898  0.93667379  1
  O2-  O135  1  0.00501006  0.75464689  0.27837670  1
  O2-  O136  1  -0.00294936  0.74935184  0.60828217  1
  O2-  O137  1  0.00564191  0.74618012  0.93743769  1
  O2-  O138  1  0.50352294  0.24512671  0.27371622  1
  O2-  O139  1  0.50118900  0.25187408  0.60908873  1
  O2-  O140  1  0.50631407  0.24878450  0.93798210  1
  O2-  O141  1  0.50438893  0.75461011  0.26796333  1
  O2-  O142  1  0.50435367  0.74561732  0.60693994  1
  O2-  O143  1  0.50678559  0.75139562  0.93807210  1
  O2-  O144  1  0.06974418  0.18219654  0.09865961  1
  O2-  O145  1  0.06745358  0.17661783  0.42319587  1
  O2-  O146  1  0.06973113  0.17503437  0.75376530  1
  O2-  O147  1  0.07034397  0.67393264  0.08729349  1
  O2-  O148  1  0.06774950  0.67435551  0.42415501  1
  O2-  O149  1  0.06541093  0.67763170  0.75709653  1
  O2-  O150  1  0.57394292  0.17814903  0.08796120  1
  O2-  O151  1  0.57664743  0.18104850  0.42261810  1
  O2-  O152  1  0.57414706  0.18207705  0.75596819  1
  O2-  O153  1  0.57061630  0.67705034  0.08664834  1
  O2-  O154  1  0.57189496  0.67940922  0.43171434  1
  O2-  O155  1  0.57606567  0.67657706  0.75489331  1
  O2-  O156  1  0.17816692  0.42992363  0.23257592  1
  O2-  O157  1  0.17695802  0.42923483  0.56820219  1
  O2-  O158  1  0.18280081  0.42926829  0.90208098  1
  O2-  O159  1  0.17484069  0.92927329  0.23486367  1
  O2-  O160  1  0.17958466  0.93110516  0.56810637  1
  O2-  O161  1  0.18101444  0.93040659  0.89928606  1
  O2-  O162  1  0.67856620  0.43069230  0.23423177  1
  O2-  O163  1  0.67862481  0.42520233  0.57703080  1
  O2-  O164  1  0.68050911  0.43424482  0.90025523  1
  O2-  O165  1  0.68244249  0.92789515  0.23491024  1
  O2-  O166  1  0.67880707  0.92958475  0.57622308  1
  O2-  O167  1  0.67774788  0.93203230  0.89956273  1
  O2-  O168  1  0.42833114  0.31890102  0.09844949  1
  O2-  O169  1  0.43013278  0.31861092  0.43545481  1
  O2-  O170  1  0.43014052  0.32010101  0.75670774  1
  O2-  O171  1  0.42812395  0.82167789  0.09871904  1
  O2-  O172  1  0.42688822  0.81691730  0.43159969  1
  O2-  O173  1  0.42927905  0.81954466  0.76504210  1
  O2-  O174  1  0.92800416  0.32351886  0.08784740  1
  O2-  O175  1  0.92948347  0.32192411  0.43377079  1
  O2-  O176  1  0.92723043  0.32003137  0.75787450  1
  O2-  O177  1  0.93209141  0.81828465  0.09988710  1
  O2-  O178  1  0.92980696  0.82080027  0.42604086  1
  O2-  O179  1  0.92958765  0.82249862  0.75610695  1
  O2-  O180  1  0.31707296  0.07402341  0.23374130  1
  O2-  O181  1  0.32318984  0.07503661  0.57977721  1
  O2-  O182  1  0.31985228  0.07404265  0.90763464  1
  O2-  O183  1  0.31897824  0.57164369  0.24325079  1
  O2-  O184  1  0.32017319  0.56877062  0.56819416  1
  O2-  O185  1  0.32114389  0.57171892  0.91358159  1
  O2-  O186  1  0.82423424  0.07047335  0.24533379  1
  O2-  O187  1  0.81746818  0.07069066  0.56634612  1
  O2-  O188  1  0.82165463  0.06995487  0.90299634  1
  O2-  O189  1  0.82460969  0.57210113  0.24345328  1
  O2-  O190  1  0.82259683  0.56885475  0.56741230  1
  O2-  O191  1  0.82233479  0.57220590  0.91225614  1
  O2-  O192  1  0.04279561  0.08410889  0.27099420  1
  O2-  O193  1  0.03687132  0.08761982  0.59990963  1
  O2-  O194  1  0.03769879  0.08501949  0.92974038  1
  O2-  O195  1  0.03697396  0.58996685  0.26689177  1
  O2-  O196  1  0.03684267  0.58589364  0.60515941  1
  O2-  O197  1  0.04372980  0.58281286  0.93409530  1
  O2-  O198  1  0.55153775  0.08309756  0.27211267  1
  O2-  O199  1  0.54586419  0.08987863  0.60177240  1
  O2-  O200  1  0.54906959  0.08753027  0.93262350  1
  O2-  O201  1  0.54133924  0.58234082  0.26384192  1
  O2-  O202  1  0.54900658  0.58182669  0.60447384  1
  O2-  O203  1  0.54341644  0.58787933  0.93200389  1
  O2-  O204  1  0.16388770  0.20238424  0.27253732  1
  O2-  O205  1  0.16456681  0.19949445  0.60242289  1
  O2-  O206  1  0.16398721  0.21135150  0.92742095  1
  O2-  O207  1  0.16353232  0.69830837  0.27090127  1
  O2-  O208  1  0.15924633  0.70459109  0.60489170  1
  O2-  O209  1  0.16719835  0.69777287  0.93695172  1
  O2-  O210  1  0.66708387  0.20378144  0.26982634  1
  O2-  O211  1  0.66435306  0.20952783  0.60234338  1
  O2-  O212  1  0.66841011  0.20766614  0.93744587  1
  O2-  O213  1  0.67412505  0.70195691  0.26715097  1
  O2-  O214  1  0.66771139  0.70155581  0.60272135  1
  O2-  O215  1  0.66794734  0.69971137  0.93679326  1
  O2-  O216  1  0.08380198  0.45877172  0.06753513  1
  O2-  O217  1  0.08160032  0.46346720  0.39839364  1
  O2-  O218  1  0.08171543  0.45703846  0.73628219  1
  O2-  O219  1  0.08654546  0.96306689  0.06573374  1
  O2-  O220  1  0.08205740  0.95878102  0.40377768  1
  O2-  O221  1  0.08458306  0.96385315  0.73347348  1
  O2-  O222  1  0.58203234  0.46420992  0.06623812  1
  O2-  O223  1  0.58153629  0.46041784  0.40175317  1
  O2-  O224  1  0.58380688  0.45072817  0.72841075  1
  O2-  O225  1  0.57926625  0.96006711  0.06609103  1
  O2-  O226  1  0.58399474  0.95749299  0.40349209  1
  O2-  O227  1  0.58265983  0.95818130  0.72513200  1
  O2-  O228  1  0.21195932  0.33012827  0.06594178  1
  O2-  O229  1  0.20380449  0.33191463  0.40036175  1
  O2-  O230  1  0.20349752  0.32557608  0.73112121  1
  O2-  O231  1  0.20470996  0.82900675  0.06438045  1
  O2-  O232  1  0.20088277  0.82493713  0.39920032  1
  O2-  O233  1  0.20531268  0.83193117  0.73422974  1
  O2-  O234  1  0.70576190  0.33533890  0.06902013  1
  O2-  O235  1  0.70893360  0.33287446  0.40174287  1
  O2-  O236  1  0.70655842  0.33554477  0.73015806  1
  O2-  O237  1  0.70563113  0.82970616  0.06428506  1
  O2-  O238  1  0.71360984  0.83218382  0.40291015  1
  O2-  O239  1  0.69718461  0.83389342  0.72686549  1
  O2-  O240  1  0.45685639  0.41545008  0.26736533  1
  O2-  O241  1  0.45431425  0.41431398  0.60573493  1
  O2-  O242  1  0.46043467  0.41859134  0.93144152  1
  O2-  O243  1  0.45298408  0.92381394  0.27020525  1
  O2-  O244  1  0.45466918  0.91792230  0.59847908  1
  O2-  O245  1  0.45619390  0.92077639  0.93091363  1
  O2-  O246  1  0.95749172  0.41799921  0.26383506  1
  O2-  O247  1  0.95474914  0.41448516  0.60705781  1
  O2-  O248  1  0.95221300  0.41851038  0.93807215  1
  O2-  O249  1  0.95578685  0.91521573  0.27423236  1
  O2-  O250  1  0.95793390  0.91325110  0.60317573  1
  O2-  O251  1  0.96240207  0.91637674  0.93206023  1
  O2-  O252  1  0.33099019  0.28589020  0.26971050  1
  O2-  O253  1  0.33676505  0.29134902  0.60514290  1
  O2-  O254  1  0.33570625  0.28793416  0.92798521  1
  O2-  O255  1  0.32972885  0.79076759  0.26569620  1
  O2-  O256  1  0.33004919  0.78624064  0.60032041  1
  O2-  O257  1  0.33311195  0.78674913  0.93282997  1
  O2-  O258  1  0.83194818  0.29145592  0.26596018  1
  O2-  O259  1  0.83783231  0.29059878  0.60519718  1
  O2-  O260  1  0.83142024  0.30036839  0.93781157  1
  O2-  O261  1  0.84081687  0.79122395  0.27176172  1
  O2-  O262  1  0.83439016  0.79578658  0.60596967  1
  O2-  O263  1  0.83446464  0.79019913  0.93034435  1
  O2-  O264  1  0.41867936  0.05672328  0.05637537  1
  O2-  O265  1  0.42286555  0.05450448  0.40010038  1
  O2-  O266  1  0.42004790  0.05105299  0.72883489  1
  O2-  O267  1  0.41778956  0.55003581  0.06236100  1
  O2-  O268  1  0.41510136  0.54597986  0.39464654  1
  O2-  O269  1  0.42151853  0.54700382  0.73571718  1
  O2-  O270  1  0.92040488  0.04102361  0.06969991  1
  O2-  O271  1  0.91492001  0.04598631  0.39851659  1
  O2-  O272  1  0.91581292  0.04003932  0.73312838  1
  O2-  O273  1  0.91735829  0.54959844  0.06371417  1
  O2-  O274  1  0.91481366  0.54352653  0.39601801  1
  O2-  O275  1  0.91367919  0.54026521  0.73919521  1
  O2-  O276  1  0.28946902  0.16415244  0.05939222  1
  O2-  O277  1  0.28581627  0.16441356  0.40655963  1
  O2-  O278  1  0.29633445  0.16472130  0.73171922  1
  O2-  O279  1  0.29322118  0.66342093  0.06697465  1
  O2-  O280  1  0.29304935  0.66258885  0.39631173  1
  O2-  O281  1  0.28724986  0.66559158  0.73710573  1
  O2-  O282  1  0.79762129  0.17070344  0.06897238  1
  O2-  O283  1  0.79601017  0.16556829  0.39641191  1
  O2-  O284  1  0.78883919  0.16603773  0.73535620  1
  O2-  O285  1  0.79871147  0.66726499  0.06307513  1
  O2-  O286  1  0.79952628  0.66503062  0.39704244  1
  O2-  O287  1  0.79189147  0.66898689  0.73588227  1
