# generated using pymatgen
data_Ca2Al2SiO7
_symmetry_space_group_name_H-M   'P 1'
_cell_length_a   15.45884541
_cell_length_b   15.45806584
_cell_length_c   15.28469639
_cell_angle_alpha   90.01061501
_cell_angle_beta   89.99287501
_cell_angle_gamma   90.01259938
_symmetry_Int_Tables_number   1
_chemical_formula_structural   Ca2Al2SiO7
_chemical_formula_sum   'Ca48 Al48 Si24 O168'
_cell_volume   3652.48971884
_cell_formula_units_Z   24
loop_
 _symmetry_equiv_pos_site_id
 _symmetry_equiv_pos_as_xyz
  1  'x, y, z'
loop_
 _atom_type_symbol
 _atom_type_oxidation_number
  Ca2+  2.0
  Al0+  0.0
  Si0+  0.0
  O2-  -2.0
loop_
 _atom_site_type_symbol
 _atom_site_label
 _atom_site_symmetry_multiplicity
 _atom_site_fract_x
 _atom_site_fract_y
 _atom_site_fract_z
 _atom_site_occupancy
  Ca2+  Ca0  1  0.17513886  0.08604632  0.17227783  1
  Ca2+  Ca1  1  0.15968044  0.07233516  0.50255810  1
  Ca2+  Ca2  1  0.16134672  0.08422039  0.83654925  1
  Ca2+  Ca3  1  0.16594474  0.57138057  0.17627251  1
  Ca2+  Ca4  1  0.17075945  0.58751185  0.49715384  1
  Ca2+  Ca5  1  0.17005920  0.57628470  0.83752858  1
  Ca2+  Ca6  1  0.67271139  0.08009406  0.17163029  1
  Ca2+  Ca7  1  0.68214460  0.08289733  0.50263188  1
  Ca2+  Ca8  1  0.67575607  0.07812020  0.83628005  1
  Ca2+  Ca9  1  0.67574082  0.57619987  0.17010802  1
  Ca2+  Ca10  1  0.66634603  0.57025812  0.50267713  1
  Ca2+  Ca11  1  0.67592962  0.57739448  0.83659377  1
  Ca2+  Ca12  1  0.07994443  0.33341930  0.15632951  1
  Ca2+  Ca13  1  0.07247232  0.33199565  0.49338281  1
  Ca2+  Ca14  1  0.07727253  0.32429507  0.83121664  1
  Ca2+  Ca15  1  0.08618757  0.82998107  0.17281077  1
  Ca2+  Ca16  1  0.08203257  0.83344901  0.49211894  1
  Ca2+  Ca17  1  0.07847806  0.83377072  0.82335018  1
  Ca2+  Ca18  1  0.57565980  0.33511444  0.16483708  1
  Ca2+  Ca19  1  0.58665375  0.33621331  0.49424165  1
  Ca2+  Ca20  1  0.57693821  0.33935510  0.82911161  1
  Ca2+  Ca21  1  0.57752872  0.83898011  0.16243349  1
  Ca2+  Ca22  1  0.57298848  0.83032852  0.49081807  1
  Ca2+  Ca23  1  0.58471651  0.83481754  0.83168964  1
  Ca2+  Ca24  1  0.31910418  0.41391749  0.17242837  1
  Ca2+  Ca25  1  0.32436542  0.42747094  0.50125992  1
  Ca2+  Ca26  1  0.32769333  0.41750612  0.84019626  1
  Ca2+  Ca27  1  0.33026127  0.92865545  0.17737030  1
  Ca2+  Ca28  1  0.32107160  0.91347281  0.49846077  1
  Ca2+  Ca29  1  0.32277446  0.92436141  0.83786324  1
  Ca2+  Ca30  1  0.83682591  0.41648497  0.17293455  1
  Ca2+  Ca31  1  0.82517131  0.40422801  0.50343056  1
  Ca2+  Ca32  1  0.83584773  0.41501466  0.83761308  1
  Ca2+  Ca33  1  0.83098204  0.92174188  0.17370469  1
  Ca2+  Ca34  1  0.85327535  0.92937378  0.50199190  1
  Ca2+  Ca35  1  0.83639804  0.92333532  0.83497442  1
  Ca2+  Ca36  1  0.41103089  0.16909937  0.15755927  1
  Ca2+  Ca37  1  0.42204983  0.16266496  0.49378658  1
  Ca2+  Ca38  1  0.41259332  0.17093337  0.83641786  1
  Ca2+  Ca39  1  0.41043147  0.67097833  0.16973924  1
  Ca2+  Ca40  1  0.41089410  0.66683136  0.49077748  1
  Ca2+  Ca41  1  0.41783106  0.66496511  0.82587524  1
  Ca2+  Ca42  1  0.92275670  0.17674465  0.16271688  1
  Ca2+  Ca43  1  0.91753519  0.16991290  0.49705020  1
  Ca2+  Ca44  1  0.92570448  0.17138425  0.82402468  1
  Ca2+  Ca45  1  0.92146828  0.66560839  0.16497462  1
  Ca2+  Ca46  1  0.92251630  0.68187623  0.48946206  1
  Ca2+  Ca47  1  0.91396622  0.67176582  0.82929026  1
  Al0+  Al48  1  -0.00047078  -0.00181663  -0.00079010  1
  Al0+  Al49  1  0.00078149  0.00152864  0.33271455  1
  Al0+  Al50  1  0.00095493  -0.00016574  0.67060410  1
  Al0+  Al51  1  0.00037128  0.50170877  0.00186908  1
  Al0+  Al52  1  -0.00176201  0.50167146  0.33257865  1
  Al0+  Al53  1  0.00044711  0.50013204  0.66219742  1
  Al0+  Al54  1  0.49894455  -0.00027389  0.00374408  1
  Al0+  Al55  1  0.50264120  -0.00048826  0.33236679  1
  Al0+  Al56  1  0.49884135  0.00049015  0.66581672  1
  Al0+  Al57  1  0.50169599  0.50253933  -0.00440573  1
  Al0+  Al58  1  0.50126357  0.49900662  0.33767088  1
  Al0+  Al59  1  0.50062697  0.50060305  0.67377401  1
  Al0+  Al60  1  0.25016542  0.25028981  -0.00219625  1
  Al0+  Al61  1  0.25147262  0.25141881  0.34410846  1
  Al0+  Al62  1  0.25143958  0.24993296  0.66018718  1
  Al0+  Al63  1  0.25016273  0.75078775  -0.00282789  1
  Al0+  Al64  1  0.25105323  0.75132402  0.32862613  1
  Al0+  Al65  1  0.25063994  0.75159739  0.67714678  1
  Al0+  Al66  1  0.74780533  0.24950202  -0.00236764  1
  Al0+  Al67  1  0.74997346  0.24843313  0.33419748  1
  Al0+  Al68  1  0.74771783  0.24794873  0.67542360  1
  Al0+  Al69  1  0.74861978  0.74861705  0.00788743  1
  Al0+  Al70  1  0.74821549  0.74909309  0.32949289  1
  Al0+  Al71  1  0.74750971  0.74876915  0.65882806  1
  Al0+  Al72  1  0.32493547  0.07336874  0.34992012  1
  Al0+  Al73  1  0.17354140  0.42778565  0.35020663  1
  Al0+  Al74  1  0.92750735  0.32346170  0.98515263  1
  Al0+  Al75  1  0.18003339  0.93146351  0.68204613  1
  Al0+  Al76  1  0.68199257  0.42985111  0.34522188  1
  Al0+  Al77  1  0.82075572  0.06850704  0.68168632  1
  Al0+  Al78  1  0.92822965  0.82431024  0.31552873  1
  Al0+  Al79  1  0.82080060  0.56907624  0.01354476  1
  Al0+  Al80  1  0.92675481  0.32096610  0.65122283  1
  Al0+  Al81  1  0.68026571  0.92978980  0.01302820  1
  Al0+  Al82  1  0.07159202  0.67973883  0.31728594  1
  Al0+  Al83  1  0.18146665  0.43086209  0.01103680  1
  Al0+  Al84  1  0.43044901  0.32157894  0.98745322  1
  Al0+  Al85  1  0.68100575  0.42874250  0.68265341  1
  Al0+  Al86  1  0.31737267  0.06958738  0.01182860  1
  Al0+  Al87  1  0.43046598  0.82091496  0.31856144  1
  Al0+  Al88  1  0.31979408  0.56995197  0.34499052  1
  Al0+  Al89  1  0.07214880  0.17830795  0.64899678  1
  Al0+  Al90  1  0.92839769  0.81926397  0.65465477  1
  Al0+  Al91  1  0.82009444  0.06893223  0.34502523  1
  Al0+  Al92  1  0.31897596  0.57009699  0.68188239  1
  Al0+  Al93  1  0.18056364  0.93116706  0.34663216  1
  Al0+  Al94  1  0.92797663  0.31928713  0.32002959  1
  Al0+  Al95  1  0.07089397  0.17806068  0.98608818  1
  Si0+  Si96  1  0.67432026  0.92645172  0.68025730  1
  Si0+  Si97  1  0.32475588  0.57415429  0.01634604  1
  Si0+  Si98  1  0.32539523  0.07344944  0.68399294  1
  Si0+  Si99  1  0.42868974  0.82047100  0.65343707  1
  Si0+  Si100  1  0.57123750  0.17524852  0.98253061  1
  Si0+  Si101  1  0.17538230  0.92476656  0.01784784  1
  Si0+  Si102  1  0.67826824  0.92555181  0.35063410  1
  Si0+  Si103  1  0.07485477  0.67855697  0.65224223  1
  Si0+  Si104  1  0.92687628  0.81859787  0.98586033  1
  Si0+  Si105  1  0.56924164  0.67751439  0.65057764  1
  Si0+  Si106  1  0.07447671  0.17974185  0.31766116  1
  Si0+  Si107  1  0.57123045  0.67471917  0.31460039  1
  Si0+  Si108  1  0.57137399  0.17955142  0.31882992  1
  Si0+  Si109  1  0.42919147  0.82213007  0.98280428  1
  Si0+  Si110  1  0.17667853  0.42580753  0.68366668  1
  Si0+  Si111  1  0.42951124  0.32119988  0.32110842  1
  Si0+  Si112  1  0.82256203  0.57461743  0.35165354  1
  Si0+  Si113  1  0.57189942  0.68096841  0.98349842  1
  Si0+  Si114  1  0.07183233  0.67942993  0.98351372  1
  Si0+  Si115  1  0.82210960  0.57446857  0.67972826  1
  Si0+  Si116  1  0.43068519  0.32368260  0.65016086  1
  Si0+  Si117  1  0.82340461  0.07285462  0.01717713  1
  Si0+  Si118  1  0.56953243  0.17852980  0.65223205  1
  Si0+  Si119  1  0.67604141  0.42693757  0.01643791  1
  O2-  O120  1  0.24209083  -0.00368839  0.05906418  1
  O2-  O121  1  0.25099176  0.00361449  0.39932789  1
  O2-  O122  1  0.25217146  0.00956236  0.72744938  1
  O2-  O123  1  0.25711435  0.50481280  0.05863106  1
  O2-  O124  1  0.24544584  0.50213437  0.39713748  1
  O2-  O125  1  0.24468088  0.49554693  0.72848380  1
  O2-  O126  1  0.75327535  0.00504005  0.06050964  1
  O2-  O127  1  0.75248148  -0.01237867  0.39428873  1
  O2-  O128  1  0.74706902  -0.00996791  0.72482848  1
  O2-  O129  1  0.75156660  0.48815018  0.05931298  1
  O2-  O130  1  0.75677767  0.50271732  0.39488325  1
  O2-  O131  1  0.76035145  0.50023895  0.72610957  1
  O2-  O132  1  0.00963332  0.25221576  0.27345176  1
  O2-  O133  1  0.00104634  0.25200997  0.60022613  1
  O2-  O134  1  -0.00493353  0.24672000  0.93636627  1
  O2-  O135  1  -0.00268027  0.74948787  0.26565098  1
  O2-  O136  1  0.00175775  0.74286156  0.60938188  1
  O2-  O137  1  0.00194535  0.75231811  0.94218277  1
  O2-  O138  1  0.49452631  0.24480960  0.27790588  1
  O2-  O139  1  0.49989765  0.25038663  0.60868091  1
  O2-  O140  1  0.50727137  0.24898301  0.93880643  1
  O2-  O141  1  0.50580589  0.74673158  0.27042703  1
  O2-  O142  1  0.49869809  0.74933086  0.60978317  1
  O2-  O143  1  0.49817357  0.74910633  0.93994846  1
  O2-  O144  1  0.07190567  0.17924002  0.09976686  1
  O2-  O145  1  0.07073701  0.17783280  0.42303461  1
  O2-  O146  1  0.07095429  0.17953581  0.76280979  1
  O2-  O147  1  0.07325739  0.67944730  0.08792201  1
  O2-  O148  1  0.07144212  0.68270523  0.43131592  1
  O2-  O149  1  0.07470772  0.68000453  0.75848814  1
  O2-  O150  1  0.57021952  0.17397436  0.08820143  1
  O2-  O151  1  0.57299988  0.18133893  0.42426752  1
  O2-  O152  1  0.56702839  0.17629665  0.75721894  1
  O2-  O153  1  0.57149784  0.68044653  0.08812294  1
  O2-  O154  1  0.56976084  0.67446190  0.42053342  1
  O2-  O155  1  0.57061245  0.67881042  0.75599439  1
  O2-  O156  1  0.17734070  0.42526737  0.23623972  1
  O2-  O157  1  0.17856833  0.42708802  0.57850395  1
  O2-  O158  1  0.18326854  0.43336575  0.89775422  1
  O2-  O159  1  0.18277289  0.93293496  0.23285353  1
  O2-  O160  1  0.18259171  0.92671484  0.56970085  1
  O2-  O161  1  0.17734481  0.92132301  0.91205938  1
  O2-  O162  1  0.67977219  0.43114054  0.23219878  1
  O2-  O163  1  0.67735995  0.43053595  0.56963235  1
  O2-  O164  1  0.67236184  0.43212016  0.91098599  1
  O2-  O165  1  0.67530526  0.92992176  0.24487367  1
  O2-  O166  1  0.66670751  0.93000198  0.57552946  1
  O2-  O167  1  0.68191788  0.92935703  0.89940198  1
  O2-  O168  1  0.43124440  0.32063501  0.10073551  1
  O2-  O169  1  0.43453149  0.32350080  0.42626110  1
  O2-  O170  1  0.43159975  0.32356069  0.75557668  1
  O2-  O171  1  0.42993309  0.82211048  0.08746989  1
  O2-  O172  1  0.43190068  0.81932608  0.43229551  1
  O2-  O173  1  0.43191176  0.82020103  0.75887618  1
  O2-  O174  1  0.92967849  0.32249413  0.09887888  1
  O2-  O175  1  0.92364007  0.31355568  0.43274083  1
  O2-  O176  1  0.92800476  0.32023153  0.76476656  1
  O2-  O177  1  0.92604566  0.81746859  0.09031502  1
  O2-  O178  1  0.93081202  0.82315775  0.42929234  1
  O2-  O179  1  0.92753248  0.81692850  0.76872554  1
  O2-  O180  1  0.32473794  0.07315765  0.23596765  1
  O2-  O181  1  0.33282237  0.06831486  0.57936217  1
  O2-  O182  1  0.31927730  0.06670351  0.89861647  1
  O2-  O183  1  0.32182558  0.56546120  0.23134586  1
  O2-  O184  1  0.32005243  0.57127029  0.56928934  1
  O2-  O185  1  0.32359964  0.57472070  0.91039693  1
  O2-  O186  1  0.81482498  0.07025581  0.23195537  1
  O2-  O187  1  0.81865731  0.06881404  0.56868692  1
  O2-  O188  1  0.82290774  0.06994974  0.91150519  1
  O2-  O189  1  0.81977303  0.57468953  0.24578394  1
  O2-  O190  1  0.81616568  0.57921067  0.57496670  1
  O2-  O191  1  0.81711408  0.57382968  0.90015131  1
  O2-  O192  1  0.04649151  0.08779707  0.27001811  1
  O2-  O193  1  0.04020686  0.07970255  0.59961621  1
  O2-  O194  1  0.04563967  0.07714906  0.93427924  1
  O2-  O195  1  0.04331645  0.58099545  0.26436590  1
  O2-  O196  1  0.05679385  0.58354830  0.60677825  1
  O2-  O197  1  0.04200013  0.58922871  0.93471141  1
  O2-  O198  1  0.55039883  0.08604835  0.27175238  1
  O2-  O199  1  0.54083384  0.08742315  0.60264491  1
  O2-  O200  1  0.54001738  0.08365115  0.93490644  1
  O2-  O201  1  0.54196481  0.58238961  0.26768484  1
  O2-  O202  1  0.53885188  0.58593530  0.60462652  1
  O2-  O203  1  0.54705800  0.58936088  0.93329103  1
  O2-  O204  1  0.17142040  0.20222635  0.27679630  1
  O2-  O205  1  0.17312602  0.19964813  0.59755756  1
  O2-  O206  1  0.16764217  0.20893582  0.93115137  1
  O2-  O207  1  0.16850617  0.70919977  0.26163270  1
  O2-  O208  1  0.16759458  0.71072034  0.60867605  1
  O2-  O209  1  0.16440891  0.70562482  0.93487498  1
  O2-  O210  1  0.65928578  0.21331873  0.26809120  1
  O2-  O211  1  0.66175962  0.20587697  0.60653973  1
  O2-  O212  1  0.66635229  0.19506155  0.93698203  1
  O2-  O213  1  0.66562324  0.69672095  0.26871663  1
  O2-  O214  1  0.65945679  0.70288882  0.59915233  1
  O2-  O215  1  0.66249236  0.71317201  0.93576348  1
  O2-  O216  1  0.08619418  0.46307949  0.06540383  1
  O2-  O217  1  0.07533638  0.45646019  0.40262345  1
  O2-  O218  1  0.08215705  0.45102231  0.72838366  1
  O2-  O219  1  0.08007436  0.94540424  0.06155500  1
  O2-  O220  1  0.08179673  0.95779913  0.39941232  1
  O2-  O221  1  0.08425799  0.95955902  0.73865954  1
  O2-  O222  1  0.58511093  0.46141582  0.06346065  1
  O2-  O223  1  0.58702457  0.46176314  0.40237634  1
  O2-  O224  1  0.58706371  0.46592862  0.73867224  1
  O2-  O225  1  0.58366943  0.95983388  0.06750174  1
  O2-  O226  1  0.58736821  0.95698681  0.39846656  1
  O2-  O227  1  0.58317484  0.95667417  0.73054123  1
  O2-  O228  1  0.21321040  0.33514082  0.06502390  1
  O2-  O229  1  0.20504696  0.33261700  0.40682146  1
  O2-  O230  1  0.20628986  0.33223346  0.72760300  1
  O2-  O231  1  0.20521697  0.83187146  0.06294913  1
  O2-  O232  1  0.21178775  0.83313664  0.39816192  1
  O2-  O233  1  0.21405733  0.83791619  0.74141201  1
  O2-  O234  1  0.69025603  0.32936048  0.05811364  1
  O2-  O235  1  0.71047049  0.33315798  0.40005479  1
  O2-  O236  1  0.70266520  0.33154339  0.73895239  1
  O2-  O237  1  0.70845126  0.83445253  0.06982798  1
  O2-  O238  1  0.69325312  0.82816844  0.39234880  1
  O2-  O239  1  0.69549597  0.83001515  0.72257077  1
  O2-  O240  1  0.46395022  0.41020090  0.27231396  1
  O2-  O241  1  0.46351510  0.41483600  0.60498597  1
  O2-  O242  1  0.46000579  0.41877988  0.93169928  1
  O2-  O243  1  0.46432784  0.91704871  0.26377013  1
  O2-  O244  1  0.45663664  0.91193373  0.60571603  1
  O2-  O245  1  0.46030304  0.91275888  0.93490843  1
  O2-  O246  1  0.94859437  0.42010700  0.27103619  1
  O2-  O247  1  0.94891453  0.42201761  0.59938338  1
  O2-  O248  1  0.95840485  0.42178588  0.93289100  1
  O2-  O249  1  0.95769123  0.92237583  0.26220043  1
  O2-  O250  1  0.96311305  0.91498929  0.60385653  1
  O2-  O251  1  0.95060975  0.91189465  0.93894379  1
  O2-  O252  1  0.33521591  0.29835344  0.27661336  1
  O2-  O253  1  0.33846880  0.30057688  0.60234965  1
  O2-  O254  1  0.33642129  0.28827667  0.93029560  1
  O2-  O255  1  0.33613583  0.79097235  0.26094638  1
  O2-  O256  1  0.33635630  0.79136515  0.60910910  1
  O2-  O257  1  0.33671021  0.79589368  0.93477486  1
  O2-  O258  1  0.83316806  0.28320483  0.26461893  1
  O2-  O259  1  0.82611536  0.28895736  0.60430852  1
  O2-  O260  1  0.82511165  0.30210915  0.93625489  1
  O2-  O261  1  0.82681440  0.79872198  0.26617105  1
  O2-  O262  1  0.83121129  0.79379061  0.59855347  1
  O2-  O263  1  0.83586858  0.78588220  0.93956350  1
  O2-  O264  1  0.41357086  0.03851353  0.06641496  1
  O2-  O265  1  0.42418718  0.04278785  0.40048494  1
  O2-  O266  1  0.41660734  0.04267268  0.73354946  1
  O2-  O267  1  0.42035313  0.55237732  0.05891926  1
  O2-  O268  1  0.41690708  0.53975905  0.40035849  1
  O2-  O269  1  0.41529730  0.53948404  0.73737160  1
  O2-  O270  1  0.91614430  0.04502364  0.06310517  1
  O2-  O271  1  0.91765856  0.04365907  0.39908125  1
  O2-  O272  1  0.91529043  0.03675888  0.73812890  1
  O2-  O273  1  0.91826547  0.54528353  0.06795517  1
  O2-  O274  1  0.91709293  0.55526911  0.39602228  1
  O2-  O275  1  0.91903649  0.55707061  0.72255182  1
  O2-  O276  1  0.29027618  0.16683308  0.06544535  1
  O2-  O277  1  0.30456880  0.17227513  0.40404105  1
  O2-  O278  1  0.30513264  0.17046320  0.72504009  1
  O2-  O279  1  0.29851372  0.66879147  0.05974948  1
  O2-  O280  1  0.29507142  0.66995856  0.39579325  1
  O2-  O281  1  0.29149378  0.66595434  0.73976149  1
  O2-  O282  1  0.79711631  0.16715608  0.06137341  1
  O2-  O283  1  0.78068728  0.16127804  0.40090832  1
  O2-  O284  1  0.78480849  0.16113550  0.73960091  1
  O2-  O285  1  0.78303945  0.66133139  0.07117520  1
  O2-  O286  1  0.79251893  0.66755528  0.39723702  1
  O2-  O287  1  0.78818517  0.66554000  0.72832400  1
