# generated using pymatgen
data_Ca2Al2SiO7
_symmetry_space_group_name_H-M   'P 1'
_cell_length_a   15.46403019
_cell_length_b   15.46230124
_cell_length_c   15.28724421
_cell_angle_alpha   89.99095270
_cell_angle_beta   90.01153407
_cell_angle_gamma   89.97306783
_symmetry_Int_Tables_number   1
_chemical_formula_structural   Ca2Al2SiO7
_chemical_formula_sum   'Ca48 Al48 Si24 O168'
_cell_volume   3655.32469178
_cell_formula_units_Z   24
loop_
 _symmetry_equiv_pos_site_id
 _symmetry_equiv_pos_as_xyz
  1  'x, y, z'
loop_
 _atom_type_symbol
 _atom_type_oxidation_number
  Ca2+  2.0
  Al0+  0.0
  Si0+  0.0
  O2-  -2.0
loop_
 _atom_site_type_symbol
 _atom_site_label
 _atom_site_symmetry_multiplicity
 _atom_site_fract_x
 _atom_site_fract_y
 _atom_site_fract_z
 _atom_site_occupancy
  Ca2+  Ca0  1  0.16848235  0.07939882  0.17505784  1
  Ca2+  Ca1  1  0.17181828  0.08416729  0.50549335  1
  Ca2+  Ca2  1  0.15698383  0.07189083  0.83872670  1
  Ca2+  Ca3  1  0.16664695  0.57682485  0.17817821  1
  Ca2+  Ca4  1  0.17417559  0.58946440  0.50189816  1
  Ca2+  Ca5  1  0.16940856  0.59074954  0.83563252  1
  Ca2+  Ca6  1  0.65746384  0.08198595  0.16888036  1
  Ca2+  Ca7  1  0.66495144  0.08073416  0.50726311  1
  Ca2+  Ca8  1  0.66199680  0.07765827  0.83845130  1
  Ca2+  Ca9  1  0.67455001  0.58324315  0.17535499  1
  Ca2+  Ca10  1  0.67568992  0.58736266  0.50199274  1
  Ca2+  Ca11  1  0.67076986  0.58239130  0.83850277  1
  Ca2+  Ca12  1  0.09778140  0.32001604  0.16791216  1
  Ca2+  Ca13  1  0.09283997  0.32410145  0.49472133  1
  Ca2+  Ca14  1  0.08600823  0.31904714  0.83151114  1
  Ca2+  Ca15  1  0.08738103  0.82029649  0.16184788  1
  Ca2+  Ca16  1  0.07797844  0.82786242  0.49633094  1
  Ca2+  Ca17  1  0.08632140  0.82874072  0.82436180  1
  Ca2+  Ca18  1  0.57089003  0.32545804  0.16090217  1
  Ca2+  Ca19  1  0.57644998  0.32113761  0.49125660  1
  Ca2+  Ca20  1  0.57960392  0.32264248  0.82915087  1
  Ca2+  Ca21  1  0.57015409  0.83661739  0.16262647  1
  Ca2+  Ca22  1  0.57641404  0.83649624  0.49347229  1
  Ca2+  Ca23  1  0.57778526  0.84514392  0.83301712  1
  Ca2+  Ca24  1  0.33228833  0.41900734  0.17913528  1
  Ca2+  Ca25  1  0.33217607  0.42382733  0.49828459  1
  Ca2+  Ca26  1  0.33738481  0.42285714  0.83551940  1
  Ca2+  Ca27  1  0.33216381  0.91944453  0.17098427  1
  Ca2+  Ca28  1  0.32862251  0.92045736  0.50151118  1
  Ca2+  Ca29  1  0.32134859  0.91657011  0.83928903  1
  Ca2+  Ca30  1  0.83177688  0.42200913  0.17570568  1
  Ca2+  Ca31  1  0.83742637  0.42348704  0.49965158  1
  Ca2+  Ca32  1  0.83375928  0.41732877  0.83764840  1
  Ca2+  Ca33  1  0.82638740  0.91267809  0.17005491  1
  Ca2+  Ca34  1  0.83059244  0.91169022  0.50632366  1
  Ca2+  Ca35  1  0.82270973  0.91075967  0.83577987  1
  Ca2+  Ca36  1  0.41715890  0.17442929  0.16562761  1
  Ca2+  Ca37  1  0.42505993  0.16473433  0.48824300  1
  Ca2+  Ca38  1  0.42557861  0.16684123  0.83322625  1
  Ca2+  Ca39  1  0.40298087  0.67957210  0.16614298  1
  Ca2+  Ca40  1  0.41006335  0.67086466  0.49367719  1
  Ca2+  Ca41  1  0.41252057  0.67417477  0.83009671  1
  Ca2+  Ca42  1  0.92936561  0.16531892  0.16610748  1
  Ca2+  Ca43  1  0.93130156  0.16331277  0.49669288  1
  Ca2+  Ca44  1  0.92704486  0.16054671  0.83153672  1
  Ca2+  Ca45  1  0.92524482  0.66639380  0.16767213  1
  Ca2+  Ca46  1  0.92323150  0.67710646  0.49091532  1
  Ca2+  Ca47  1  0.93093370  0.67481958  0.82505262  1
  Al0+  Al48  1  -0.00314439  -0.00250265  0.00310551  1
  Al0+  Al49  1  -0.00434241  -0.00105897  0.32614700  1
  Al0+  Al50  1  -0.00081582  0.00074978  0.66270118  1
  Al0+  Al51  1  0.00226872  0.50069788  -0.00373285  1
  Al0+  Al52  1  -0.00141346  0.49878218  0.34074556  1
  Al0+  Al53  1  0.00241810  0.49912045  0.66660183  1
  Al0+  Al54  1  0.49842951  -0.00017375  -0.00321303  1
  Al0+  Al55  1  0.49870059  -0.00244243  0.33036627  1
  Al0+  Al56  1  0.49965758  0.00081775  0.66679859  1
  Al0+  Al57  1  0.50126100  0.50153210  -0.00114983  1
  Al0+  Al58  1  0.50128500  0.49886101  0.33576233  1
  Al0+  Al59  1  0.50073906  0.50120531  0.67144128  1
  Al0+  Al60  1  0.25038839  0.25056448  -0.01139536  1
  Al0+  Al61  1  0.25306864  0.24841347  0.33526792  1
  Al0+  Al62  1  0.25259794  0.25372860  0.66563094  1
  Al0+  Al63  1  0.25013683  0.75072926  -0.00417229  1
  Al0+  Al64  1  0.24800222  0.74993084  0.32965598  1
  Al0+  Al65  1  0.25145707  0.75121255  0.67062620  1
  Al0+  Al66  1  0.75053819  0.25072152  -0.00113780  1
  Al0+  Al67  1  0.75178577  0.24646906  0.33139592  1
  Al0+  Al68  1  0.74979360  0.25028693  0.66374366  1
  Al0+  Al69  1  0.74999535  0.75015311  0.00635972  1
  Al0+  Al70  1  0.74926523  0.74970216  0.33435133  1
  Al0+  Al71  1  0.74921485  0.75007233  0.67073103  1
  Al0+  Al72  1  0.07170075  0.17969821  0.65302843  1
  Al0+  Al73  1  0.17905581  0.42673353  0.34844015  1
  Al0+  Al74  1  0.42967697  0.82006274  0.98423130  1
  Al0+  Al75  1  0.32041931  0.57069579  0.68256827  1
  Al0+  Al76  1  0.56910562  0.17879201  0.65147127  1
  Al0+  Al77  1  0.32136808  0.57322446  0.34715312  1
  Al0+  Al78  1  0.57264120  0.17672506  0.31782936  1
  Al0+  Al79  1  0.32049291  0.06837216  0.34531669  1
  Al0+  Al80  1  0.42798280  0.81895640  0.32123147  1
  Al0+  Al81  1  0.67830689  0.92942178  0.68012740  1
  Al0+  Al82  1  0.42975418  0.32190277  0.32002101  1
  Al0+  Al83  1  0.17933704  0.93281383  0.67776794  1
  Al0+  Al84  1  0.17740318  0.92814615  0.01478771  1
  Al0+  Al85  1  0.07254293  0.17935029  0.32099955  1
  Al0+  Al86  1  0.07019691  0.67933145  0.98498237  1
  Al0+  Al87  1  0.07430476  0.67911084  0.65007652  1
  Al0+  Al88  1  0.92548907  0.82122009  0.31532850  1
  Al0+  Al89  1  0.82005693  0.57087697  0.34842108  1
  Al0+  Al90  1  0.06992239  0.67814620  0.31853159  1
  Al0+  Al91  1  0.42779607  0.32472481  0.98245641  1
  Al0+  Al92  1  0.92689768  0.82030734  0.65247831  1
  Al0+  Al93  1  0.06988305  0.17642821  0.98715131  1
  Al0+  Al94  1  0.57151839  0.17967441  0.98369701  1
  Al0+  Al95  1  0.67756813  0.93086239  0.01639547  1
  Si0+  Si96  1  0.67918653  0.93045933  0.34801502  1
  Si0+  Si97  1  0.82213112  0.57104667  0.68369366  1
  Si0+  Si98  1  0.92502158  0.82037263  0.98335833  1
  Si0+  Si99  1  0.43046433  0.32590449  0.64821302  1
  Si0+  Si100  1  0.67900531  0.42497999  0.35045028  1
  Si0+  Si101  1  0.43051828  0.82022746  0.65200560  1
  Si0+  Si102  1  0.17728884  0.42633074  0.68736579  1
  Si0+  Si103  1  0.31964038  0.07284781  0.01473360  1
  Si0+  Si104  1  0.32162161  0.57079042  0.01449843  1
  Si0+  Si105  1  0.17994778  0.42856786  0.01266976  1
  Si0+  Si106  1  0.82160067  0.07405714  0.01908561  1
  Si0+  Si107  1  0.32295205  0.07475693  0.68360290  1
  Si0+  Si108  1  0.57261557  0.67739398  0.31903113  1
  Si0+  Si109  1  0.82150911  0.07359203  0.68287576  1
  Si0+  Si110  1  0.82248603  0.56919400  0.01488741  1
  Si0+  Si111  1  0.68072960  0.42907491  0.68225928  1
  Si0+  Si112  1  0.57486393  0.67903442  0.98422678  1
  Si0+  Si113  1  0.92858325  0.32290650  0.98497729  1
  Si0+  Si114  1  0.92707947  0.32295122  0.65001928  1
  Si0+  Si115  1  0.92800987  0.32147898  0.31847820  1
  Si0+  Si116  1  0.17452994  0.92806143  0.34832019  1
  Si0+  Si117  1  0.67914540  0.42854226  0.01552417  1
  Si0+  Si118  1  0.82232659  0.07155920  0.34962222  1
  Si0+  Si119  1  0.57162244  0.67719763  0.65343448  1
  O2-  O120  1  0.24825812  0.00724101  0.05980024  1
  O2-  O121  1  0.24202821  -0.00214737  0.39276169  1
  O2-  O122  1  0.24906695  0.01152468  0.72731114  1
  O2-  O123  1  0.25399107  0.49620954  0.05516052  1
  O2-  O124  1  0.24820590  0.50249638  0.39762568  1
  O2-  O125  1  0.24382040  0.49811244  0.73048942  1
  O2-  O126  1  0.75012806  0.00770988  0.06310110  1
  O2-  O127  1  0.75014789  0.00099367  0.39068561  1
  O2-  O128  1  0.75319665  0.00429675  0.72698331  1
  O2-  O129  1  0.75072734  0.49896069  0.05766051  1
  O2-  O130  1  0.74552954  0.49557292  0.39589203  1
  O2-  O131  1  0.75338195  0.49781357  0.72677202  1
  O2-  O132  1  0.00078350  0.25747375  0.27424025  1
  O2-  O133  1  -0.00203676  0.25611304  0.60716902  1
  O2-  O134  1  -0.00606049  0.25098711  0.94137276  1
  O2-  O135  1  0.00026696  0.75161899  0.26659241  1
  O2-  O136  1  -0.00084072  0.74888332  0.60237603  1
  O2-  O137  1  -0.00188461  0.75695909  0.93912889  1
  O2-  O138  1  0.50234336  0.25082216  0.26990975  1
  O2-  O139  1  0.49296997  0.25139296  0.60496842  1
  O2-  O140  1  0.50029409  0.25243848  0.93354417  1
  O2-  O141  1  0.49800557  0.73909578  0.27490234  1
  O2-  O142  1  0.50252956  0.74942827  0.61083349  1
  O2-  O143  1  0.50671691  0.74688433  0.93812103  1
  O2-  O144  1  0.07099176  0.17934194  0.10002773  1
  O2-  O145  1  0.07026575  0.17874883  0.43404051  1
  O2-  O146  1  0.06749775  0.17937598  0.76631898  1
  O2-  O147  1  0.06793684  0.67438801  0.09748602  1
  O2-  O148  1  0.07025941  0.68137243  0.43179762  1
  O2-  O149  1  0.07217006  0.68177362  0.76419121  1
  O2-  O150  1  0.57067845  0.18226357  0.09667539  1
  O2-  O151  1  0.57206557  0.17676389  0.43175494  1
  O2-  O152  1  0.56957949  0.18048628  0.76437677  1
  O2-  O153  1  0.57649828  0.67800633  0.08954481  1
  O2-  O154  1  0.57654111  0.68203211  0.42494801  1
  O2-  O155  1  0.57150974  0.67500140  0.75852420  1
  O2-  O156  1  0.18109409  0.42648451  0.23392047  1
  O2-  O157  1  0.17826440  0.42274976  0.58249292  1
  O2-  O158  1  0.17783249  0.43084182  0.90766588  1
  O2-  O159  1  0.17704402  0.92888404  0.24246676  1
  O2-  O160  1  0.18289805  0.93253050  0.56476451  1
  O2-  O161  1  0.17865459  0.92851636  0.90122606  1
  O2-  O162  1  0.68163387  0.42650265  0.24454896  1
  O2-  O163  1  0.68123670  0.43120538  0.57756525  1
  O2-  O164  1  0.68122391  0.42992581  0.90996370  1
  O2-  O165  1  0.67930673  0.93086614  0.24298423  1
  O2-  O166  1  0.67679864  0.92957713  0.56696279  1
  O2-  O167  1  0.68049962  0.93032215  0.90316785  1
  O2-  O168  1  0.42841469  0.32707510  0.09553277  1
  O2-  O169  1  0.43245526  0.32129274  0.43367467  1
  O2-  O170  1  0.43490726  0.32810623  0.75389557  1
  O2-  O171  1  0.42937088  0.81804593  0.09726023  1
  O2-  O172  1  0.43164380  0.82109705  0.43471300  1
  O2-  O173  1  0.43145629  0.81969128  0.75715296  1
  O2-  O174  1  0.92794847  0.32638335  0.09009409  1
  O2-  O175  1  0.92392102  0.31717557  0.42394478  1
  O2-  O176  1  0.92492646  0.32280871  0.75594188  1
  O2-  O177  1  0.92213399  0.81584518  0.08845481  1
  O2-  O178  1  0.92342556  0.82004610  0.42882619  1
  O2-  O179  1  0.92432739  0.81721537  0.76624563  1
  O2-  O180  1  0.32012424  0.06769284  0.23210909  1
  O2-  O181  1  0.32516731  0.07122334  0.57795309  1
  O2-  O182  1  0.31940019  0.07038423  0.90872051  1
  O2-  O183  1  0.31986617  0.57284113  0.23321835  1
  O2-  O184  1  0.32319009  0.57018564  0.57010476  1
  O2-  O185  1  0.32090874  0.57089231  0.90911153  1
  O2-  O186  1  0.82330653  0.07370488  0.24485748  1
  O2-  O187  1  0.81983924  0.07500729  0.57724045  1
  O2-  O188  1  0.82309526  0.07365495  0.91334043  1
  O2-  O189  1  0.81775751  0.56853191  0.23470369  1
  O2-  O190  1  0.81868194  0.57116964  0.57895496  1
  O2-  O191  1  0.82048006  0.56745485  0.90942563  1
  O2-  O192  1  0.03758498  0.08526108  0.26538075  1
  O2-  O193  1  0.03971404  0.08507031  0.59705222  1
  O2-  O194  1  0.03568985  0.08001164  0.93424525  1
  O2-  O195  1  0.03871888  0.57824881  0.26965462  1
  O2-  O196  1  0.05071018  0.57743819  0.60300539  1
  O2-  O197  1  0.03758123  0.58398719  0.92867520  1
  O2-  O198  1  0.54127201  0.07968506  0.26566593  1
  O2-  O199  1  0.53934530  0.08169531  0.59805617  1
  O2-  O200  1  0.54127948  0.08195508  0.93094260  1
  O2-  O201  1  0.55737961  0.58063148  0.27663664  1
  O2-  O202  1  0.54463623  0.58568656  0.60553065  1
  O2-  O203  1  0.55088404  0.58532691  0.93750432  1
  O2-  O204  1  0.16908852  0.20812920  0.26710588  1
  O2-  O205  1  0.17028472  0.20916152  0.60208705  1
  O2-  O206  1  0.16384685  0.20732866  0.92892035  1
  O2-  O207  1  0.16776129  0.70464260  0.26365777  1
  O2-  O208  1  0.17261161  0.71093080  0.60019900  1
  O2-  O209  1  0.16643977  0.70959855  0.93116417  1
  O2-  O210  1  0.67223052  0.20195678  0.26608852  1
  O2-  O211  1  0.66638997  0.21027034  0.59912584  1
  O2-  O212  1  0.67111126  0.20765741  0.93171143  1
  O2-  O213  1  0.66261832  0.70899707  0.26962892  1
  O2-  O214  1  0.66394362  0.70369246  0.60711785  1
  O2-  O215  1  0.66904217  0.70378742  0.93838915  1
  O2-  O216  1  0.08854026  0.45817139  0.06009739  1
  O2-  O217  1  0.07864594  0.44633822  0.40083095  1
  O2-  O218  1  0.08173069  0.44719687  0.73264273  1
  O2-  O219  1  0.07865547  0.95241577  0.06732285  1
  O2-  O220  1  0.07903014  0.95195450  0.39055755  1
  O2-  O221  1  0.08099147  0.96002489  0.73133081  1
  O2-  O222  1  0.58805653  0.45830370  0.06294232  1
  O2-  O223  1  0.58551192  0.44778816  0.39719069  1
  O2-  O224  1  0.59098026  0.45968818  0.73205602  1
  O2-  O225  1  0.57923549  0.95968576  0.06798843  1
  O2-  O226  1  0.58744166  0.95774200  0.39556076  1
  O2-  O227  1  0.58204687  0.96179457  0.73459212  1
  O2-  O228  1  0.20532594  0.33431034  0.05624999  1
  O2-  O229  1  0.21213772  0.33048676  0.40316527  1
  O2-  O230  1  0.20709721  0.33400741  0.73552507  1
  O2-  O231  1  0.21394064  0.83230525  0.06696204  1
  O2-  O232  1  0.20255469  0.83520946  0.39342157  1
  O2-  O233  1  0.21465828  0.83849930  0.73394712  1
  O2-  O234  1  0.70674408  0.33707548  0.06308647  1
  O2-  O235  1  0.70846351  0.33199406  0.39606735  1
  O2-  O236  1  0.70848704  0.33696525  0.72999553  1
  O2-  O237  1  0.70854757  0.83380756  0.07055884  1
  O2-  O238  1  0.70579539  0.83833113  0.39540606  1
  O2-  O239  1  0.70634054  0.83235839  0.73636768  1
  O2-  O240  1  0.45717872  0.42103762  0.26708225  1
  O2-  O241  1  0.46339063  0.41745578  0.60278142  1
  O2-  O242  1  0.45943953  0.42311766  0.92993459  1
  O2-  O243  1  0.46405229  0.91164550  0.26412603  1
  O2-  O244  1  0.45811068  0.91195953  0.60496584  1
  O2-  O245  1  0.45899858  0.91608722  0.92928924  1
  O2-  O246  1  0.94649142  0.41737854  0.27553846  1
  O2-  O247  1  0.95043764  0.41740923  0.60514878  1
  O2-  O248  1  0.95760501  0.41392893  0.93486432  1
  O2-  O249  1  0.94617875  0.92067675  0.26216148  1
  O2-  O250  1  0.95137143  0.91944511  0.60032982  1
  O2-  O251  1  0.94343141  0.91656453  0.94095501  1
  O2-  O252  1  0.33306310  0.29118497  0.26623332  1
  O2-  O253  1  0.33405472  0.30809532  0.60669534  1
  O2-  O254  1  0.33120281  0.29780694  0.92518624  1
  O2-  O255  1  0.33160316  0.79303019  0.26492919  1
  O2-  O256  1  0.33979679  0.79083481  0.60520692  1
  O2-  O257  1  0.33537344  0.78610225  0.92815547  1
  O2-  O258  1  0.83701819  0.29176824  0.26878643  1
  O2-  O259  1  0.83424915  0.29789206  0.60240822  1
  O2-  O260  1  0.83430104  0.30117349  0.93798498  1
  O2-  O261  1  0.82781418  0.78808940  0.26312283  1
  O2-  O262  1  0.82787361  0.78976067  0.60085748  1
  O2-  O263  1  0.83278619  0.78920546  0.93695602  1
  O2-  O264  1  0.41229909  0.04413021  0.05995822  1
  O2-  O265  1  0.41569453  0.03268724  0.40057838  1
  O2-  O266  1  0.41367823  0.04221899  0.73138155  1
  O2-  O267  1  0.41597558  0.54954073  0.05987257  1
  O2-  O268  1  0.42165361  0.54786226  0.39969442  1
  O2-  O269  1  0.41750601  0.53987081  0.73799306  1
  O2-  O270  1  0.91321422  0.04506571  0.06746362  1
  O2-  O271  1  0.91355221  0.04195287  0.39782495  1
  O2-  O272  1  0.91512303  0.04797766  0.72841484  1
  O2-  O273  1  0.91387413  0.53883954  0.06120715  1
  O2-  O274  1  0.91407132  0.54034707  0.40660251  1
  O2-  O275  1  0.91478418  0.54398444  0.73027941  1
  O2-  O276  1  0.29668854  0.16917823  0.05614765  1
  O2-  O277  1  0.29450528  0.16452475  0.40162530  1
  O2-  O278  1  0.30542563  0.17150509  0.72614066  1
  O2-  O279  1  0.28997595  0.66186941  0.05992731  1
  O2-  O280  1  0.29269599  0.67232105  0.39998745  1
  O2-  O281  1  0.29163834  0.66753128  0.73775039  1
  O2-  O282  1  0.80023124  0.16970484  0.06344852  1
  O2-  O283  1  0.79621240  0.16318057  0.39879652  1
  O2-  O284  1  0.79636961  0.16765720  0.72919459  1
  O2-  O285  1  0.79467040  0.65997479  0.06343680  1
  O2-  O286  1  0.78488402  0.66602270  0.40343766  1
  O2-  O287  1  0.79027733  0.66028842  0.73353867  1
