# generated using pymatgen
data_Ca2Al2SiO7
_symmetry_space_group_name_H-M   'P 1'
_cell_length_a   15.46292661
_cell_length_b   15.46257031
_cell_length_c   15.28567488
_cell_angle_alpha   89.99248510
_cell_angle_beta   89.99932995
_cell_angle_gamma   89.99248503
_symmetry_Int_Tables_number   1
_chemical_formula_structural   Ca2Al2SiO7
_chemical_formula_sum   'Ca48 Al48 Si24 O168'
_cell_volume   3654.75267730
_cell_formula_units_Z   24
loop_
 _symmetry_equiv_pos_site_id
 _symmetry_equiv_pos_as_xyz
  1  'x, y, z'
loop_
 _atom_type_symbol
 _atom_type_oxidation_number
  Ca2+  2.0
  Al0+  0.0
  Si0+  0.0
  O2-  -2.0
loop_
 _atom_site_type_symbol
 _atom_site_label
 _atom_site_symmetry_multiplicity
 _atom_site_fract_x
 _atom_site_fract_y
 _atom_site_fract_z
 _atom_site_occupancy
  Ca2+  Ca0  1  0.16284033  0.07937745  0.17486453  1
  Ca2+  Ca1  1  0.16589614  0.07500515  0.50863067  1
  Ca2+  Ca2  1  0.16573865  0.08463434  0.83179684  1
  Ca2+  Ca3  1  0.17133205  0.58340207  0.17281883  1
  Ca2+  Ca4  1  0.17597362  0.58775648  0.50902296  1
  Ca2+  Ca5  1  0.17050521  0.59117780  0.83273744  1
  Ca2+  Ca6  1  0.67268829  0.07753239  0.17176736  1
  Ca2+  Ca7  1  0.67156111  0.08775148  0.50665710  1
  Ca2+  Ca8  1  0.66307827  0.07810665  0.83534693  1
  Ca2+  Ca9  1  0.66906859  0.58038462  0.17533424  1
  Ca2+  Ca10  1  0.67641625  0.57262905  0.50692511  1
  Ca2+  Ca11  1  0.66972367  0.58238287  0.83328855  1
  Ca2+  Ca12  1  0.08443239  0.31954051  0.16069686  1
  Ca2+  Ca13  1  0.08283296  0.32203555  0.50021056  1
  Ca2+  Ca14  1  0.07969201  0.32208656  0.82308651  1
  Ca2+  Ca15  1  0.08282021  0.82852709  0.16430727  1
  Ca2+  Ca16  1  0.08621400  0.83331793  0.50249555  1
  Ca2+  Ca17  1  0.08114394  0.82499641  0.82219724  1
  Ca2+  Ca18  1  0.57880256  0.33836804  0.16412116  1
  Ca2+  Ca19  1  0.58534350  0.33763819  0.50387718  1
  Ca2+  Ca20  1  0.57522679  0.33025189  0.82211013  1
  Ca2+  Ca21  1  0.57921190  0.82835589  0.15973248  1
  Ca2+  Ca22  1  0.56607306  0.83419850  0.49590132  1
  Ca2+  Ca23  1  0.58314742  0.82899274  0.82668772  1
  Ca2+  Ca24  1  0.33451055  0.42287632  0.17189149  1
  Ca2+  Ca25  1  0.33652916  0.42833630  0.50893864  1
  Ca2+  Ca26  1  0.33963206  0.41695609  0.83220916  1
  Ca2+  Ca27  1  0.32499553  0.91562352  0.17580962  1
  Ca2+  Ca28  1  0.32434295  0.91573400  0.51057190  1
  Ca2+  Ca29  1  0.33248991  0.92010266  0.82676620  1
  Ca2+  Ca30  1  0.82490327  0.42509688  0.18011547  1
  Ca2+  Ca31  1  0.82773102  0.42074258  0.51133789  1
  Ca2+  Ca32  1  0.83356565  0.41506876  0.82880198  1
  Ca2+  Ca33  1  0.82628429  0.91936272  0.17101146  1
  Ca2+  Ca34  1  0.83773692  0.92203359  0.50515144  1
  Ca2+  Ca35  1  0.83040428  0.91306061  0.83562638  1
  Ca2+  Ca36  1  0.41720541  0.17678191  0.15966248  1
  Ca2+  Ca37  1  0.41930105  0.16659624  0.50366549  1
  Ca2+  Ca38  1  0.41921582  0.17605647  0.82060577  1
  Ca2+  Ca39  1  0.41921037  0.67025920  0.16522423  1
  Ca2+  Ca40  1  0.40496930  0.67513571  0.49712147  1
  Ca2+  Ca41  1  0.42248073  0.67059705  0.82485150  1
  Ca2+  Ca42  1  0.92482735  0.16001778  0.16771400  1
  Ca2+  Ca43  1  0.92356056  0.16755720  0.49635010  1
  Ca2+  Ca44  1  0.92763656  0.16982960  0.82266850  1
  Ca2+  Ca45  1  0.92096168  0.66432427  0.16080551  1
  Ca2+  Ca46  1  0.91534101  0.66646990  0.50192773  1
  Ca2+  Ca47  1  0.92643530  0.66948521  0.82099592  1
  Al0+  Al48  1  0.00045974  -0.00015203  -0.00238337  1
  Al0+  Al49  1  -0.00102100  -0.00211308  0.33527940  1
  Al0+  Al50  1  -0.00009486  -0.00275829  0.66645027  1
  Al0+  Al51  1  0.00179020  0.49918551  -0.00134309  1
  Al0+  Al52  1  0.00022465  0.49898641  0.33498106  1
  Al0+  Al53  1  0.00164429  0.49966570  0.66304094  1
  Al0+  Al54  1  0.49851207  0.00114765  0.00749862  1
  Al0+  Al55  1  0.49806811  0.00103915  0.32495178  1
  Al0+  Al56  1  0.49929503  -0.00011578  0.66298566  1
  Al0+  Al57  1  0.50040657  0.50279119  -0.00613885  1
  Al0+  Al58  1  0.49998649  0.50144931  0.34050463  1
  Al0+  Al59  1  0.50179330  0.49952821  0.67157879  1
  Al0+  Al60  1  0.24956409  0.25142905  -0.00617425  1
  Al0+  Al61  1  0.25077262  0.24923262  0.32742993  1
  Al0+  Al62  1  0.25245830  0.25090656  0.66111165  1
  Al0+  Al63  1  0.25057909  0.75135427  -0.00142774  1
  Al0+  Al64  1  0.24842605  0.75123585  0.33369804  1
  Al0+  Al65  1  0.25017178  0.75034687  0.67051284  1
  Al0+  Al66  1  0.74985547  0.25054327  0.00364449  1
  Al0+  Al67  1  0.74929066  0.24869494  0.33746878  1
  Al0+  Al68  1  0.75017442  0.24958972  0.66702710  1
  Al0+  Al69  1  0.74860182  0.75006841  0.00242362  1
  Al0+  Al70  1  0.74823272  0.75012614  0.33631414  1
  Al0+  Al71  1  0.75150729  0.74920647  0.66524533  1
  Al0+  Al72  1  0.92884457  0.32070222  0.65140082  1
  Al0+  Al73  1  0.42624075  0.82141208  0.31771903  1
  Al0+  Al74  1  0.32076596  0.57153790  0.68278037  1
  Al0+  Al75  1  0.67807063  0.92831648  0.01371835  1
  Al0+  Al76  1  0.17972028  0.93028958  0.34613232  1
  Al0+  Al77  1  0.07255870  0.17736521  0.65028694  1
  Al0+  Al78  1  0.92704951  0.82044321  0.65099884  1
  Al0+  Al79  1  0.43069282  0.32158861  0.98681194  1
  Al0+  Al80  1  0.82393032  0.57335207  0.34874350  1
  Al0+  Al81  1  0.07222282  0.67911450  0.65026729  1
  Al0+  Al82  1  0.43088201  0.81911523  0.65469644  1
  Al0+  Al83  1  0.81925366  0.06776156  0.34719477  1
  Al0+  Al84  1  0.57101437  0.17777084  0.65226749  1
  Al0+  Al85  1  0.68083980  0.42756535  0.68626830  1
  Al0+  Al86  1  0.82325751  0.57177597  0.68447050  1
  Al0+  Al87  1  0.67848036  0.42883747  0.34897712  1
  Al0+  Al88  1  0.17779623  0.92984382  0.68459182  1
  Al0+  Al89  1  0.57122722  0.68128937  0.98650098  1
  Al0+  Al90  1  0.42982516  0.32335696  0.64874094  1
  Al0+  Al91  1  0.07178677  0.67839564  0.98754374  1
  Al0+  Al92  1  0.32203400  0.07200114  0.68078897  1
  Al0+  Al93  1  0.31779206  0.56989037  0.34533152  1
  Al0+  Al94  1  0.06979811  0.17817647  0.31873786  1
  Al0+  Al95  1  0.06940625  0.17802468  0.98547538  1
  Si0+  Si96  1  0.82297742  0.07233054  0.01647596  1
  Si0+  Si97  1  0.57352662  0.67705291  0.64886147  1
  Si0+  Si98  1  0.82142382  0.07035891  0.68221633  1
  Si0+  Si99  1  0.43096113  0.32268608  0.31822016  1
  Si0+  Si100  1  0.42750724  0.82449230  0.98310188  1
  Si0+  Si101  1  0.32143707  0.57162377  0.01519977  1
  Si0+  Si102  1  0.67445152  0.92807383  0.35045245  1
  Si0+  Si103  1  0.92779623  0.82051026  0.98588433  1
  Si0+  Si104  1  0.67790972  0.42992268  0.01532889  1
  Si0+  Si105  1  0.57299804  0.17859897  0.31551320  1
  Si0+  Si106  1  0.31902570  0.07402548  0.01590862  1
  Si0+  Si107  1  0.17807538  0.42446475  0.34834879  1
  Si0+  Si108  1  0.92681018  0.32131311  0.31610222  1
  Si0+  Si109  1  0.82223860  0.56990763  0.01454992  1
  Si0+  Si110  1  0.67816069  0.92931633  0.67894801  1
  Si0+  Si111  1  0.17930951  0.42835806  0.01473185  1
  Si0+  Si112  1  0.32316249  0.07445859  0.34767715  1
  Si0+  Si113  1  0.17901930  0.42719345  0.68306500  1
  Si0+  Si114  1  0.17915402  0.92945559  0.01598965  1
  Si0+  Si115  1  0.57264525  0.17733683  0.98611212  1
  Si0+  Si116  1  0.57031503  0.67946735  0.31816832  1
  Si0+  Si117  1  0.92656582  0.32259491  0.98563422  1
  Si0+  Si118  1  0.07052163  0.67834089  0.31845973  1
  Si0+  Si119  1  0.92699744  0.82022282  0.31729773  1
  O2-  O120  1  0.24905509  0.00176312  0.05875559  1
  O2-  O121  1  0.25519694  0.00508579  0.39000912  1
  O2-  O122  1  0.24731535  0.00475742  0.73428451  1
  O2-  O123  1  0.24939572  0.50099290  0.05724155  1
  O2-  O124  1  0.24380577  0.49526576  0.39242704  1
  O2-  O125  1  0.24685093  0.49592902  0.72969612  1
  O2-  O126  1  0.75255618  0.00424790  0.05961812  1
  O2-  O127  1  0.74261764  -0.00399612  0.39548512  1
  O2-  O128  1  0.75020063  -0.00131021  0.72301866  1
  O2-  O129  1  0.75129733  0.49873220  0.05752676  1
  O2-  O130  1  0.75531663  0.49710944  0.39600992  1
  O2-  O131  1  0.75235498  0.50002452  0.73691337  1
  O2-  O132  1  -0.00308166  0.25462917  0.27004019  1
  O2-  O133  1  -0.00025604  0.24838345  0.60064361  1
  O2-  O134  1  -0.00804450  0.25076586  0.94213189  1
  O2-  O135  1  -0.00590471  0.74436710  0.27585483  1
  O2-  O136  1  -0.00146711  0.74888632  0.59978904  1
  O2-  O137  1  -0.00387418  0.75197556  0.94243512  1
  O2-  O138  1  0.50177177  0.25111299  0.27516170  1
  O2-  O139  1  0.50132843  0.25051504  0.59966163  1
  O2-  O140  1  0.50544413  0.24645435  0.94214647  1
  O2-  O141  1  0.50340644  0.74889408  0.27134317  1
  O2-  O142  1  0.50208493  0.74274104  0.60498401  1
  O2-  O143  1  0.49942798  0.75890372  0.94033051  1
  O2-  O144  1  0.06911259  0.17766132  0.09910974  1
  O2-  O145  1  0.06975664  0.17868949  0.43054677  1
  O2-  O146  1  0.06952148  0.17949247  0.76445653  1
  O2-  O147  1  0.07086708  0.67943092  0.10148137  1
  O2-  O148  1  0.07401972  0.68035855  0.42239227  1
  O2-  O149  1  0.07155240  0.68214825  0.76450492  1
  O2-  O150  1  0.57203520  0.17871543  0.09217032  1
  O2-  O151  1  0.57269944  0.17424779  0.41959336  1
  O2-  O152  1  0.56962893  0.17608215  0.76656329  1
  O2-  O153  1  0.56889421  0.67945315  0.10006599  1
  O2-  O154  1  0.56970381  0.68122339  0.42301833  1
  O2-  O155  1  0.57391522  0.68141414  0.75511430  1
  O2-  O156  1  0.18038585  0.42466693  0.24180045  1
  O2-  O157  1  0.18128084  0.42797943  0.57727649  1
  O2-  O158  1  0.17862288  0.42720865  0.91044779  1
  O2-  O159  1  0.17982366  0.93016809  0.23171204  1
  O2-  O160  1  0.18024450  0.92949331  0.57095201  1
  O2-  O161  1  0.17916293  0.92828103  0.91195790  1
  O2-  O162  1  0.67721278  0.43219183  0.23379134  1
  O2-  O163  1  0.68204792  0.42959547  0.57286832  1
  O2-  O164  1  0.67836019  0.42848685  0.91135133  1
  O2-  O165  1  0.67688723  0.92877739  0.24425780  1
  O2-  O166  1  0.67783508  0.93152563  0.57398257  1
  O2-  O167  1  0.67891455  0.92938008  0.90061695  1
  O2-  O168  1  0.43193426  0.32191446  0.10096957  1
  O2-  O169  1  0.42951677  0.32262378  0.42213631  1
  O2-  O170  1  0.43170435  0.32136043  0.76279916  1
  O2-  O171  1  0.42545570  0.82117153  0.08906235  1
  O2-  O172  1  0.42635681  0.82064506  0.43026328  1
  O2-  O173  1  0.43566793  0.81981667  0.76822250  1
  O2-  O174  1  0.92813606  0.32444178  0.09142158  1
  O2-  O175  1  0.92761005  0.31945362  0.42079226  1
  O2-  O176  1  0.93025866  0.31660320  0.76595177  1
  O2-  O177  1  0.92845015  0.82035360  0.09213961  1
  O2-  O178  1  0.92740224  0.82264096  0.42139714  1
  O2-  O179  1  0.92597265  0.81990728  0.76528094  1
  O2-  O180  1  0.32149318  0.07578922  0.24112986  1
  O2-  O181  1  0.32371134  0.06757434  0.56719232  1
  O2-  O182  1  0.32045040  0.07416030  0.91167719  1
  O2-  O183  1  0.31766540  0.56814164  0.23107645  1
  O2-  O184  1  0.31842734  0.57195502  0.56947752  1
  O2-  O185  1  0.32115435  0.57225766  0.91077653  1
  O2-  O186  1  0.81821536  0.06470135  0.23324684  1
  O2-  O187  1  0.82087398  0.06967591  0.57708954  1
  O2-  O188  1  0.82351323  0.07314334  0.91131105  1
  O2-  O189  1  0.82237139  0.57256582  0.23359163  1
  O2-  O190  1  0.81931224  0.57176854  0.57118966  1
  O2-  O191  1  0.82287426  0.57002212  0.91042362  1
  O2-  O192  1  0.03483783  0.08178690  0.26485486  1
  O2-  O193  1  0.04326936  0.07862525  0.60094644  1
  O2-  O194  1  0.04149293  0.08093844  0.93167111  1
  O2-  O195  1  0.04919708  0.58396435  0.27106023  1
  O2-  O196  1  0.05014821  0.57962265  0.59846542  1
  O2-  O197  1  0.04483391  0.58090556  0.93461167  1
  O2-  O198  1  0.54457362  0.08831501  0.26402222  1
  O2-  O199  1  0.54235737  0.08104075  0.59607355  1
  O2-  O200  1  0.54633053  0.08290461  0.94285962  1
  O2-  O201  1  0.54216322  0.58582340  0.27233379  1
  O2-  O202  1  0.55057475  0.58221179  0.60713908  1
  O2-  O203  1  0.53911656  0.58734559  0.92978000  1
  O2-  O204  1  0.16705136  0.20768764  0.26242303  1
  O2-  O205  1  0.17022709  0.20548532  0.59742942  1
  O2-  O206  1  0.16439048  0.21141335  0.93181857  1
  O2-  O207  1  0.15924596  0.71222615  0.26784628  1
  O2-  O208  1  0.16998209  0.71133240  0.59920623  1
  O2-  O209  1  0.16814702  0.71019351  0.93464224  1
  O2-  O210  1  0.66479912  0.20613472  0.26708231  1
  O2-  O211  1  0.66991190  0.20428813  0.60076538  1
  O2-  O212  1  0.66794247  0.19983159  0.94239230  1
  O2-  O213  1  0.66453785  0.70410222  0.27098068  1
  O2-  O214  1  0.66558849  0.70500811  0.60266734  1
  O2-  O215  1  0.66845890  0.71024302  0.93316964  1
  O2-  O216  1  0.08753498  0.45482319  0.06428745  1
  O2-  O217  1  0.08316963  0.44524455  0.39200525  1
  O2-  O218  1  0.08488992  0.45044329  0.72862565  1
  O2-  O219  1  0.08590657  0.95551262  0.06280562  1
  O2-  O220  1  0.08344277  0.95891829  0.39937670  1
  O2-  O221  1  0.07798033  0.95423371  0.73733117  1
  O2-  O222  1  0.58658298  0.46212505  0.06201556  1
  O2-  O223  1  0.58252925  0.45972326  0.40370523  1
  O2-  O224  1  0.58267072  0.45655895  0.73908389  1
  O2-  O225  1  0.58179571  0.95743670  0.07101996  1
  O2-  O226  1  0.57938196  0.95499292  0.39173382  1
  O2-  O227  1  0.58806073  0.95868420  0.72845254  1
  O2-  O228  1  0.20979266  0.33719790  0.06333812  1
  O2-  O229  1  0.20659241  0.33156547  0.39309233  1
  O2-  O230  1  0.20590369  0.33375652  0.72894777  1
  O2-  O231  1  0.20928928  0.83795003  0.06454581  1
  O2-  O232  1  0.21055920  0.83462155  0.39972958  1
  O2-  O233  1  0.21122965  0.83355654  0.73865297  1
  O2-  O234  1  0.70181505  0.33678672  0.06415592  1
  O2-  O235  1  0.70046670  0.32857494  0.39885659  1
  O2-  O236  1  0.70912553  0.32835254  0.73903097  1
  O2-  O237  1  0.70978106  0.83281411  0.07107800  1
  O2-  O238  1  0.69736034  0.83418842  0.39526494  1
  O2-  O239  1  0.70522643  0.83729922  0.72647466  1
  O2-  O240  1  0.46024528  0.41482910  0.27087845  1
  O2-  O241  1  0.46047288  0.42240069  0.59861157  1
  O2-  O242  1  0.46009705  0.41743944  0.93265010  1
  O2-  O243  1  0.45381534  0.91840226  0.26114262  1
  O2-  O244  1  0.46293285  0.91338042  0.59821714  1
  O2-  O245  1  0.44994269  0.92067148  0.94211069  1
  O2-  O246  1  0.95045248  0.41641396  0.27049583  1
  O2-  O247  1  0.95585632  0.41853785  0.59844254  1
  O2-  O248  1  0.95498396  0.41438332  0.93838105  1
  O2-  O249  1  0.95971649  0.90929976  0.26709856  1
  O2-  O250  1  0.95501766  0.91856418  0.59839410  1
  O2-  O251  1  0.95188157  0.91427228  0.94028767  1
  O2-  O252  1  0.33978659  0.29513568  0.26765379  1
  O2-  O253  1  0.33177940  0.29848568  0.59496564  1
  O2-  O254  1  0.33466914  0.29231075  0.93267990  1
  O2-  O255  1  0.33105707  0.78668936  0.26198471  1
  O2-  O256  1  0.33404810  0.78887732  0.60275247  1
  O2-  O257  1  0.33549467  0.79591410  0.93673455  1
  O2-  O258  1  0.83311098  0.29377532  0.26992917  1
  O2-  O259  1  0.83082922  0.29189115  0.59993433  1
  O2-  O260  1  0.83124520  0.30008718  0.94170592  1
  O2-  O261  1  0.83295113  0.79675199  0.27046275  1
  O2-  O262  1  0.82859583  0.79477681  0.59624137  1
  O2-  O263  1  0.83380911  0.79641985  0.94130551  1
  O2-  O264  1  0.41098181  0.04936147  0.06597137  1
  O2-  O265  1  0.41832782  0.05040319  0.38979436  1
  O2-  O266  1  0.41930583  0.03841012  0.73492683  1
  O2-  O267  1  0.41326835  0.54196545  0.06218405  1
  O2-  O268  1  0.41359548  0.54213410  0.40026616  1
  O2-  O269  1  0.41795889  0.54280924  0.73651021  1
  O2-  O270  1  0.91590198  0.04334399  0.06347515  1
  O2-  O271  1  0.91391946  0.03437524  0.40126532  1
  O2-  O272  1  0.91203238  0.04125490  0.73085254  1
  O2-  O273  1  0.91448002  0.54206945  0.06269443  1
  O2-  O274  1  0.92452699  0.55068888  0.39856699  1
  O2-  O275  1  0.92352924  0.54411174  0.73423763  1
  O2-  O276  1  0.28958531  0.16597160  0.06328218  1
  O2-  O277  1  0.29871296  0.16849895  0.39212038  1
  O2-  O278  1  0.29791353  0.17286518  0.73097184  1
  O2-  O279  1  0.29370169  0.66409247  0.06260953  1
  O2-  O280  1  0.28530022  0.66565196  0.39795928  1
  O2-  O281  1  0.28948031  0.66653435  0.73927499  1
  O2-  O282  1  0.79863255  0.16600007  0.06478968  1
  O2-  O283  1  0.79156493  0.16465691  0.40024941  1
  O2-  O284  1  0.79366982  0.16087213  0.73125800  1
  O2-  O285  1  0.79462240  0.66174390  0.06257215  1
  O2-  O286  1  0.79368992  0.67108946  0.40080988  1
  O2-  O287  1  0.79321728  0.67102926  0.73647472  1
