# generated using pymatgen
data_Ca2Al2SiO7
_symmetry_space_group_name_H-M   'P 1'
_cell_length_a   15.45172812
_cell_length_b   15.45197435
_cell_length_c   15.27944572
_cell_angle_alpha   89.99631177
_cell_angle_beta   90.00636419
_cell_angle_gamma   90.00910900
_symmetry_Int_Tables_number   1
_chemical_formula_structural   Ca2Al2SiO7
_chemical_formula_sum   'Ca48 Al48 Si24 O168'
_cell_volume   3648.11590114
_cell_formula_units_Z   24
loop_
 _symmetry_equiv_pos_site_id
 _symmetry_equiv_pos_as_xyz
  1  'x, y, z'
loop_
 _atom_type_symbol
 _atom_type_oxidation_number
  Ca2+  2.0
  Al0+  0.0
  Si0+  0.0
  O2-  -2.0
loop_
 _atom_site_type_symbol
 _atom_site_label
 _atom_site_symmetry_multiplicity
 _atom_site_fract_x
 _atom_site_fract_y
 _atom_site_fract_z
 _atom_site_occupancy
  Ca2+  Ca0  1  0.18103499  0.09078439  0.17296245  1
  Ca2+  Ca1  1  0.17090172  0.08520143  0.50704725  1
  Ca2+  Ca2  1  0.17192932  0.08271933  0.83417418  1
  Ca2+  Ca3  1  0.16879586  0.57380666  0.16898257  1
  Ca2+  Ca4  1  0.16351889  0.58284715  0.50728430  1
  Ca2+  Ca5  1  0.17488760  0.58147809  0.83973527  1
  Ca2+  Ca6  1  0.66555788  0.07600283  0.16631515  1
  Ca2+  Ca7  1  0.66756276  0.07354311  0.50168804  1
  Ca2+  Ca8  1  0.67222829  0.08137807  0.84670501  1
  Ca2+  Ca9  1  0.66044411  0.56877908  0.16960765  1
  Ca2+  Ca10  1  0.67283762  0.58041094  0.50796250  1
  Ca2+  Ca11  1  0.67077071  0.58181155  0.83493091  1
  Ca2+  Ca12  1  0.09160588  0.33163989  0.16469374  1
  Ca2+  Ca13  1  0.08281382  0.32773756  0.49553126  1
  Ca2+  Ca14  1  0.08000511  0.32968856  0.82577290  1
  Ca2+  Ca15  1  0.08055805  0.82872758  0.16583452  1
  Ca2+  Ca16  1  0.08478959  0.82338820  0.49349407  1
  Ca2+  Ca17  1  0.08471585  0.82892084  0.82425838  1
  Ca2+  Ca18  1  0.57788015  0.33052641  0.15321841  1
  Ca2+  Ca19  1  0.58038267  0.33297014  0.49483252  1
  Ca2+  Ca20  1  0.58076930  0.33304235  0.83581372  1
  Ca2+  Ca21  1  0.58085760  0.83737773  0.15828455  1
  Ca2+  Ca22  1  0.58639789  0.82670078  0.49651936  1
  Ca2+  Ca23  1  0.57627868  0.83356965  0.83215276  1
  Ca2+  Ca24  1  0.32656281  0.41533967  0.16660855  1
  Ca2+  Ca25  1  0.32319799  0.42241002  0.50370573  1
  Ca2+  Ca26  1  0.33168445  0.42727594  0.84286039  1
  Ca2+  Ca27  1  0.34280315  0.92936065  0.16798109  1
  Ca2+  Ca28  1  0.32447021  0.92931936  0.50828064  1
  Ca2+  Ca29  1  0.33019324  0.92305011  0.83655501  1
  Ca2+  Ca30  1  0.81792700  0.41153620  0.17000873  1
  Ca2+  Ca31  1  0.83079443  0.41819187  0.50506089  1
  Ca2+  Ca32  1  0.83294251  0.41996052  0.83646382  1
  Ca2+  Ca33  1  0.82455359  0.91699024  0.16955411  1
  Ca2+  Ca34  1  0.83305861  0.90866601  0.49873346  1
  Ca2+  Ca35  1  0.82654870  0.92465209  0.84339071  1
  Ca2+  Ca36  1  0.42003662  0.16915058  0.15485464  1
  Ca2+  Ca37  1  0.41052069  0.16418644  0.49654445  1
  Ca2+  Ca38  1  0.41510942  0.16619171  0.83636667  1
  Ca2+  Ca39  1  0.41490039  0.67439074  0.15609213  1
  Ca2+  Ca40  1  0.41950486  0.66358871  0.50159945  1
  Ca2+  Ca41  1  0.41657920  0.66693991  0.82820757  1
  Ca2+  Ca42  1  0.92280612  0.16209970  0.16268553  1
  Ca2+  Ca43  1  0.93082155  0.16922740  0.49734088  1
  Ca2+  Ca44  1  0.91987402  0.17276030  0.82440581  1
  Ca2+  Ca45  1  0.91957097  0.66844615  0.16979696  1
  Ca2+  Ca46  1  0.92656340  0.66721916  0.49459122  1
  Ca2+  Ca47  1  0.92293900  0.66523714  0.82254793  1
  Al0+  Al48  1  -0.00005055  -0.00113602  0.00171172  1
  Al0+  Al49  1  0.00069581  0.00012240  0.32329646  1
  Al0+  Al50  1  -0.00168674  0.00078469  0.66645714  1
  Al0+  Al51  1  0.00116284  0.49961127  0.00372380  1
  Al0+  Al52  1  -0.00082541  0.49870411  0.33131536  1
  Al0+  Al53  1  -0.00349324  0.50050848  0.66263615  1
  Al0+  Al54  1  0.49987456  -0.00121289  -0.00341141  1
  Al0+  Al55  1  0.50193909  0.00036549  0.34421451  1
  Al0+  Al56  1  0.49905610  0.00054364  0.66878989  1
  Al0+  Al57  1  0.50048507  0.50149671  0.00304329  1
  Al0+  Al58  1  0.49961021  0.49932556  0.33746405  1
  Al0+  Al59  1  0.49921582  0.49916358  0.66471676  1
  Al0+  Al60  1  0.25039757  0.24978827  0.00050157  1
  Al0+  Al61  1  0.25095788  0.25357799  0.33849162  1
  Al0+  Al62  1  0.25147449  0.25054307  0.66730481  1
  Al0+  Al63  1  0.24998534  0.75006599  -0.00109323  1
  Al0+  Al64  1  0.25230345  0.75123391  0.32704740  1
  Al0+  Al65  1  0.25030832  0.75194835  0.66821063  1
  Al0+  Al66  1  0.75256867  0.25038428  0.00399937  1
  Al0+  Al67  1  0.74988912  0.24766772  0.33963723  1
  Al0+  Al68  1  0.74711866  0.24888209  0.66048594  1
  Al0+  Al69  1  0.75169995  0.75050464  0.00250237  1
  Al0+  Al70  1  0.74923469  0.74901806  0.33149529  1
  Al0+  Al71  1  0.74813105  0.74739079  0.66845396  1
  Al0+  Al72  1  0.42769068  0.32243535  0.98445865  1
  Al0+  Al73  1  0.07223569  0.68094881  0.65525308  1
  Al0+  Al74  1  0.57009829  0.67905599  0.65311174  1
  Al0+  Al75  1  0.17886287  0.43182173  0.34896764  1
  Al0+  Al76  1  0.67726311  0.42683400  0.34889726  1
  Al0+  Al77  1  0.32222859  0.57303217  0.01552483  1
  Al0+  Al78  1  0.92623409  0.32197147  0.65078698  1
  Al0+  Al79  1  0.42867008  0.82094446  0.98551498  1
  Al0+  Al80  1  0.07197749  0.17912963  0.65239328  1
  Al0+  Al81  1  0.17621361  0.92957325  0.68031934  1
  Al0+  Al82  1  0.32115630  0.57036897  0.67917125  1
  Al0+  Al83  1  0.82051767  0.56985796  0.67924156  1
  Al0+  Al84  1  0.68075009  0.43081799  0.01104227  1
  Al0+  Al85  1  0.67896798  0.92898160  0.01355548  1
  Al0+  Al86  1  0.82333789  0.07286452  0.01499289  1
  Al0+  Al87  1  0.32023084  0.07106381  0.34696816  1
  Al0+  Al88  1  0.68071449  0.92867820  0.34884351  1
  Al0+  Al89  1  0.92754387  0.82051534  0.31621379  1
  Al0+  Al90  1  0.07279441  0.18178587  0.31784762  1
  Al0+  Al91  1  0.07389112  0.67631323  0.31553938  1
  Al0+  Al92  1  0.57240561  0.17951188  0.98604325  1
  Al0+  Al93  1  0.17853973  0.42862827  0.01374822  1
  Al0+  Al94  1  0.32165257  0.07328431  0.68504114  1
  Al0+  Al95  1  0.31880800  0.06855563  0.01301164  1
  Si0+  Si96  1  0.32175927  0.57536850  0.35038203  1
  Si0+  Si97  1  0.81974544  0.57066883  0.34930333  1
  Si0+  Si98  1  0.92939448  0.32181203  0.98673844  1
  Si0+  Si99  1  0.92857922  0.82078913  0.98311205  1
  Si0+  Si100  1  0.92567522  0.32068773  0.31481935  1
  Si0+  Si101  1  0.06915802  0.67848916  0.98393221  1
  Si0+  Si102  1  0.57091683  0.17758559  0.32036696  1
  Si0+  Si103  1  0.67934943  0.92748649  0.68211075  1
  Si0+  Si104  1  0.67734083  0.42604939  0.68328432  1
  Si0+  Si105  1  0.57392259  0.67733612  0.98384671  1
  Si0+  Si106  1  0.82431259  0.57317258  0.01801310  1
  Si0+  Si107  1  0.42861236  0.82363549  0.64766056  1
  Si0+  Si108  1  0.43100912  0.32099611  0.31929616  1
  Si0+  Si109  1  0.17655489  0.42906141  0.68200035  1
  Si0+  Si110  1  0.81883587  0.07157071  0.67937362  1
  Si0+  Si111  1  0.07171421  0.17845358  0.98532719  1
  Si0+  Si112  1  0.17723520  0.92723672  0.34665258  1
  Si0+  Si113  1  0.57047245  0.17703795  0.64952225  1
  Si0+  Si114  1  0.82534890  0.07090571  0.35237915  1
  Si0+  Si115  1  0.92604812  0.82231030  0.65258860  1
  Si0+  Si116  1  0.17658780  0.92631039  0.01830262  1
  Si0+  Si117  1  0.43231425  0.82280404  0.32042300  1
  Si0+  Si118  1  0.43014366  0.32135600  0.65041641  1
  Si0+  Si119  1  0.57002223  0.67759369  0.31811459  1
  O2-  O120  1  0.24482913  -0.00507800  0.06280980  1
  O2-  O121  1  0.24255823  -0.00149950  0.39158137  1
  O2-  O122  1  0.24726614  0.00197685  0.73167385  1
  O2-  O123  1  0.25248203  0.49866858  0.06428846  1
  O2-  O124  1  0.24787730  0.51248502  0.39465062  1
  O2-  O125  1  0.24313638  0.49946204  0.72600386  1
  O2-  O126  1  0.74977586  0.00186714  0.06389644  1
  O2-  O127  1  0.75869213  -0.00033397  0.39666549  1
  O2-  O128  1  0.74974091  -0.00053986  0.72275204  1
  O2-  O129  1  0.75298924  0.50674751  0.06071837  1
  O2-  O130  1  0.75306013  0.50037130  0.39444892  1
  O2-  O131  1  0.74807293  0.49300924  0.72629958  1
  O2-  O132  1  -0.00402022  0.25426695  0.26953636  1
  O2-  O133  1  0.00183960  0.25304912  0.60194595  1
  O2-  O134  1  -0.00014141  0.24987494  0.94479763  1
  O2-  O135  1  0.00200864  0.75002115  0.26676503  1
  O2-  O136  1  -0.00169170  0.75714458  0.60914638  1
  O2-  O137  1  -0.00125130  0.74971740  0.94035171  1
  O2-  O138  1  0.50323154  0.25094823  0.27766167  1
  O2-  O139  1  0.49824821  0.24703785  0.60769125  1
  O2-  O140  1  0.50079816  0.25115763  0.93410053  1
  O2-  O141  1  0.49944406  0.74879112  0.27654606  1
  O2-  O142  1  0.49647485  0.75359799  0.60359351  1
  O2-  O143  1  0.50373574  0.74509332  0.94048111  1
  O2-  O144  1  0.07209918  0.17939175  0.09059281  1
  O2-  O145  1  0.07222558  0.18303656  0.43080952  1
  O2-  O146  1  0.06811598  0.17988865  0.76647209  1
  O2-  O147  1  0.06723090  0.67910021  0.08872502  1
  O2-  O148  1  0.07338639  0.67797417  0.42940936  1
  O2-  O149  1  0.06924615  0.68069297  0.76873031  1
  O2-  O150  1  0.57074414  0.18014292  0.10025379  1
  O2-  O151  1  0.56874757  0.17774172  0.42599872  1
  O2-  O152  1  0.57526760  0.17730017  0.75385294  1
  O2-  O153  1  0.57426087  0.67746292  0.08981512  1
  O2-  O154  1  0.56975037  0.67745046  0.42344383  1
  O2-  O155  1  0.57118425  0.68077709  0.76589419  1
  O2-  O156  1  0.18432020  0.42897922  0.23632039  1
  O2-  O157  1  0.17951157  0.42935177  0.57608925  1
  O2-  O158  1  0.17370083  0.43247448  0.90014590  1
  O2-  O159  1  0.18110966  0.92646437  0.24114014  1
  O2-  O160  1  0.17842312  0.92851272  0.56636551  1
  O2-  O161  1  0.17472949  0.92730975  0.91266284  1
  O2-  O162  1  0.67539889  0.42765474  0.23583723  1
  O2-  O163  1  0.67704590  0.42743713  0.57739434  1
  O2-  O164  1  0.68381208  0.43151959  0.89789693  1
  O2-  O165  1  0.67698358  0.93163765  0.23641048  1
  O2-  O166  1  0.68014326  0.92747275  0.57669999  1
  O2-  O167  1  0.68296467  0.92800895  0.89947182  1
  O2-  O168  1  0.42899707  0.32000077  0.09867411  1
  O2-  O169  1  0.43245323  0.32111317  0.42490191  1
  O2-  O170  1  0.43257188  0.32401039  0.75487935  1
  O2-  O171  1  0.43156507  0.82109747  0.09946684  1
  O2-  O172  1  0.43381145  0.82177608  0.42541765  1
  O2-  O173  1  0.43118593  0.82466979  0.75320545  1
  O2-  O174  1  0.92882534  0.32256760  0.09173725  1
  O2-  O175  1  0.92533455  0.31877109  0.42038137  1
  O2-  O176  1  0.92437350  0.31940114  0.76500173  1
  O2-  O177  1  0.92841704  0.81993802  0.08778202  1
  O2-  O178  1  0.92749961  0.81719159  0.43030514  1
  O2-  O179  1  0.92432364  0.82062368  0.75841145  1
  O2-  O180  1  0.32410713  0.07035893  0.23395742  1
  O2-  O181  1  0.32234008  0.07065967  0.57103304  1
  O2-  O182  1  0.31572786  0.06826510  0.90048978  1
  O2-  O183  1  0.32542177  0.57348463  0.24524778  1
  O2-  O184  1  0.32222628  0.56665581  0.56583185  1
  O2-  O185  1  0.31917739  0.57320694  0.90169659  1
  O2-  O186  1  0.82208612  0.07338022  0.24716677  1
  O2-  O187  1  0.81710823  0.07040953  0.57425577  1
  O2-  O188  1  0.82437808  0.07065900  0.90057542  1
  O2-  O189  1  0.81620381  0.57001648  0.24350854  1
  O2-  O190  1  0.81787702  0.57179618  0.56630557  1
  O2-  O191  1  0.82611499  0.57249440  0.91225381  1
  O2-  O192  1  0.04654663  0.08473804  0.26240484  1
  O2-  O193  1  0.04038957  0.08138427  0.59866119  1
  O2-  O194  1  0.04402865  0.08570795  0.93923356  1
  O2-  O195  1  0.04200643  0.57851379  0.26257868  1
  O2-  O196  1  0.03964144  0.58547162  0.60039001  1
  O2-  O197  1  0.04036514  0.58630023  0.93743427  1
  O2-  O198  1  0.54025158  0.08578024  0.27530394  1
  O2-  O199  1  0.54300129  0.08462142  0.60196163  1
  O2-  O200  1  0.54465649  0.08170463  0.93203333  1
  O2-  O201  1  0.54096979  0.58521165  0.27176828  1
  O2-  O202  1  0.53942769  0.58255295  0.59784901  1
  O2-  O203  1  0.54981506  0.58394131  0.93746851  1
  O2-  O204  1  0.16957616  0.21727993  0.26619624  1
  O2-  O205  1  0.17166636  0.20580035  0.60084670  1
  O2-  O206  1  0.16220981  0.20684123  0.93696811  1
  O2-  O207  1  0.17268043  0.70430138  0.26198072  1
  O2-  O208  1  0.16888631  0.70961982  0.59988792  1
  O2-  O209  1  0.16134200  0.70600286  0.93758234  1
  O2-  O210  1  0.66523710  0.20107917  0.27642974  1
  O2-  O211  1  0.66034231  0.20496269  0.59748151  1
  O2-  O212  1  0.67222728  0.20848704  0.93479841  1
  O2-  O213  1  0.66139297  0.70366171  0.27030313  1
  O2-  O214  1  0.66611168  0.71118968  0.59766140  1
  O2-  O215  1  0.66846232  0.70356394  0.93876874  1
  O2-  O216  1  0.08178936  0.45873201  0.07021291  1
  O2-  O217  1  0.07876069  0.45467690  0.39981933  1
  O2-  O218  1  0.08094222  0.45092956  0.72439641  1
  O2-  O219  1  0.08272905  0.95058805  0.06400083  1
  O2-  O220  1  0.08124418  0.94870813  0.38870922  1
  O2-  O221  1  0.07655200  0.95482124  0.73407706  1
  O2-  O222  1  0.58495216  0.45981984  0.06765833  1
  O2-  O223  1  0.58175777  0.45949936  0.40445224  1
  O2-  O224  1  0.58475112  0.45468428  0.72835619  1
  O2-  O225  1  0.58058260  0.95648365  0.06561722  1
  O2-  O226  1  0.58819130  0.96327321  0.40893495  1
  O2-  O227  1  0.58730081  0.95583090  0.72756843  1
  O2-  O228  1  0.20637819  0.33047455  0.06698026  1
  O2-  O229  1  0.21668358  0.33916325  0.40610548  1
  O2-  O230  1  0.20402356  0.33616804  0.72761323  1
  O2-  O231  1  0.20163525  0.83251041  0.06301756  1
  O2-  O232  1  0.20642083  0.83406434  0.39258278  1
  O2-  O233  1  0.20641626  0.83245722  0.73518603  1
  O2-  O234  1  0.71285174  0.33617863  0.06783270  1
  O2-  O235  1  0.70593882  0.33000641  0.40399590  1
  O2-  O236  1  0.70061363  0.33072731  0.72656453  1
  O2-  O237  1  0.70826445  0.83098286  0.06776924  1
  O2-  O238  1  0.70883979  0.83013202  0.40120475  1
  O2-  O239  1  0.70640453  0.83646984  0.73012475  1
  O2-  O240  1  0.45816982  0.41364949  0.27274762  1
  O2-  O241  1  0.46104178  0.41053903  0.59905057  1
  O2-  O242  1  0.45728059  0.42196347  0.93379586  1
  O2-  O243  1  0.46578794  0.91412665  0.27513816  1
  O2-  O244  1  0.45725385  0.91677629  0.60151498  1
  O2-  O245  1  0.46126339  0.91493325  0.92810261  1
  O2-  O246  1  0.94638261  0.41559845  0.27019981  1
  O2-  O247  1  0.95057918  0.42046020  0.59665351  1
  O2-  O248  1  0.95774334  0.41397099  0.93902642  1
  O2-  O249  1  0.95131093  0.91913646  0.26142185  1
  O2-  O250  1  0.94570368  0.91717341  0.60682828  1
  O2-  O251  1  0.95647606  0.91308458  0.93590003  1
  O2-  O252  1  0.33964293  0.29237427  0.27330605  1
  O2-  O253  1  0.33753469  0.29591884  0.60295291  1
  O2-  O254  1  0.32963951  0.29319570  0.93114120  1
  O2-  O255  1  0.34014803  0.80116852  0.27085909  1
  O2-  O256  1  0.33497206  0.79858471  0.60239253  1
  O2-  O257  1  0.33137577  0.79186071  0.93127160  1
  O2-  O258  1  0.83130293  0.29159814  0.27077623  1
  O2-  O259  1  0.82875390  0.29109281  0.59597673  1
  O2-  O260  1  0.83832393  0.29491043  0.93797806  1
  O2-  O261  1  0.82974379  0.78825828  0.26224687  1
  O2-  O262  1  0.83382109  0.79244075  0.60598951  1
  O2-  O263  1  0.83616194  0.79400336  0.93562767  1
  O2-  O264  1  0.41608011  0.03758078  0.06516899  1
  O2-  O265  1  0.41433575  0.03840190  0.40481844  1
  O2-  O266  1  0.42054250  0.04314322  0.73639504  1
  O2-  O267  1  0.42152651  0.54991884  0.06841525  1
  O2-  O268  1  0.41318479  0.54349041  0.39828765  1
  O2-  O269  1  0.41683030  0.53609367  0.73314247  1
  O2-  O270  1  0.92043444  0.04121857  0.06886588  1
  O2-  O271  1  0.92056071  0.04584860  0.39505815  1
  O2-  O272  1  0.91078670  0.04741683  0.72746158  1
  O2-  O273  1  0.91587065  0.54486668  0.06588250  1
  O2-  O274  1  0.91449550  0.54702572  0.39338388  1
  O2-  O275  1  0.91686303  0.54056168  0.73490223  1
  O2-  O276  1  0.28916648  0.16531117  0.06705819  1
  O2-  O277  1  0.29113181  0.16759139  0.40133590  1
  O2-  O278  1  0.29652783  0.17310783  0.73603511  1
  O2-  O279  1  0.29091452  0.67068390  0.06835996  1
  O2-  O280  1  0.30323275  0.67189753  0.39367425  1
  O2-  O281  1  0.29638048  0.66891643  0.73093503  1
  O2-  O282  1  0.79907450  0.17067769  0.06995870  1
  O2-  O283  1  0.79685904  0.16259143  0.40108438  1
  O2-  O284  1  0.78797516  0.16297690  0.72591046  1
  O2-  O285  1  0.80135722  0.66737046  0.06366308  1
  O2-  O286  1  0.79181794  0.66320545  0.39543825  1
  O2-  O287  1  0.78731525  0.66479993  0.73628208  1
