# generated using pymatgen
data_Ca2Al2SiO7
_symmetry_space_group_name_H-M   'P 1'
_cell_length_a   15.46562140
_cell_length_b   15.46303961
_cell_length_c   15.28767292
_cell_angle_alpha   90.00712954
_cell_angle_beta   90.00621838
_cell_angle_gamma   89.98472392
_symmetry_Int_Tables_number   1
_chemical_formula_structural   Ca2Al2SiO7
_chemical_formula_sum   'Ca48 Al48 Si24 O168'
_cell_volume   3655.97825123
_cell_formula_units_Z   24
loop_
 _symmetry_equiv_pos_site_id
 _symmetry_equiv_pos_as_xyz
  1  'x, y, z'
loop_
 _atom_type_symbol
 _atom_type_oxidation_number
  Ca2+  2.0
  Al0+  0.0
  Si0+  0.0
  O2-  -2.0
loop_
 _atom_site_type_symbol
 _atom_site_label
 _atom_site_symmetry_multiplicity
 _atom_site_fract_x
 _atom_site_fract_y
 _atom_site_fract_z
 _atom_site_occupancy
  Ca2+  Ca0  1  0.15960586  0.07718655  0.17221723  1
  Ca2+  Ca1  1  0.15982494  0.07972254  0.49887666  1
  Ca2+  Ca2  1  0.16802385  0.08099222  0.84268406  1
  Ca2+  Ca3  1  0.16187825  0.56978978  0.17435917  1
  Ca2+  Ca4  1  0.15339508  0.57999989  0.49981667  1
  Ca2+  Ca5  1  0.15998674  0.57835337  0.83928845  1
  Ca2+  Ca6  1  0.67151637  0.08284737  0.16991859  1
  Ca2+  Ca7  1  0.67814787  0.08436530  0.50039712  1
  Ca2+  Ca8  1  0.66756807  0.07685012  0.84431763  1
  Ca2+  Ca9  1  0.67156504  0.57974916  0.17429660  1
  Ca2+  Ca10  1  0.66825791  0.58224998  0.50182063  1
  Ca2+  Ca11  1  0.68348652  0.58355789  0.83929074  1
  Ca2+  Ca12  1  0.08628464  0.32455898  0.15848501  1
  Ca2+  Ca13  1  0.07998264  0.32419427  0.49442762  1
  Ca2+  Ca14  1  0.07889828  0.32785588  0.83216357  1
  Ca2+  Ca15  1  0.08294069  0.83509367  0.16851125  1
  Ca2+  Ca16  1  0.07800164  0.82245020  0.48912991  1
  Ca2+  Ca17  1  0.07934700  0.82794899  0.82417978  1
  Ca2+  Ca18  1  0.57899451  0.33235289  0.16522434  1
  Ca2+  Ca19  1  0.57806111  0.33830763  0.48852131  1
  Ca2+  Ca20  1  0.58377241  0.32510737  0.83419003  1
  Ca2+  Ca21  1  0.58191570  0.83478255  0.16476928  1
  Ca2+  Ca22  1  0.57141971  0.82776079  0.49159540  1
  Ca2+  Ca23  1  0.57792177  0.83767580  0.82881086  1
  Ca2+  Ca24  1  0.32275260  0.41069500  0.17423076  1
  Ca2+  Ca25  1  0.32777455  0.41470454  0.49723221  1
  Ca2+  Ca26  1  0.32355177  0.42184631  0.84097375  1
  Ca2+  Ca27  1  0.32283370  0.92246153  0.17020142  1
  Ca2+  Ca28  1  0.32856381  0.90679487  0.49983665  1
  Ca2+  Ca29  1  0.32558612  0.92033723  0.84362363  1
  Ca2+  Ca30  1  0.83379143  0.42016846  0.17070489  1
  Ca2+  Ca31  1  0.83019916  0.42086049  0.50652010  1
  Ca2+  Ca32  1  0.84988660  0.42587314  0.83647423  1
  Ca2+  Ca33  1  0.83196712  0.92256543  0.17531191  1
  Ca2+  Ca34  1  0.84476691  0.91828330  0.49900868  1
  Ca2+  Ca35  1  0.82870214  0.91469863  0.83939016  1
  Ca2+  Ca36  1  0.41807636  0.16808255  0.16094723  1
  Ca2+  Ca37  1  0.41947245  0.17433719  0.49300349  1
  Ca2+  Ca38  1  0.42084801  0.15675704  0.83700587  1
  Ca2+  Ca39  1  0.42110656  0.66991172  0.17029385  1
  Ca2+  Ca40  1  0.42045391  0.67587996  0.48863042  1
  Ca2+  Ca41  1  0.41845332  0.67604169  0.82629363  1
  Ca2+  Ca42  1  0.92486763  0.17074332  0.16214162  1
  Ca2+  Ca43  1  0.92604003  0.16588640  0.49360125  1
  Ca2+  Ca44  1  0.92879326  0.17670535  0.82787977  1
  Ca2+  Ca45  1  0.91821538  0.66789233  0.16613165  1
  Ca2+  Ca46  1  0.92015045  0.67468588  0.49824971  1
  Ca2+  Ca47  1  0.91841478  0.66858042  0.82472506  1
  Al0+  Al48  1  -0.00167201  -0.00037743  -0.00183845  1
  Al0+  Al49  1  0.00081806  0.00005597  0.33478271  1
  Al0+  Al50  1  0.00006938  0.00078967  0.66518145  1
  Al0+  Al51  1  0.00120589  0.50191645  0.00693140  1
  Al0+  Al52  1  -0.00162536  0.50020648  0.33708569  1
  Al0+  Al53  1  -0.00156239  0.49785395  0.66433079  1
  Al0+  Al54  1  0.49912322  -0.00027105  0.00433286  1
  Al0+  Al55  1  0.50063504  0.00089687  0.33169122  1
  Al0+  Al56  1  0.49951591  0.00044276  0.66115580  1
  Al0+  Al57  1  0.50236472  0.50213781  -0.00398058  1
  Al0+  Al58  1  0.49923456  0.49954757  0.32855234  1
  Al0+  Al59  1  0.49913048  0.49828612  0.67135023  1
  Al0+  Al60  1  0.25202987  0.25111358  0.00075352  1
  Al0+  Al61  1  0.25021227  0.24968316  0.33180624  1
  Al0+  Al62  1  0.25244400  0.24878032  0.66607728  1
  Al0+  Al63  1  0.25094950  0.75057160  0.00319284  1
  Al0+  Al64  1  0.25072190  0.74946848  0.32750032  1
  Al0+  Al65  1  0.25040955  0.74883948  0.66124072  1
  Al0+  Al66  1  0.74820718  0.25228792  -0.00996249  1
  Al0+  Al67  1  0.75065250  0.25034999  0.34334292  1
  Al0+  Al68  1  0.74923930  0.24844070  0.66655824  1
  Al0+  Al69  1  0.74997589  0.74889360  0.00807217  1
  Al0+  Al70  1  0.74917249  0.75088776  0.32828957  1
  Al0+  Al71  1  0.74873862  0.74865778  0.66757972  1
  Al0+  Al72  1  0.92987126  0.82189474  0.31636658  1
  Al0+  Al73  1  0.18140645  0.43139020  0.01272570  1
  Al0+  Al74  1  0.17753973  0.42734066  0.34911450  1
  Al0+  Al75  1  0.18104832  0.92862554  0.34888680  1
  Al0+  Al76  1  0.06991666  0.18058242  0.31902199  1
  Al0+  Al77  1  0.07383390  0.17951274  0.65053930  1
  Al0+  Al78  1  0.92596462  0.82137867  0.65375286  1
  Al0+  Al79  1  0.82148996  0.56943777  0.01559636  1
  Al0+  Al80  1  0.81911208  0.56873585  0.67994542  1
  Al0+  Al81  1  0.92952717  0.32388880  0.98672135  1
  Al0+  Al82  1  0.82084449  0.06961435  0.34697976  1
  Al0+  Al83  1  0.42940929  0.82146444  0.65412816  1
  Al0+  Al84  1  0.67941456  0.92954673  0.01360599  1
  Al0+  Al85  1  0.42951731  0.31966477  0.31988061  1
  Al0+  Al86  1  0.57089891  0.67867993  0.31761088  1
  Al0+  Al87  1  0.07265165  0.17709187  0.98503644  1
  Al0+  Al88  1  0.07026442  0.67642780  0.31544646  1
  Al0+  Al89  1  0.07148156  0.67801634  0.65320324  1
  Al0+  Al90  1  0.42797644  0.82404111  0.31383047  1
  Al0+  Al91  1  0.17533856  0.92817460  0.01454759  1
  Al0+  Al92  1  0.32041900  0.07108274  0.01477499  1
  Al0+  Al93  1  0.56923057  0.17861027  0.98745270  1
  Al0+  Al94  1  0.92796558  0.32057857  0.64959251  1
  Al0+  Al95  1  0.67898075  0.43089165  0.34568336  1
  Si0+  Si96  1  0.67580645  0.42731683  0.01569122  1
  Si0+  Si97  1  0.92653155  0.82025075  0.98619877  1
  Si0+  Si98  1  0.67645718  0.92705353  0.35188314  1
  Si0+  Si99  1  0.42782002  0.32457411  0.98144296  1
  Si0+  Si100  1  0.57371367  0.67906368  0.98251576  1
  Si0+  Si101  1  0.57516924  0.17923531  0.31860049  1
  Si0+  Si102  1  0.07109451  0.68082405  0.98699746  1
  Si0+  Si103  1  0.43063499  0.81948193  0.98468344  1
  Si0+  Si104  1  0.32252511  0.07055295  0.68105366  1
  Si0+  Si105  1  0.82070089  0.07445954  0.01361237  1
  Si0+  Si106  1  0.17955568  0.92782011  0.67977499  1
  Si0+  Si107  1  0.82235621  0.07166153  0.68441326  1
  Si0+  Si108  1  0.57036881  0.17796975  0.65092796  1
  Si0+  Si109  1  0.67508598  0.42508521  0.68629959  1
  Si0+  Si110  1  0.32347100  0.07225504  0.35155084  1
  Si0+  Si111  1  0.18082703  0.42877957  0.68096413  1
  Si0+  Si112  1  0.92584673  0.32164242  0.31886432  1
  Si0+  Si113  1  0.57074668  0.67670564  0.65264836  1
  Si0+  Si114  1  0.32273991  0.57221282  0.68116866  1
  Si0+  Si115  1  0.32102301  0.56991874  0.34913449  1
  Si0+  Si116  1  0.67794025  0.93154402  0.67966066  1
  Si0+  Si117  1  0.43069939  0.32186121  0.65272857  1
  Si0+  Si118  1  0.82158032  0.57452731  0.35245995  1
  Si0+  Si119  1  0.32573769  0.57378976  0.01637942  1
  O2-  O120  1  0.24151041  0.00649279  0.06341644  1
  O2-  O121  1  0.25853783  0.00077728  0.39705757  1
  O2-  O122  1  0.25005869  0.00012461  0.72163221  1
  O2-  O123  1  0.25984086  0.50257475  0.05926876  1
  O2-  O124  1  0.24899871  0.50593061  0.39594884  1
  O2-  O125  1  0.24844198  0.50417323  0.72286102  1
  O2-  O126  1  0.75349153  0.00501378  0.05891620  1
  O2-  O127  1  0.74713162  -0.00644584  0.39602529  1
  O2-  O128  1  0.75173207  -0.00145088  0.72447804  1
  O2-  O129  1  0.74783540  0.49217013  0.05907175  1
  O2-  O130  1  0.75178316  0.50569681  0.39483376  1
  O2-  O131  1  0.74657315  0.49157248  0.72893956  1
  O2-  O132  1  -0.00198348  0.25820125  0.27352848  1
  O2-  O133  1  -0.00098712  0.24805571  0.59981690  1
  O2-  O134  1  0.00029642  0.25007876  0.93683067  1
  O2-  O135  1  -0.00070339  0.74867562  0.26442770  1
  O2-  O136  1  0.00125753  0.75241837  0.60506396  1
  O2-  O137  1  0.00239347  0.75395476  0.94446819  1
  O2-  O138  1  0.50384986  0.24440665  0.27434322  1
  O2-  O139  1  0.50520878  0.25475832  0.61027871  1
  O2-  O140  1  0.49474602  0.25319671  0.93804303  1
  O2-  O141  1  0.50331268  0.75415435  0.26576981  1
  O2-  O142  1  0.50069794  0.74334040  0.60857973  1
  O2-  O143  1  0.50139709  0.74887362  0.94020485  1
  O2-  O144  1  0.06958019  0.17762532  0.09838256  1
  O2-  O145  1  0.06901812  0.18115345  0.43221050  1
  O2-  O146  1  0.07580230  0.18081076  0.76406732  1
  O2-  O147  1  0.07026423  0.67960763  0.09140941  1
  O2-  O148  1  0.06721474  0.67717719  0.42913005  1
  O2-  O149  1  0.07254997  0.67982971  0.76777415  1
  O2-  O150  1  0.56953029  0.18046514  0.10009982  1
  O2-  O151  1  0.57389550  0.18087386  0.42489907  1
  O2-  O152  1  0.56753208  0.17449152  0.75591729  1
  O2-  O153  1  0.57277418  0.67743323  0.08686966  1
  O2-  O154  1  0.56759281  0.67864734  0.43200808  1
  O2-  O155  1  0.56993047  0.67882352  0.75859393  1
  O2-  O156  1  0.18045241  0.42650722  0.23617947  1
  O2-  O157  1  0.18466702  0.42724795  0.57617641  1
  O2-  O158  1  0.18169610  0.43516978  0.89860908  1
  O2-  O159  1  0.18007983  0.93236287  0.23616936  1
  O2-  O160  1  0.18154309  0.92684757  0.57508873  1
  O2-  O161  1  0.17972532  0.92270473  0.90004206  1
  O2-  O162  1  0.68128178  0.42926061  0.23259299  1
  O2-  O163  1  0.67016526  0.42725307  0.58100256  1
  O2-  O164  1  0.67020141  0.43131662  0.91021212  1
  O2-  O165  1  0.67582396  0.93029812  0.24633291  1
  O2-  O166  1  0.67450333  0.93534333  0.57521609  1
  O2-  O167  1  0.67971547  0.92928409  0.89932988  1
  O2-  O168  1  0.43011253  0.32751706  0.08649837  1
  O2-  O169  1  0.43132562  0.31895215  0.43395158  1
  O2-  O170  1  0.42996016  0.32202706  0.75762470  1
  O2-  O171  1  0.43182726  0.81760005  0.08889089  1
  O2-  O172  1  0.43000456  0.82081631  0.42812774  1
  O2-  O173  1  0.43137736  0.82208143  0.76780347  1
  O2-  O174  1  0.92837026  0.32250730  0.10027625  1
  O2-  O175  1  0.92529105  0.31850614  0.42444757  1
  O2-  O176  1  0.93269239  0.32095945  0.76319004  1
  O2-  O177  1  0.92415826  0.81906477  0.09064186  1
  O2-  O178  1  0.93166505  0.81998374  0.43008417  1
  O2-  O179  1  0.92594863  0.81990745  0.76818748  1
  O2-  O180  1  0.32311902  0.07308988  0.24641328  1
  O2-  O181  1  0.32622263  0.07254467  0.57648068  1
  O2-  O182  1  0.32329955  0.06454714  0.90018496  1
  O2-  O183  1  0.32243963  0.56561297  0.24354477  1
  O2-  O184  1  0.32995694  0.56958253  0.57709337  1
  O2-  O185  1  0.32466180  0.57501055  0.90994357  1
  O2-  O186  1  0.81685217  0.07183068  0.23379219  1
  O2-  O187  1  0.82041406  0.07313289  0.57951069  1
  O2-  O188  1  0.81855177  0.07071925  0.90757449  1
  O2-  O189  1  0.82172091  0.57213240  0.24669441  1
  O2-  O190  1  0.81353023  0.56988242  0.56748758  1
  O2-  O191  1  0.82101624  0.57181001  0.90208390  1
  O2-  O192  1  0.03600295  0.08516848  0.26695071  1
  O2-  O193  1  0.04636282  0.08011260  0.60025245  1
  O2-  O194  1  0.04402394  0.07844242  0.93082022  1
  O2-  O195  1  0.04022062  0.57690473  0.26493845  1
  O2-  O196  1  0.04249626  0.58028225  0.60138959  1
  O2-  O197  1  0.04052508  0.58997635  0.93966654  1
  O2-  O198  1  0.55409012  0.08439651  0.27428858  1
  O2-  O199  1  0.53749571  0.09012210  0.59964507  1
  O2-  O200  1  0.53648389  0.08186169  0.93228190  1
  O2-  O201  1  0.53827470  0.58288604  0.26203111  1
  O2-  O202  1  0.54650468  0.58140552  0.60971990  1
  O2-  O203  1  0.54763526  0.58771458  0.93248847  1
  O2-  O204  1  0.16725931  0.20841890  0.26667968  1
  O2-  O205  1  0.17259220  0.20867258  0.59850146  1
  O2-  O206  1  0.17247916  0.20505979  0.93413938  1
  O2-  O207  1  0.16991424  0.70053497  0.26478200  1
  O2-  O208  1  0.17038563  0.70113882  0.59922262  1
  O2-  O209  1  0.16481787  0.70463073  0.94009189  1
  O2-  O210  1  0.66759386  0.20881367  0.27379308  1
  O2-  O211  1  0.66411300  0.19972461  0.60552430  1
  O2-  O212  1  0.66346740  0.20787067  0.92679861  1
  O2-  O213  1  0.66971766  0.70229312  0.26447059  1
  O2-  O214  1  0.66256011  0.70387928  0.60574453  1
  O2-  O215  1  0.66513980  0.71024593  0.93626335  1
  O2-  O216  1  0.08805730  0.46464945  0.06959163  1
  O2-  O217  1  0.08009556  0.45563988  0.40341427  1
  O2-  O218  1  0.08797801  0.45373475  0.72689549  1
  O2-  O219  1  0.07445423  0.95015758  0.06503082  1
  O2-  O220  1  0.08554656  0.96174193  0.40313472  1
  O2-  O221  1  0.08720672  0.95413640  0.72731393  1
  O2-  O222  1  0.58345214  0.45719713  0.06260201  1
  O2-  O223  1  0.58139506  0.46154459  0.39926339  1
  O2-  O224  1  0.58209444  0.45131907  0.73476856  1
  O2-  O225  1  0.58415198  0.96023595  0.06819767  1
  O2-  O226  1  0.58325105  0.95507733  0.39860314  1
  O2-  O227  1  0.58707133  0.96398833  0.72811452  1
  O2-  O228  1  0.21000399  0.33430886  0.06560057  1
  O2-  O229  1  0.21464002  0.33266555  0.40345639  1
  O2-  O230  1  0.21527848  0.33910810  0.72921389  1
  O2-  O231  1  0.21014606  0.83197855  0.06821823  1
  O2-  O232  1  0.21164565  0.83001235  0.40002162  1
  O2-  O233  1  0.20847200  0.83559169  0.72683533  1
  O2-  O234  1  0.69641366  0.33112329  0.05739959  1
  O2-  O235  1  0.70713035  0.33578598  0.40461185  1
  O2-  O236  1  0.69708857  0.32922081  0.72977531  1
  O2-  O237  1  0.70866384  0.83425363  0.06921991  1
  O2-  O238  1  0.69860223  0.83163828  0.39535988  1
  O2-  O239  1  0.70059642  0.83795101  0.72630108  1
  O2-  O240  1  0.46001874  0.41424165  0.26372916  1
  O2-  O241  1  0.45492761  0.41492761  0.60582981  1
  O2-  O242  1  0.45581651  0.41755451  0.93320134  1
  O2-  O243  1  0.45520485  0.92383703  0.26366039  1
  O2-  O244  1  0.46227170  0.91573417  0.59750858  1
  O2-  O245  1  0.45964003  0.91096494  0.93769386  1
  O2-  O246  1  0.94541496  0.41773059  0.27717133  1
  O2-  O247  1  0.95509148  0.41836028  0.59661310  1
  O2-  O248  1  0.96431969  0.42189954  0.93513025  1
  O2-  O249  1  0.95986661  0.91975873  0.26447794  1
  O2-  O250  1  0.95015281  0.92129518  0.60396380  1
  O2-  O251  1  0.94740265  0.91358462  0.93856796  1
  O2-  O252  1  0.33448610  0.28810983  0.26518102  1
  O2-  O253  1  0.34114090  0.29000369  0.60416217  1
  O2-  O254  1  0.33439488  0.30151394  0.93441079  1
  O2-  O255  1  0.33176905  0.79284560  0.26005184  1
  O2-  O256  1  0.33412696  0.79164842  0.59890367  1
  O2-  O257  1  0.33872836  0.79039336  0.93682256  1
  O2-  O258  1  0.83309693  0.29154311  0.27401767  1
  O2-  O259  1  0.82662998  0.29547677  0.60105571  1
  O2-  O260  1  0.83033279  0.30229877  0.93127473  1
  O2-  O261  1  0.82938621  0.79911112  0.26563362  1
  O2-  O262  1  0.82804910  0.79198430  0.60047581  1
  O2-  O263  1  0.83573950  0.78736938  0.93899479  1
  O2-  O264  1  0.41552184  0.03725123  0.07008793  1
  O2-  O265  1  0.41964506  0.05163773  0.39630199  1
  O2-  O266  1  0.41419828  0.04003103  0.72859287  1
  O2-  O267  1  0.42123606  0.55104839  0.05932246  1
  O2-  O268  1  0.41288458  0.53948792  0.39631349  1
  O2-  O269  1  0.41228737  0.54204719  0.73382799  1
  O2-  O270  1  0.91422752  0.04977931  0.05892569  1
  O2-  O271  1  0.91587659  0.03787688  0.40313877  1
  O2-  O272  1  0.91460010  0.04570903  0.73194285  1
  O2-  O273  1  0.91667874  0.54118621  0.07215555  1
  O2-  O274  1  0.91400857  0.54827875  0.39969337  1
  O2-  O275  1  0.91714169  0.53946731  0.73391555  1
  O2-  O276  1  0.30589805  0.17375197  0.06245509  1
  O2-  O277  1  0.29476621  0.16467059  0.39865489  1
  O2-  O278  1  0.29733374  0.16276632  0.72980715  1
  O2-  O279  1  0.29943527  0.66605087  0.06326661  1
  O2-  O280  1  0.30096411  0.66592143  0.39180849  1
  O2-  O281  1  0.29739718  0.66518498  0.72841495  1
  O2-  O282  1  0.79269502  0.16859082  0.05636762  1
  O2-  O283  1  0.78778696  0.16324919  0.40667609  1
  O2-  O284  1  0.79138721  0.16263627  0.73210543  1
  O2-  O285  1  0.78728576  0.66330090  0.07153064  1
  O2-  O286  1  0.79477570  0.66882552  0.39619472  1
  O2-  O287  1  0.78629814  0.66508515  0.73606480  1
