# generated using pymatgen
data_Ca2Al2SiO7
_symmetry_space_group_name_H-M   'P 1'
_cell_length_a   15.45510229
_cell_length_b   15.45524961
_cell_length_c   15.28234819
_cell_angle_alpha   90.01153170
_cell_angle_beta   90.00195323
_cell_angle_gamma   90.00890393
_symmetry_Int_Tables_number   1
_chemical_formula_structural   Ca2Al2SiO7
_chemical_formula_sum   'Ca48 Al48 Si24 O168'
_cell_volume   3650.37921953
_cell_formula_units_Z   24
loop_
 _symmetry_equiv_pos_site_id
 _symmetry_equiv_pos_as_xyz
  1  'x, y, z'
loop_
 _atom_type_symbol
 _atom_type_oxidation_number
  Ca2+  2.0
  Al0+  0.0
  Si0+  0.0
  O2-  -2.0
loop_
 _atom_site_type_symbol
 _atom_site_label
 _atom_site_symmetry_multiplicity
 _atom_site_fract_x
 _atom_site_fract_y
 _atom_site_fract_z
 _atom_site_occupancy
  Ca2+  Ca0  1  0.16830930  0.08014862  0.17341216  1
  Ca2+  Ca1  1  0.17597733  0.08554571  0.50614824  1
  Ca2+  Ca2  1  0.16758905  0.07319601  0.83412440  1
  Ca2+  Ca3  1  0.16522587  0.57403945  0.16826274  1
  Ca2+  Ca4  1  0.15593272  0.57514952  0.50299264  1
  Ca2+  Ca5  1  0.16775442  0.57535403  0.83805116  1
  Ca2+  Ca6  1  0.67248918  0.08336753  0.17544594  1
  Ca2+  Ca7  1  0.67337646  0.07936560  0.49698878  1
  Ca2+  Ca8  1  0.66702553  0.08596270  0.83730803  1
  Ca2+  Ca9  1  0.66827450  0.57464971  0.16727742  1
  Ca2+  Ca10  1  0.67726108  0.57826022  0.51035221  1
  Ca2+  Ca11  1  0.67059215  0.57271802  0.83524806  1
  Ca2+  Ca12  1  0.07878255  0.33263927  0.16612260  1
  Ca2+  Ca13  1  0.08182988  0.33187981  0.48810373  1
  Ca2+  Ca14  1  0.08323571  0.34161309  0.83017131  1
  Ca2+  Ca15  1  0.08339616  0.82933097  0.15904876  1
  Ca2+  Ca16  1  0.08889402  0.82139464  0.49819266  1
  Ca2+  Ca17  1  0.07926886  0.83141640  0.82421290  1
  Ca2+  Ca18  1  0.57873027  0.32492015  0.15111708  1
  Ca2+  Ca19  1  0.57667891  0.33756152  0.50085941  1
  Ca2+  Ca20  1  0.57386314  0.34005787  0.83141428  1
  Ca2+  Ca21  1  0.57725912  0.84018332  0.16711097  1
  Ca2+  Ca22  1  0.57870518  0.83656600  0.49151646  1
  Ca2+  Ca23  1  0.58039374  0.82915800  0.82844653  1
  Ca2+  Ca24  1  0.32474680  0.41509177  0.16733997  1
  Ca2+  Ca25  1  0.31916689  0.41218178  0.50672439  1
  Ca2+  Ca26  1  0.32522080  0.41570065  0.84088245  1
  Ca2+  Ca27  1  0.32975648  0.92202759  0.17418682  1
  Ca2+  Ca28  1  0.33045837  0.92747286  0.50482035  1
  Ca2+  Ca29  1  0.31870361  0.91686444  0.83688206  1
  Ca2+  Ca30  1  0.83095497  0.40406547  0.16888882  1
  Ca2+  Ca31  1  0.83148098  0.42071517  0.50840759  1
  Ca2+  Ca32  1  0.82739435  0.41968782  0.83919982  1
  Ca2+  Ca33  1  0.82874426  0.92198618  0.17385701  1
  Ca2+  Ca34  1  0.83646575  0.91899612  0.50228805  1
  Ca2+  Ca35  1  0.83953226  0.91442635  0.83852099  1
  Ca2+  Ca36  1  0.42151039  0.16879631  0.15981617  1
  Ca2+  Ca37  1  0.40868917  0.16858714  0.49759945  1
  Ca2+  Ca38  1  0.41661656  0.17692454  0.82973738  1
  Ca2+  Ca39  1  0.41254836  0.67002278  0.16377842  1
  Ca2+  Ca40  1  0.41764596  0.67593668  0.49302285  1
  Ca2+  Ca41  1  0.41446430  0.66035617  0.83186783  1
  Ca2+  Ca42  1  0.91825156  0.17274233  0.16525019  1
  Ca2+  Ca43  1  0.92506176  0.17294232  0.48892784  1
  Ca2+  Ca44  1  0.91846018  0.17461961  0.83367870  1
  Ca2+  Ca45  1  0.92427599  0.67244414  0.16282289  1
  Ca2+  Ca46  1  0.92573755  0.66541042  0.50023000  1
  Ca2+  Ca47  1  0.92025338  0.67661224  0.82288298  1
  Al0+  Al48  1  -0.00051395  -0.00004720  0.00136525  1
  Al0+  Al49  1  0.00035173  -0.00063284  0.33458481  1
  Al0+  Al50  1  -0.00080667  0.00153211  0.66563753  1
  Al0+  Al51  1  0.00027862  0.50134530  -0.00037560  1
  Al0+  Al52  1  -0.00171671  0.50106192  0.32689442  1
  Al0+  Al53  1  -0.00170608  0.50272193  0.67225851  1
  Al0+  Al54  1  0.50028838  -0.00156000  -0.00664475  1
  Al0+  Al55  1  0.49914112  0.00023629  0.33696291  1
  Al0+  Al56  1  0.50268045  0.00287567  0.67082314  1
  Al0+  Al57  1  0.50145357  0.50079168  0.00558664  1
  Al0+  Al58  1  0.49908829  0.50173216  0.33342060  1
  Al0+  Al59  1  0.50001768  0.49894522  0.66192418  1
  Al0+  Al60  1  0.25049028  0.24822359  0.00013084  1
  Al0+  Al61  1  0.24872492  0.25021478  0.33554655  1
  Al0+  Al62  1  0.25154609  0.25109666  0.67203681  1
  Al0+  Al63  1  0.24992094  0.75002375  0.00673223  1
  Al0+  Al64  1  0.25171527  0.74931126  0.32355623  1
  Al0+  Al65  1  0.25015942  0.75026481  0.66430619  1
  Al0+  Al66  1  0.75238786  0.24877916  -0.00475447  1
  Al0+  Al67  1  0.74821065  0.24895502  0.33737598  1
  Al0+  Al68  1  0.74733708  0.24769666  0.66893985  1
  Al0+  Al69  1  0.74939687  0.75006717  -0.00248304  1
  Al0+  Al70  1  0.74841390  0.74691840  0.33608352  1
  Al0+  Al71  1  0.75053711  0.75130835  0.66580615  1
  Al0+  Al72  1  0.43155746  0.82189222  0.31952938  1
  Al0+  Al73  1  0.42863915  0.32202782  0.98593023  1
  Al0+  Al74  1  0.67969747  0.92838532  0.34757979  1
  Al0+  Al75  1  0.68240832  0.42835583  0.01442565  1
  Al0+  Al76  1  0.17903269  0.92829988  0.67949204  1
  Al0+  Al77  1  0.17670021  0.42636011  0.01732437  1
  Al0+  Al78  1  0.32316537  0.07258231  0.68495970  1
  Al0+  Al79  1  0.92938344  0.82091188  0.98794056  1
  Al0+  Al80  1  0.07352113  0.17711886  0.31928718  1
  Al0+  Al81  1  0.17947668  0.43226999  0.34650446  1
  Al0+  Al82  1  0.31928924  0.07067373  0.34567132  1
  Al0+  Al83  1  0.93137108  0.32144508  0.98453771  1
  Al0+  Al84  1  0.17839168  0.43024935  0.67909580  1
  Al0+  Al85  1  0.07211828  0.67828241  0.65206946  1
  Al0+  Al86  1  0.07045385  0.67936603  0.31631748  1
  Al0+  Al87  1  0.92829105  0.82358932  0.64892774  1
  Al0+  Al88  1  0.57230432  0.17705960  0.98434704  1
  Al0+  Al89  1  0.42910088  0.32028797  0.65098062  1
  Al0+  Al90  1  0.32212497  0.57061893  0.01632655  1
  Al0+  Al91  1  0.17774990  0.93048336  0.01505833  1
  Al0+  Al92  1  0.92734428  0.32063887  0.32021313  1
  Al0+  Al93  1  0.82318919  0.07193154  0.34912247  1
  Al0+  Al94  1  0.82123476  0.57235990  0.68322866  1
  Al0+  Al95  1  0.67787573  0.42764209  0.68191655  1
  Si0+  Si96  1  0.57320666  0.67632998  0.31516740  1
  Si0+  Si97  1  0.17770276  0.92450535  0.34883034  1
  Si0+  Si98  1  0.43019576  0.82298052  0.65323763  1
  Si0+  Si99  1  0.32360965  0.06949523  0.01629463  1
  Si0+  Si100  1  0.67958311  0.92914358  0.68321081  1
  Si0+  Si101  1  0.57074846  0.67944842  0.65151217  1
  Si0+  Si102  1  0.32331055  0.57319613  0.67877971  1
  Si0+  Si103  1  0.07253599  0.17675182  0.98266310  1
  Si0+  Si104  1  0.07342685  0.67960306  0.98242828  1
  Si0+  Si105  1  0.82005642  0.57005393  0.34746627  1
  Si0+  Si106  1  0.67764236  0.92685287  0.01325110  1
  Si0+  Si107  1  0.57125502  0.67934081  0.98487854  1
  Si0+  Si108  1  0.92737779  0.32071936  0.65453795  1
  Si0+  Si109  1  0.67654041  0.42786582  0.34835638  1
  Si0+  Si110  1  0.82003579  0.07007375  0.01405122  1
  Si0+  Si111  1  0.82099495  0.57412831  0.01773113  1
  Si0+  Si112  1  0.57328270  0.17636141  0.64558575  1
  Si0+  Si113  1  0.42795993  0.32255480  0.31894340  1
  Si0+  Si114  1  0.32296103  0.57337397  0.35128080  1
  Si0+  Si115  1  0.07067899  0.18097590  0.65367218  1
  Si0+  Si116  1  0.56913587  0.18070402  0.32054231  1
  Si0+  Si117  1  0.42795996  0.82033217  0.98352837  1
  Si0+  Si118  1  0.92568457  0.82147814  0.31720669  1
  Si0+  Si119  1  0.82150402  0.07087986  0.68339185  1
  O2-  O120  1  0.25301305  0.00418652  0.06219060  1
  O2-  O121  1  0.24179002  -0.00193676  0.39191802  1
  O2-  O122  1  0.25179934  -0.00155047  0.73188703  1
  O2-  O123  1  0.25093738  0.49750762  0.06580731  1
  O2-  O124  1  0.25391608  0.50620913  0.39604960  1
  O2-  O125  1  0.25342778  0.50623860  0.72264122  1
  O2-  O126  1  0.74679550  -0.00025025  0.05439404  1
  O2-  O127  1  0.75580186  -0.00508944  0.39923736  1
  O2-  O128  1  0.75252722  -0.00242356  0.72570291  1
  O2-  O129  1  0.75911216  0.49993335  0.06393184  1
  O2-  O130  1  0.74932183  0.49767555  0.38889475  1
  O2-  O131  1  0.75145805  0.49761485  0.73214472  1
  O2-  O132  1  -0.00174157  0.24688697  0.27084968  1
  O2-  O133  1  0.00162834  0.25416379  0.61132634  1
  O2-  O134  1  0.01098868  0.25189048  0.93742693  1
  O2-  O135  1  -0.00102882  0.75883977  0.27161452  1
  O2-  O136  1  0.00144568  0.75189331  0.60100674  1
  O2-  O137  1  0.00368231  0.74755120  0.93930650  1
  O2-  O138  1  0.50112318  0.25363498  0.27728728  1
  O2-  O139  1  0.50309348  0.24445399  0.60291285  1
  O2-  O140  1  0.50108175  0.25019162  0.93542420  1
  O2-  O141  1  0.50594248  0.74670958  0.27158658  1
  O2-  O142  1  0.50015474  0.75115092  0.60994469  1
  O2-  O143  1  0.49754175  0.74755139  0.94183570  1
  O2-  O144  1  0.06864632  0.17316731  0.08794377  1
  O2-  O145  1  0.07511188  0.18181724  0.43351207  1
  O2-  O146  1  0.06725886  0.17919378  0.75888226  1
  O2-  O147  1  0.07141991  0.68137807  0.08833959  1
  O2-  O148  1  0.06880409  0.67751083  0.42922944  1
  O2-  O149  1  0.07245201  0.67952881  0.76550580  1
  O2-  O150  1  0.57131130  0.17558620  0.09883996  1
  O2-  O151  1  0.56967778  0.18172620  0.42553370  1
  O2-  O152  1  0.57502122  0.17468018  0.75074182  1
  O2-  O153  1  0.57433978  0.68266497  0.08981165  1
  O2-  O154  1  0.57187613  0.67422977  0.42089337  1
  O2-  O155  1  0.56977564  0.68031983  0.75694311  1
  O2-  O156  1  0.18130968  0.43164737  0.23399368  1
  O2-  O157  1  0.17750277  0.42846631  0.56575978  1
  O2-  O158  1  0.17720235  0.43026485  0.90353483  1
  O2-  O159  1  0.18066567  0.92478873  0.24295766  1
  O2-  O160  1  0.18214686  0.92812806  0.56592996  1
  O2-  O161  1  0.17833755  0.93025509  0.90203994  1
  O2-  O162  1  0.67518304  0.42761425  0.24328937  1
  O2-  O163  1  0.67919581  0.43070460  0.56747977  1
  O2-  O164  1  0.68125548  0.43210001  0.90188935  1
  O2-  O165  1  0.67899915  0.93165980  0.23342483  1
  O2-  O166  1  0.67684199  0.93008845  0.57846837  1
  O2-  O167  1  0.67816247  0.92463245  0.90800246  1
  O2-  O168  1  0.43109855  0.31897253  0.10031343  1
  O2-  O169  1  0.42920618  0.32241435  0.42416034  1
  O2-  O170  1  0.43012166  0.32205161  0.76353996  1
  O2-  O171  1  0.43158771  0.82382772  0.08844214  1
  O2-  O172  1  0.43357167  0.82051484  0.43312911  1
  O2-  O173  1  0.43234398  0.82084106  0.75861244  1
  O2-  O174  1  0.92706112  0.31506387  0.09711968  1
  O2-  O175  1  0.92780330  0.32207869  0.43455264  1
  O2-  O176  1  0.92705257  0.31708341  0.75965952  1
  O2-  O177  1  0.92755688  0.81949157  0.10112111  1
  O2-  O178  1  0.92395418  0.81751790  0.42237313  1
  O2-  O179  1  0.92814699  0.82274906  0.76280935  1
  O2-  O180  1  0.32251799  0.06843359  0.23256464  1
  O2-  O181  1  0.32139362  0.07083370  0.57094276  1
  O2-  O182  1  0.32387737  0.06566392  0.91103508  1
  O2-  O183  1  0.32567394  0.57049489  0.24613509  1
  O2-  O184  1  0.32544582  0.57348587  0.57325351  1
  O2-  O185  1  0.32069735  0.57237418  0.90220225  1
  O2-  O186  1  0.81782138  0.07350295  0.23520265  1
  O2-  O187  1  0.82014115  0.07279528  0.57867049  1
  O2-  O188  1  0.82085939  0.06841459  0.90857783  1
  O2-  O189  1  0.81692564  0.57323675  0.24246152  1
  O2-  O190  1  0.81998722  0.56971959  0.56883159  1
  O2-  O191  1  0.81543828  0.57659625  0.91263294  1
  O2-  O192  1  0.04918450  0.07660363  0.26780828  1
  O2-  O193  1  0.04108041  0.09069879  0.60472751  1
  O2-  O194  1  0.03745592  0.08669102  0.93444685  1
  O2-  O195  1  0.03361292  0.58648116  0.25958767  1
  O2-  O196  1  0.03816486  0.58044526  0.59910697  1
  O2-  O197  1  0.04951032  0.58531867  0.93808007  1
  O2-  O198  1  0.54014159  0.08933463  0.27358738  1
  O2-  O199  1  0.54925683  0.08155800  0.60044834  1
  O2-  O200  1  0.54526063  0.07858692  0.92920795  1
  O2-  O201  1  0.54500700  0.58354855  0.26742741  1
  O2-  O202  1  0.54402794  0.58886997  0.60136435  1
  O2-  O203  1  0.54516951  0.58719888  0.93814260  1
  O2-  O204  1  0.17047599  0.20825056  0.26461560  1
  O2-  O205  1  0.16379593  0.20693907  0.60902659  1
  O2-  O206  1  0.16885465  0.19309238  0.93923520  1
  O2-  O207  1  0.16771094  0.70555953  0.26160044  1
  O2-  O208  1  0.17125326  0.70429792  0.59718483  1
  O2-  O209  1  0.16751768  0.70661444  0.93891545  1
  O2-  O210  1  0.66136576  0.20671365  0.27309621  1
  O2-  O211  1  0.66677251  0.20347181  0.59888119  1
  O2-  O212  1  0.67099302  0.20267230  0.93155267  1
  O2-  O213  1  0.66727809  0.69921542  0.26893209  1
  O2-  O214  1  0.66177990  0.70855789  0.60359889  1
  O2-  O215  1  0.66027610  0.71133690  0.93417793  1
  O2-  O216  1  0.07793393  0.45713534  0.06921072  1
  O2-  O217  1  0.08092556  0.46338048  0.39673525  1
  O2-  O218  1  0.08274969  0.45978686  0.73466993  1
  O2-  O219  1  0.08148564  0.96120750  0.06979389  1
  O2-  O220  1  0.08162147  0.94136775  0.39194683  1
  O2-  O221  1  0.08069313  0.95943790  0.73176147  1
  O2-  O222  1  0.58769836  0.46158159  0.07045474  1
  O2-  O223  1  0.58534984  0.45878923  0.39610604  1
  O2-  O224  1  0.58012513  0.46163353  0.73257879  1
  O2-  O225  1  0.58434350  0.95271751  0.05872423  1
  O2-  O226  1  0.58411443  0.96231489  0.40283776  1
  O2-  O227  1  0.58939532  0.95817375  0.73357996  1
  O2-  O228  1  0.20288796  0.32584128  0.06745162  1
  O2-  O229  1  0.21088247  0.33598939  0.40072366  1
  O2-  O230  1  0.20941780  0.33546033  0.73515647  1
  O2-  O231  1  0.20904567  0.83490881  0.06963040  1
  O2-  O232  1  0.21033560  0.83207209  0.39293587  1
  O2-  O233  1  0.20831976  0.82992262  0.73308375  1
  O2-  O234  1  0.71232526  0.32996958  0.06597057  1
  O2-  O235  1  0.70101286  0.33641223  0.39728269  1
  O2-  O236  1  0.70174048  0.32775754  0.73279762  1
  O2-  O237  1  0.70610047  0.83611042  0.06218869  1
  O2-  O238  1  0.69966385  0.82693703  0.39862214  1
  O2-  O239  1  0.70393625  0.83645251  0.73040134  1
  O2-  O240  1  0.45389008  0.41567641  0.27330687  1
  O2-  O241  1  0.46088306  0.41605618  0.59400755  1
  O2-  O242  1  0.45893037  0.42157524  0.93614365  1
  O2-  O243  1  0.46519940  0.91764083  0.26461183  1
  O2-  O244  1  0.46153373  0.91469329  0.60779509  1
  O2-  O245  1  0.45791170  0.90949740  0.93244696  1
  O2-  O246  1  0.95339444  0.41771813  0.26454758  1
  O2-  O247  1  0.94991123  0.41516857  0.61123673  1
  O2-  O248  1  0.95475227  0.42117545  0.93266964  1
  O2-  O249  1  0.94386776  0.91803738  0.27462556  1
  O2-  O250  1  0.95348929  0.92368889  0.59774277  1
  O2-  O251  1  0.95807814  0.91824174  0.93433336  1
  O2-  O252  1  0.33741523  0.29233272  0.27224495  1
  O2-  O253  1  0.33176503  0.28806312  0.59816951  1
  O2-  O254  1  0.32982701  0.29377437  0.93324906  1
  O2-  O255  1  0.33707072  0.79203609  0.26152493  1
  O2-  O256  1  0.33905908  0.79721760  0.60437848  1
  O2-  O257  1  0.33547529  0.79211470  0.93828626  1
  O2-  O258  1  0.82745966  0.29115174  0.26928496  1
  O2-  O259  1  0.83605461  0.28971878  0.60758661  1
  O2-  O260  1  0.83763132  0.28495083  0.92812046  1
  O2-  O261  1  0.83281295  0.79063881  0.27122194  1
  O2-  O262  1  0.82862512  0.79551457  0.59744424  1
  O2-  O263  1  0.83216280  0.79124401  0.93316069  1
  O2-  O264  1  0.41724861  0.03963501  0.06102742  1
  O2-  O265  1  0.41398380  0.03796783  0.40222437  1
  O2-  O266  1  0.42297283  0.04678608  0.73586017  1
  O2-  O267  1  0.42151915  0.54800306  0.07056485  1
  O2-  O268  1  0.41754000  0.54946170  0.39760943  1
  O2-  O269  1  0.41666975  0.54680296  0.72486000  1
  O2-  O270  1  0.91010783  0.04081374  0.06315438  1
  O2-  O271  1  0.92314062  0.04875226  0.40177068  1
  O2-  O272  1  0.91340422  0.04608766  0.73165923  1
  O2-  O273  1  0.91737949  0.55581163  0.05954588  1
  O2-  O274  1  0.91153612  0.54198605  0.39403466  1
  O2-  O275  1  0.91819550  0.54727131  0.73881240  1
  O2-  O276  1  0.30280060  0.16454049  0.06059916  1
  O2-  O277  1  0.29048998  0.16697302  0.40149358  1
  O2-  O278  1  0.29227426  0.16901366  0.73872915  1
  O2-  O279  1  0.29392573  0.66869202  0.07093020  1
  O2-  O280  1  0.29901830  0.66917108  0.39304220  1
  O2-  O281  1  0.30212921  0.66759653  0.72532928  1
  O2-  O282  1  0.79265922  0.16135836  0.06153641  1
  O2-  O283  1  0.78774660  0.16733852  0.40533440  1
  O2-  O284  1  0.79004636  0.16085849  0.73270688  1
  O2-  O285  1  0.78738980  0.66512245  0.06555291  1
  O2-  O286  1  0.79085353  0.65980447  0.39830676  1
  O2-  O287  1  0.78893009  0.67053027  0.73457761  1
