# generated using pymatgen
data_Ca2Al2SiO7
_symmetry_space_group_name_H-M   'P 1'
_cell_length_a   15.45930219
_cell_length_b   15.46020939
_cell_length_c   15.28461973
_cell_angle_alpha   89.97895234
_cell_angle_beta   90.00158192
_cell_angle_gamma   89.98650986
_symmetry_Int_Tables_number   1
_chemical_formula_structural   Ca2Al2SiO7
_chemical_formula_sum   'Ca48 Al48 Si24 O168'
_cell_volume   3653.08565098
_cell_formula_units_Z   24
loop_
 _symmetry_equiv_pos_site_id
 _symmetry_equiv_pos_as_xyz
  1  'x, y, z'
loop_
 _atom_type_symbol
 _atom_type_oxidation_number
  Ca2+  2.0
  Al0+  0.0
  Si0+  0.0
  O2-  -2.0
loop_
 _atom_site_type_symbol
 _atom_site_label
 _atom_site_symmetry_multiplicity
 _atom_site_fract_x
 _atom_site_fract_y
 _atom_site_fract_z
 _atom_site_occupancy
  Ca2+  Ca0  1  0.16897842  0.08608569  0.17624169  1
  Ca2+  Ca1  1  0.17563567  0.07956902  0.50642500  1
  Ca2+  Ca2  1  0.16556535  0.07801671  0.83731871  1
  Ca2+  Ca3  1  0.16971071  0.58712170  0.17078870  1
  Ca2+  Ca4  1  0.17351036  0.59290261  0.50508133  1
  Ca2+  Ca5  1  0.17557621  0.58543811  0.84015209  1
  Ca2+  Ca6  1  0.67981904  0.08758289  0.17517594  1
  Ca2+  Ca7  1  0.66806233  0.08136279  0.50515635  1
  Ca2+  Ca8  1  0.66841456  0.07761116  0.83344562  1
  Ca2+  Ca9  1  0.66411991  0.58327040  0.17010630  1
  Ca2+  Ca10  1  0.66924691  0.58403826  0.50726306  1
  Ca2+  Ca11  1  0.66361388  0.58663289  0.83856491  1
  Ca2+  Ca12  1  0.08645218  0.32391983  0.16403500  1
  Ca2+  Ca13  1  0.07283979  0.32866164  0.49288760  1
  Ca2+  Ca14  1  0.08242472  0.33200896  0.83128174  1
  Ca2+  Ca15  1  0.08201194  0.82532402  0.16754282  1
  Ca2+  Ca16  1  0.09047835  0.82642949  0.49684034  1
  Ca2+  Ca17  1  0.08936786  0.82393414  0.82801261  1
  Ca2+  Ca18  1  0.58179037  0.32830992  0.16889769  1
  Ca2+  Ca19  1  0.58026145  0.31968477  0.49677820  1
  Ca2+  Ca20  1  0.58050595  0.32566832  0.82585004  1
  Ca2+  Ca21  1  0.57380079  0.82915023  0.16393012  1
  Ca2+  Ca22  1  0.57166879  0.83894867  0.50018760  1
  Ca2+  Ca23  1  0.57818767  0.82450453  0.82286522  1
  Ca2+  Ca24  1  0.32609098  0.42900942  0.17028103  1
  Ca2+  Ca25  1  0.33296508  0.43057379  0.50386878  1
  Ca2+  Ca26  1  0.32866782  0.42908525  0.84145499  1
  Ca2+  Ca27  1  0.33171074  0.91940366  0.17542393  1
  Ca2+  Ca28  1  0.33290021  0.91951442  0.50709856  1
  Ca2+  Ca29  1  0.33259383  0.91643943  0.82504885  1
  Ca2+  Ca30  1  0.83373209  0.41499186  0.17232252  1
  Ca2+  Ca31  1  0.83738248  0.41136934  0.50299748  1
  Ca2+  Ca32  1  0.83394396  0.41414981  0.83244311  1
  Ca2+  Ca33  1  0.83647022  0.92525728  0.17422251  1
  Ca2+  Ca34  1  0.82993048  0.91855425  0.50375908  1
  Ca2+  Ca35  1  0.82474888  0.91833511  0.83881425  1
  Ca2+  Ca36  1  0.42223512  0.16042229  0.16612663  1
  Ca2+  Ca37  1  0.42679649  0.14913446  0.49596643  1
  Ca2+  Ca38  1  0.42001683  0.16671658  0.82287985  1
  Ca2+  Ca39  1  0.41265927  0.66889309  0.16313277  1
  Ca2+  Ca40  1  0.40996336  0.67814288  0.49775220  1
  Ca2+  Ca41  1  0.42177959  0.66547441  0.82402938  1
  Ca2+  Ca42  1  0.92568415  0.16210543  0.16506044  1
  Ca2+  Ca43  1  0.91926048  0.17391919  0.48954753  1
  Ca2+  Ca44  1  0.91942257  0.16924949  0.83195298  1
  Ca2+  Ca45  1  0.92678294  0.67137705  0.16463951  1
  Ca2+  Ca46  1  0.93000753  0.67578033  0.49245655  1
  Ca2+  Ca47  1  0.93194917  0.66256081  0.82724605  1
  Al0+  Al48  1  -0.00079122  0.00139509  -0.00102246  1
  Al0+  Al49  1  -0.00060527  -0.00020943  0.33363329  1
  Al0+  Al50  1  0.00046042  0.00050931  0.67228945  1
  Al0+  Al51  1  -0.00144762  0.49903355  -0.00008332  1
  Al0+  Al52  1  -0.00081594  0.49927153  0.32678915  1
  Al0+  Al53  1  -0.00010635  0.49980436  0.65800375  1
  Al0+  Al54  1  0.50055830  -0.00139867  -0.00126849  1
  Al0+  Al55  1  0.50109253  -0.00193643  0.32438792  1
  Al0+  Al56  1  0.50241054  -0.00131108  0.66970580  1
  Al0+  Al57  1  0.49955395  0.49956723  0.00188288  1
  Al0+  Al58  1  0.49989621  0.49823725  0.33976425  1
  Al0+  Al59  1  0.50214640  0.49752258  0.66746353  1
  Al0+  Al60  1  0.24982059  0.25073143  -0.00118771  1
  Al0+  Al61  1  0.25189307  0.25304409  0.33737772  1
  Al0+  Al62  1  0.24994892  0.25251626  0.66911517  1
  Al0+  Al63  1  0.24953294  0.75367082  -0.00017457  1
  Al0+  Al64  1  0.25187060  0.75098468  0.32798496  1
  Al0+  Al65  1  0.25215299  0.75082400  0.66881910  1
  Al0+  Al66  1  0.74999795  0.24956217  0.00379975  1
  Al0+  Al67  1  0.74860227  0.24964892  0.33056753  1
  Al0+  Al68  1  0.74922185  0.25123002  0.66114059  1
  Al0+  Al69  1  0.74686144  0.75018188  -0.00094412  1
  Al0+  Al70  1  0.74931359  0.74914528  0.33126489  1
  Al0+  Al71  1  0.75211834  0.74900797  0.66999608  1
  Al0+  Al72  1  0.07161560  0.68134640  0.65365441  1
  Al0+  Al73  1  0.06982449  0.67926984  0.98490406  1
  Al0+  Al74  1  0.81938011  0.06989669  0.01428137  1
  Al0+  Al75  1  0.56809553  0.17910460  0.65421129  1
  Al0+  Al76  1  0.43036594  0.82001097  0.31831705  1
  Al0+  Al77  1  0.07207434  0.17890507  0.98476297  1
  Al0+  Al78  1  0.92554397  0.82230444  0.31915918  1
  Al0+  Al79  1  0.32200439  0.07224213  0.68170462  1
  Al0+  Al80  1  0.32062914  0.57300344  0.01599229  1
  Al0+  Al81  1  0.32121735  0.56986196  0.68056928  1
  Al0+  Al82  1  0.32243697  0.07191229  0.34463094  1
  Al0+  Al83  1  0.56839813  0.17846184  0.31814920  1
  Al0+  Al84  1  0.56851262  0.67869463  0.98706178  1
  Al0+  Al85  1  0.92788519  0.32014240  0.31544784  1
  Al0+  Al86  1  0.82165972  0.07066687  0.34855996  1
  Al0+  Al87  1  0.57423230  0.67549981  0.65114840  1
  Al0+  Al88  1  0.68088685  0.92792796  0.68042364  1
  Al0+  Al89  1  0.93082706  0.31841875  0.65331694  1
  Al0+  Al90  1  0.17686173  0.42820676  0.01555880  1
  Al0+  Al91  1  0.43143033  0.81871258  0.65159156  1
  Al0+  Al92  1  0.31954335  0.57214088  0.34880631  1
  Al0+  Al93  1  0.07369773  0.17930501  0.32099548  1
  Al0+  Al94  1  0.17799157  0.92921430  0.68248312  1
  Al0+  Al95  1  0.07227784  0.68030147  0.31763931  1
  Si0+  Si96  1  0.32215939  0.07163933  0.01442693  1
  Si0+  Si97  1  0.68083529  0.42786701  0.68188564  1
  Si0+  Si98  1  0.92729993  0.82243851  0.98268558  1
  Si0+  Si99  1  0.17586773  0.42885942  0.35186480  1
  Si0+  Si100  1  0.57173932  0.67475858  0.31843075  1
  Si0+  Si101  1  0.92585814  0.32120047  0.98280814  1
  Si0+  Si102  1  0.42709870  0.82449229  0.98038309  1
  Si0+  Si103  1  0.57201690  0.17943323  0.98482698  1
  Si0+  Si104  1  0.17863270  0.92874638  0.34799197  1
  Si0+  Si105  1  0.07418912  0.17556528  0.65106649  1
  Si0+  Si106  1  0.67672324  0.92683013  0.01912878  1
  Si0+  Si107  1  0.42981086  0.31999059  0.98599999  1
  Si0+  Si108  1  0.42599091  0.32269446  0.65047116  1
  Si0+  Si109  1  0.82107681  0.07521766  0.68296169  1
  Si0+  Si110  1  0.67871752  0.42846056  0.01551399  1
  Si0+  Si111  1  0.82138739  0.57107879  0.34794041  1
  Si0+  Si112  1  0.92714044  0.82411924  0.65326652  1
  Si0+  Si113  1  0.67828137  0.92691756  0.34865987  1
  Si0+  Si114  1  0.42881767  0.32572886  0.31679993  1
  Si0+  Si115  1  0.17472405  0.42958913  0.68220563  1
  Si0+  Si116  1  0.82029359  0.57180627  0.01432362  1
  Si0+  Si117  1  0.67924979  0.42873871  0.35056314  1
  Si0+  Si118  1  0.17835076  0.93088154  0.01646014  1
  Si0+  Si119  1  0.82245676  0.56981954  0.68082026  1
  O2-  O120  1  0.25043054  0.00192669  0.05714325  1
  O2-  O121  1  0.24378180  0.00163334  0.39061308  1
  O2-  O122  1  0.24614452  0.00530683  0.73348367  1
  O2-  O123  1  0.24435970  0.50481453  0.06547088  1
  O2-  O124  1  0.24167198  0.50061295  0.39572743  1
  O2-  O125  1  0.24602155  0.49519132  0.72681764  1
  O2-  O126  1  0.74564097  -0.00507110  0.06279797  1
  O2-  O127  1  0.74873079  -0.00652673  0.39357518  1
  O2-  O128  1  0.75742845  0.00164306  0.72706557  1
  O2-  O129  1  0.74864401  0.50098994  0.05683475  1
  O2-  O130  1  0.75142272  0.49928460  0.39142951  1
  O2-  O131  1  0.74821381  0.50220294  0.72451740  1
  O2-  O132  1  0.00074223  0.24866535  0.26708235  1
  O2-  O133  1  0.00417417  0.24283844  0.60746559  1
  O2-  O134  1  -0.00261985  0.25509908  0.93968550  1
  O2-  O135  1  -0.00198628  0.75101507  0.26891985  1
  O2-  O136  1  0.00017624  0.76043195  0.60914327  1
  O2-  O137  1  -0.00615789  0.75260910  0.93721507  1
  O2-  O138  1  0.49100850  0.25106203  0.27166941  1
  O2-  O139  1  0.48730778  0.24708254  0.60686411  1
  O2-  O140  1  0.49870240  0.24722060  0.94226474  1
  O2-  O141  1  0.50257899  0.74184591  0.27345871  1
  O2-  O142  1  0.50224973  0.74583837  0.59998558  1
  O2-  O143  1  0.49297197  0.75136145  0.93981322  1
  O2-  O144  1  0.07298074  0.17771716  0.09738028  1
  O2-  O145  1  0.07296561  0.18148963  0.43461023  1
  O2-  O146  1  0.07283435  0.17729839  0.75694918  1
  O2-  O147  1  0.06786761  0.68148389  0.09752578  1
  O2-  O148  1  0.07194938  0.68266101  0.43135962  1
  O2-  O149  1  0.06902800  0.67862088  0.76697501  1
  O2-  O150  1  0.57184254  0.18119030  0.08981385  1
  O2-  O151  1  0.56874133  0.17885771  0.43115342  1
  O2-  O152  1  0.57068279  0.18338712  0.76807329  1
  O2-  O153  1  0.56950303  0.67960662  0.10032822  1
  O2-  O154  1  0.57376093  0.67461591  0.42341062  1
  O2-  O155  1  0.57230464  0.67648031  0.76511358  1
  O2-  O156  1  0.17839783  0.42737003  0.24635814  1
  O2-  O157  1  0.17404137  0.43078688  0.57679143  1
  O2-  O158  1  0.18049090  0.42803646  0.90159717  1
  O2-  O159  1  0.18098164  0.92794332  0.24181853  1
  O2-  O160  1  0.17776509  0.92951296  0.56898205  1
  O2-  O161  1  0.17816825  0.93050090  0.91158631  1
  O2-  O162  1  0.67703979  0.43064923  0.24490411  1
  O2-  O163  1  0.68314774  0.42532834  0.57706464  1
  O2-  O164  1  0.67932473  0.42544474  0.91039497  1
  O2-  O165  1  0.67859539  0.92807772  0.24279423  1
  O2-  O166  1  0.68154013  0.92985040  0.56734132  1
  O2-  O167  1  0.67683319  0.92777418  0.91347363  1
  O2-  O168  1  0.43276313  0.31931683  0.09100973  1
  O2-  O169  1  0.43459531  0.33104399  0.42190761  1
  O2-  O170  1  0.43103634  0.32446357  0.75657910  1
  O2-  O171  1  0.42921547  0.82845825  0.08606923  1
  O2-  O172  1  0.43042002  0.82237768  0.43072020  1
  O2-  O173  1  0.43265367  0.81766347  0.76532887  1
  O2-  O174  1  0.92148280  0.31952971  0.08758473  1
  O2-  O175  1  0.92822328  0.31927048  0.42922891  1
  O2-  O176  1  0.92933827  0.31864524  0.76672088  1
  O2-  O177  1  0.92843441  0.82146359  0.08811724  1
  O2-  O178  1  0.92217451  0.81852759  0.43275366  1
  O2-  O179  1  0.92469071  0.82006347  0.75900285  1
  O2-  O180  1  0.32245379  0.06852538  0.23069875  1
  O2-  O181  1  0.32192273  0.06854263  0.56819545  1
  O2-  O182  1  0.32412642  0.07140059  0.90970790  1
  O2-  O183  1  0.32101276  0.56987833  0.23581279  1
  O2-  O184  1  0.31972237  0.56963637  0.56742924  1
  O2-  O185  1  0.32318677  0.56942482  0.90240641  1
  O2-  O186  1  0.81935390  0.07080635  0.23517578  1
  O2-  O187  1  0.81883229  0.07681698  0.57760994  1
  O2-  O188  1  0.81551084  0.07058786  0.90086528  1
  O2-  O189  1  0.81787751  0.57095312  0.24246307  1
  O2-  O190  1  0.82252235  0.56800082  0.57579711  1
  O2-  O191  1  0.81999453  0.57016043  0.90902484  1
  O2-  O192  1  0.04788314  0.07993557  0.26920172  1
  O2-  O193  1  0.05102270  0.08066473  0.60743199  1
  O2-  O194  1  0.03814728  0.08334363  0.92994876  1
  O2-  O195  1  0.04396250  0.58215862  0.26510235  1
  O2-  O196  1  0.03718313  0.58753969  0.59726376  1
  O2-  O197  1  0.03814548  0.58190855  0.93233270  1
  O2-  O198  1  0.54087638  0.08373380  0.25943842  1
  O2-  O199  1  0.54354226  0.08141583  0.60114674  1
  O2-  O200  1  0.54699289  0.08583224  0.93963236  1
  O2-  O201  1  0.54731284  0.57997732  0.27392125  1
  O2-  O202  1  0.55186911  0.57424536  0.60177810  1
  O2-  O203  1  0.54332777  0.57949837  0.93462692  1
  O2-  O204  1  0.17285233  0.20926527  0.26868948  1
  O2-  O205  1  0.16821283  0.20177219  0.60652023  1
  O2-  O206  1  0.16911004  0.20841120  0.93042017  1
  O2-  O207  1  0.16820658  0.71166313  0.26231100  1
  O2-  O208  1  0.16813014  0.71166225  0.60120280  1
  O2-  O209  1  0.16679817  0.71278362  0.93315727  1
  O2-  O210  1  0.66225792  0.21568232  0.26314824  1
  O2-  O211  1  0.66144433  0.21653188  0.59869423  1
  O2-  O212  1  0.66242392  0.21160122  0.93772595  1
  O2-  O213  1  0.66471490  0.70012217  0.27051838  1
  O2-  O214  1  0.67500696  0.70178306  0.60249642  1
  O2-  O215  1  0.66596174  0.70805348  0.93262665  1
  O2-  O216  1  0.07544693  0.44911198  0.06542278  1
  O2-  O217  1  0.07981627  0.45151688  0.39435491  1
  O2-  O218  1  0.08143505  0.45752858  0.72793880  1
  O2-  O219  1  0.08640395  0.95860760  0.06281531  1
  O2-  O220  1  0.08371234  0.94734938  0.39344750  1
  O2-  O221  1  0.07829787  0.95198210  0.73821433  1
  O2-  O222  1  0.58772257  0.45538708  0.06483294  1
  O2-  O223  1  0.58887691  0.45572395  0.40085282  1
  O2-  O224  1  0.58858908  0.45044564  0.73116401  1
  O2-  O225  1  0.58271374  0.95363571  0.06408182  1
  O2-  O226  1  0.58546399  0.95723998  0.39260655  1
  O2-  O227  1  0.58714809  0.96110395  0.73812224  1
  O2-  O228  1  0.21131329  0.33104910  0.06861262  1
  O2-  O229  1  0.20438269  0.33745625  0.40112479  1
  O2-  O230  1  0.19617656  0.33473127  0.72812256  1
  O2-  O231  1  0.20645258  0.83987868  0.06507563  1
  O2-  O232  1  0.21046290  0.83699423  0.39355863  1
  O2-  O233  1  0.21223095  0.83335442  0.73770990  1
  O2-  O234  1  0.70780391  0.33810116  0.06552141  1
  O2-  O235  1  0.70723530  0.33693326  0.39723586  1
  O2-  O236  1  0.71317017  0.33800107  0.73173274  1
  O2-  O237  1  0.70042187  0.83246481  0.06472041  1
  O2-  O238  1  0.70007435  0.83196929  0.39401227  1
  O2-  O239  1  0.71157234  0.83167758  0.73721031  1
  O2-  O240  1  0.46368255  0.41537196  0.26740848  1
  O2-  O241  1  0.46098158  0.41189670  0.60199998  1
  O2-  O242  1  0.46122522  0.41040147  0.93794447  1
  O2-  O243  1  0.46449350  0.91253435  0.25827175  1
  O2-  O244  1  0.46275823  0.91707473  0.60074157  1
  O2-  O245  1  0.45765849  0.91643223  0.93267184  1
  O2-  O246  1  0.95225769  0.41929800  0.26252517  1
  O2-  O247  1  0.96005973  0.41379993  0.59599119  1
  O2-  O248  1  0.94731005  0.41589684  0.93698320  1
  O2-  O249  1  0.95363988  0.92026620  0.26623955  1
  O2-  O250  1  0.94581224  0.92072280  0.61077482  1
  O2-  O251  1  0.95314908  0.91557820  0.93655961  1
  O2-  O252  1  0.33294500  0.30725847  0.27429622  1
  O2-  O253  1  0.32926686  0.30844899  0.60746310  1
  O2-  O254  1  0.33861824  0.29427397  0.93726984  1
  O2-  O255  1  0.33529715  0.79105667  0.26109489  1
  O2-  O256  1  0.33282433  0.79193308  0.59932913  1
  O2-  O257  1  0.33180090  0.80426276  0.93705359  1
  O2-  O258  1  0.82844810  0.29432402  0.26397483  1
  O2-  O259  1  0.83422782  0.29035008  0.59814536  1
  O2-  O260  1  0.83264740  0.29207068  0.93579266  1
  O2-  O261  1  0.82814386  0.79239941  0.26350484  1
  O2-  O262  1  0.83623679  0.79360860  0.60549382  1
  O2-  O263  1  0.83186500  0.79843769  0.93931672  1
  O2-  O264  1  0.41483338  0.04276499  0.06105862  1
  O2-  O265  1  0.41920237  0.03526658  0.39438652  1
  O2-  O266  1  0.41926593  0.04120620  0.73613853  1
  O2-  O267  1  0.41803062  0.53912790  0.06914367  1
  O2-  O268  1  0.41545778  0.53818070  0.40294597  1
  O2-  O269  1  0.41850210  0.53663046  0.73328111  1
  O2-  O270  1  0.91686358  0.04011601  0.06689319  1
  O2-  O271  1  0.91894397  0.04342634  0.40299048  1
  O2-  O272  1  0.91639103  0.05612659  0.72818040  1
  O2-  O273  1  0.91086593  0.54353948  0.06309230  1
  O2-  O274  1  0.91393413  0.54392248  0.39394878  1
  O2-  O275  1  0.91267723  0.53574864  0.72822503  1
  O2-  O276  1  0.29732300  0.16424970  0.06074499  1
  O2-  O277  1  0.30196681  0.17109900  0.39826372  1
  O2-  O278  1  0.30089089  0.17426562  0.73231348  1
  O2-  O279  1  0.29625624  0.67414228  0.06513269  1
  O2-  O280  1  0.28994320  0.67043179  0.39950281  1
  O2-  O281  1  0.29181299  0.66584352  0.73497669  1
  O2-  O282  1  0.78662444  0.16574975  0.06910024  1
  O2-  O283  1  0.78619337  0.16723806  0.40000148  1
  O2-  O284  1  0.78815267  0.16661584  0.72975209  1
  O2-  O285  1  0.79177716  0.66356970  0.06167787  1
  O2-  O286  1  0.79264115  0.66233653  0.39607807  1
  O2-  O287  1  0.80028678  0.66146080  0.73093011  1
