# generated using pymatgen
data_Ca2Al2SiO7
_symmetry_space_group_name_H-M   'P 1'
_cell_length_a   15.45913106
_cell_length_b   15.45880460
_cell_length_c   15.28531424
_cell_angle_alpha   90.00823163
_cell_angle_beta   90.00513315
_cell_angle_gamma   89.99033404
_symmetry_Int_Tables_number   1
_chemical_formula_structural   Ca2Al2SiO7
_chemical_formula_sum   'Ca48 Al48 Si24 O168'
_cell_volume   3652.87949971
_cell_formula_units_Z   24
loop_
 _symmetry_equiv_pos_site_id
 _symmetry_equiv_pos_as_xyz
  1  'x, y, z'
loop_
 _atom_type_symbol
 _atom_type_oxidation_number
  Ca2+  2.0
  Al0+  0.0
  Si0+  0.0
  O2-  -2.0
loop_
 _atom_site_type_symbol
 _atom_site_label
 _atom_site_symmetry_multiplicity
 _atom_site_fract_x
 _atom_site_fract_y
 _atom_site_fract_z
 _atom_site_occupancy
  Ca2+  Ca0  1  0.15851376  0.07219579  0.17099805  1
  Ca2+  Ca1  1  0.16771379  0.07403415  0.50717932  1
  Ca2+  Ca2  1  0.16962668  0.07180789  0.83752453  1
  Ca2+  Ca3  1  0.17433753  0.58284798  0.16432816  1
  Ca2+  Ca4  1  0.17033867  0.58210871  0.50610249  1
  Ca2+  Ca5  1  0.16651035  0.57944041  0.84123741  1
  Ca2+  Ca6  1  0.67379059  0.09344445  0.16432916  1
  Ca2+  Ca7  1  0.66864397  0.08145660  0.50473446  1
  Ca2+  Ca8  1  0.67228929  0.08397144  0.84348481  1
  Ca2+  Ca9  1  0.66085239  0.57188570  0.16783758  1
  Ca2+  Ca10  1  0.66791634  0.58011954  0.50247532  1
  Ca2+  Ca11  1  0.66488454  0.58243142  0.84289907  1
  Ca2+  Ca12  1  0.07408635  0.33383276  0.15861765  1
  Ca2+  Ca13  1  0.07596770  0.33201515  0.49327243  1
  Ca2+  Ca14  1  0.07385591  0.34634437  0.82755026  1
  Ca2+  Ca15  1  0.08540709  0.83068013  0.15636901  1
  Ca2+  Ca16  1  0.09689914  0.83007832  0.49929057  1
  Ca2+  Ca17  1  0.09232958  0.82526238  0.83467067  1
  Ca2+  Ca18  1  0.58086050  0.33627341  0.15422773  1
  Ca2+  Ca19  1  0.58256709  0.33350383  0.49508053  1
  Ca2+  Ca20  1  0.57691772  0.33423505  0.83981595  1
  Ca2+  Ca21  1  0.57365615  0.82516748  0.15873394  1
  Ca2+  Ca22  1  0.56914748  0.82934606  0.49750868  1
  Ca2+  Ca23  1  0.57999874  0.81856594  0.82494962  1
  Ca2+  Ca24  1  0.33779582  0.42887204  0.16594156  1
  Ca2+  Ca25  1  0.32532833  0.42360428  0.50607427  1
  Ca2+  Ca26  1  0.32042710  0.42067683  0.84521765  1
  Ca2+  Ca27  1  0.32174211  0.91107418  0.17203199  1
  Ca2+  Ca28  1  0.32897087  0.91844156  0.50717525  1
  Ca2+  Ca29  1  0.32825762  0.91404074  0.83315419  1
  Ca2+  Ca30  1  0.82421256  0.40586938  0.16771335  1
  Ca2+  Ca31  1  0.83166158  0.40892866  0.50181174  1
  Ca2+  Ca32  1  0.83040409  0.41373802  0.84147995  1
  Ca2+  Ca33  1  0.83847709  0.92249627  0.16507336  1
  Ca2+  Ca34  1  0.83124814  0.91901225  0.50484298  1
  Ca2+  Ca35  1  0.83693361  0.92339265  0.84518604  1
  Ca2+  Ca36  1  0.42536141  0.17640575  0.15581112  1
  Ca2+  Ca37  1  0.41356049  0.16448225  0.49851091  1
  Ca2+  Ca38  1  0.41609053  0.16721765  0.83298035  1
  Ca2+  Ca39  1  0.41306811  0.66577785  0.16095751  1
  Ca2+  Ca40  1  0.40990826  0.67727895  0.49679906  1
  Ca2+  Ca41  1  0.42359762  0.66502631  0.83080196  1
  Ca2+  Ca42  1  0.92053437  0.17345696  0.16246472  1
  Ca2+  Ca43  1  0.92578561  0.17628991  0.49319417  1
  Ca2+  Ca44  1  0.91599144  0.17597255  0.83438446  1
  Ca2+  Ca45  1  0.92477828  0.67518130  0.15490175  1
  Ca2+  Ca46  1  0.92592065  0.66752088  0.49968263  1
  Ca2+  Ca47  1  0.93117591  0.66755634  0.83210543  1
  Al0+  Al48  1  -0.00125896  0.00263174  0.00551882  1
  Al0+  Al49  1  -0.00072745  -0.00027725  0.33775154  1
  Al0+  Al50  1  -0.00049967  0.00106423  0.67176176  1
  Al0+  Al51  1  -0.00086294  0.50152953  -0.00236850  1
  Al0+  Al52  1  -0.00214205  0.50131031  0.32767585  1
  Al0+  Al53  1  -0.00321300  0.50224295  0.65921251  1
  Al0+  Al54  1  0.50060482  -0.00008922  -0.00289599  1
  Al0+  Al55  1  0.49931379  -0.00172893  0.32723569  1
  Al0+  Al56  1  0.50170083  -0.00030475  0.66727058  1
  Al0+  Al57  1  0.49928518  0.49977314  -0.00164776  1
  Al0+  Al58  1  0.50127849  0.50031978  0.34538889  1
  Al0+  Al59  1  0.50184909  0.49682744  0.66225612  1
  Al0+  Al60  1  0.24836387  0.24883184  0.00136424  1
  Al0+  Al61  1  0.25105409  0.24888094  0.32765476  1
  Al0+  Al62  1  0.24929712  0.24934795  0.67398573  1
  Al0+  Al63  1  0.25019013  0.74996150  0.00322686  1
  Al0+  Al64  1  0.25084525  0.75036051  0.33665770  1
  Al0+  Al65  1  0.25146735  0.74955684  0.66332442  1
  Al0+  Al66  1  0.75107886  0.24902895  -0.00007828  1
  Al0+  Al67  1  0.75039453  0.24946566  0.33761774  1
  Al0+  Al68  1  0.74936333  0.25023795  0.66265425  1
  Al0+  Al69  1  0.74935060  0.75215527  -0.00545611  1
  Al0+  Al70  1  0.74958721  0.74841982  0.33477198  1
  Al0+  Al71  1  0.75080706  0.74810606  0.66191381  1
  Al0+  Al72  1  0.68164586  0.43150335  0.01095476  1
  Al0+  Al73  1  0.92870887  0.32110792  0.31593689  1
  Al0+  Al74  1  0.92946805  0.82468372  0.98637570  1
  Al0+  Al75  1  0.17669858  0.43107446  0.67757033  1
  Al0+  Al76  1  0.93082455  0.32020835  0.98591892  1
  Al0+  Al77  1  0.81929854  0.07068451  0.01494210  1
  Al0+  Al78  1  0.07072031  0.68093211  0.65172389  1
  Al0+  Al79  1  0.68146834  0.42887732  0.34884682  1
  Al0+  Al80  1  0.17890119  0.92690446  0.68401402  1
  Al0+  Al81  1  0.07223593  0.68027452  0.98586107  1
  Al0+  Al82  1  0.32364940  0.07164728  0.68287154  1
  Al0+  Al83  1  0.42853735  0.81951845  0.31715461  1
  Al0+  Al84  1  0.57157556  0.17909205  0.98496613  1
  Al0+  Al85  1  0.07262504  0.17704564  0.31857301  1
  Al0+  Al86  1  0.42658359  0.32183466  0.98522557  1
  Al0+  Al87  1  0.31952595  0.56975401  0.34964222  1
  Al0+  Al88  1  0.32074860  0.56955330  0.01312938  1
  Al0+  Al89  1  0.43072127  0.82048663  0.65141990  1
  Al0+  Al90  1  0.57349867  0.67482124  0.64811174  1
  Al0+  Al91  1  0.92893572  0.32027039  0.65179734  1
  Al0+  Al92  1  0.56988459  0.67870305  0.98865444  1
  Al0+  Al93  1  0.17421090  0.42682109  0.01566904  1
  Al0+  Al94  1  0.18197848  0.93167340  0.01475191  1
  Al0+  Al95  1  0.17901304  0.93099841  0.34817570  1
  Si0+  Si96  1  0.57075952  0.17845571  0.31999669  1
  Si0+  Si97  1  0.07132883  0.68094336  0.31822929  1
  Si0+  Si98  1  0.17600075  0.42679219  0.34763319  1
  Si0+  Si99  1  0.82224714  0.57559008  0.01524335  1
  Si0+  Si100  1  0.57076851  0.18006285  0.65081167  1
  Si0+  Si101  1  0.32345507  0.57043072  0.68261821  1
  Si0+  Si102  1  0.32478707  0.07297069  0.34715830  1
  Si0+  Si103  1  0.42652609  0.31962028  0.65104252  1
  Si0+  Si104  1  0.82358563  0.57456899  0.35090622  1
  Si0+  Si105  1  0.57220674  0.67709711  0.31667725  1
  Si0+  Si106  1  0.92592518  0.82093071  0.32015541  1
  Si0+  Si107  1  0.32550531  0.07315376  0.01894768  1
  Si0+  Si108  1  0.07226819  0.17670231  0.98261564  1
  Si0+  Si109  1  0.67711983  0.92696803  0.34784946  1
  Si0+  Si110  1  0.81912272  0.06944747  0.35139161  1
  Si0+  Si111  1  0.42674615  0.82223766  0.98331447  1
  Si0+  Si112  1  0.81962896  0.57127500  0.68166302  1
  Si0+  Si113  1  0.92806541  0.82475593  0.64988937  1
  Si0+  Si114  1  0.67624026  0.92591539  0.01676316  1
  Si0+  Si115  1  0.07273065  0.17670865  0.65216385  1
  Si0+  Si116  1  0.68067885  0.92799461  0.68040631  1
  Si0+  Si117  1  0.67933604  0.42704734  0.68324263  1
  Si0+  Si118  1  0.43029677  0.32326929  0.32088525  1
  Si0+  Si119  1  0.81916224  0.07177464  0.68130559  1
  O2-  O120  1  0.25679227  0.00528122  0.06393703  1
  O2-  O121  1  0.25264359  0.00846328  0.39180480  1
  O2-  O122  1  0.25168621  -0.00065131  0.73194554  1
  O2-  O123  1  0.24966003  0.49637236  0.06408457  1
  O2-  O124  1  0.24412199  0.49449520  0.39447886  1
  O2-  O125  1  0.25304620  0.50339820  0.72544540  1
  O2-  O126  1  0.74387966  -0.00439437  0.06183602  1
  O2-  O127  1  0.74801000  -0.00250014  0.39251105  1
  O2-  O128  1  0.75381283  -0.00410276  0.72335016  1
  O2-  O129  1  0.75440819  0.50664500  0.06039621  1
  O2-  O130  1  0.75799615  0.50234873  0.39495612  1
  O2-  O131  1  0.74624875  0.50234039  0.72352756  1
  O2-  O132  1  0.00491621  0.25286063  0.26775587  1
  O2-  O133  1  0.00709259  0.24822273  0.60713920  1
  O2-  O134  1  0.01163906  0.25266541  0.93801440  1
  O2-  O135  1  -0.00182951  0.75138728  0.27883039  1
  O2-  O136  1  0.00059124  0.76096541  0.60446308  1
  O2-  O137  1  0.00016205  0.75265035  0.93567046  1
  O2-  O138  1  0.50009771  0.25017138  0.27996863  1
  O2-  O139  1  0.49678142  0.24738699  0.60780388  1
  O2-  O140  1  0.49547829  0.24629302  0.93470672  1
  O2-  O141  1  0.50293382  0.74402679  0.27158437  1
  O2-  O142  1  0.49924911  0.74519800  0.59976227  1
  O2-  O143  1  0.49843558  0.75581953  0.94107337  1
  O2-  O144  1  0.06702714  0.17386372  0.08818303  1
  O2-  O145  1  0.06964666  0.17663733  0.43272451  1
  O2-  O146  1  0.06887997  0.17393522  0.75727768  1
  O2-  O147  1  0.07181155  0.68266536  0.10000787  1
  O2-  O148  1  0.07033564  0.68099930  0.42367505  1
  O2-  O149  1  0.06845912  0.67839407  0.76392714  1
  O2-  O150  1  0.57206906  0.18247483  0.09925403  1
  O2-  O151  1  0.57068095  0.17710380  0.42568681  1
  O2-  O152  1  0.57524515  0.18185215  0.75499826  1
  O2-  O153  1  0.56920024  0.67924018  0.10199736  1
  O2-  O154  1  0.57374772  0.68038838  0.42206055  1
  O2-  O155  1  0.57463574  0.67625536  0.76162854  1
  O2-  O156  1  0.17687984  0.42886327  0.24267848  1
  O2-  O157  1  0.17929271  0.43135708  0.56372975  1
  O2-  O158  1  0.17357781  0.43180954  0.90170663  1
  O2-  O159  1  0.17850238  0.92973611  0.23523291  1
  O2-  O160  1  0.17901322  0.93067214  0.57014770  1
  O2-  O161  1  0.18368504  0.93068869  0.90209479  1
  O2-  O162  1  0.67932713  0.42836727  0.23608103  1
  O2-  O163  1  0.68164471  0.42398974  0.57792472  1
  O2-  O164  1  0.68250691  0.43199867  0.89765061  1
  O2-  O165  1  0.67870155  0.92636124  0.24329392  1
  O2-  O166  1  0.68150229  0.93181429  0.57458855  1
  O2-  O167  1  0.67756654  0.92633675  0.91097475  1
  O2-  O168  1  0.43256999  0.32308954  0.09956181  1
  O2-  O169  1  0.43043676  0.32114168  0.42649084  1
  O2-  O170  1  0.42924059  0.32172637  0.75536057  1
  O2-  O171  1  0.42735558  0.82140069  0.08930486  1
  O2-  O172  1  0.43080571  0.82176170  0.42990286  1
  O2-  O173  1  0.43474014  0.82033639  0.76485440  1
  O2-  O174  1  0.92766849  0.31642502  0.09866761  1
  O2-  O175  1  0.92833120  0.31763771  0.43001143  1
  O2-  O176  1  0.92512755  0.31838490  0.76450282  1
  O2-  O177  1  0.93088625  0.82264168  0.10088035  1
  O2-  O178  1  0.92256431  0.81965702  0.42537678  1
  O2-  O179  1  0.92312865  0.82286053  0.75455827  1
  O2-  O180  1  0.32930516  0.07078191  0.24222802  1
  O2-  O181  1  0.32349952  0.07215434  0.56860768  1
  O2-  O182  1  0.32554423  0.07080674  0.91349818  1
  O2-  O183  1  0.32119214  0.56892603  0.23705813  1
  O2-  O184  1  0.32173142  0.56813823  0.57648654  1
  O2-  O185  1  0.32133388  0.56949734  0.89949589  1
  O2-  O186  1  0.81804442  0.07007769  0.24671509  1
  O2-  O187  1  0.81602604  0.07142004  0.57571801  1
  O2-  O188  1  0.81732047  0.07085928  0.90135257  1
  O2-  O189  1  0.82151370  0.58106761  0.24612888  1
  O2-  O190  1  0.81980943  0.57082157  0.57626697  1
  O2-  O191  1  0.82074599  0.57439934  0.90935385  1
  O2-  O192  1  0.03621190  0.07972948  0.26732045  1
  O2-  O193  1  0.04238132  0.08438837  0.60469345  1
  O2-  O194  1  0.03665836  0.08711534  0.93529104  1
  O2-  O195  1  0.04536094  0.58923085  0.27040619  1
  O2-  O196  1  0.03297147  0.58856890  0.59308928  1
  O2-  O197  1  0.04172260  0.58347792  0.93149567  1
  O2-  O198  1  0.54543560  0.08749086  0.27035203  1
  O2-  O199  1  0.54759913  0.08694434  0.60323522  1
  O2-  O200  1  0.54920864  0.07858408  0.93256286  1
  O2-  O201  1  0.54673347  0.58121950  0.27635777  1
  O2-  O202  1  0.54995876  0.57437766  0.59670639  1
  O2-  O203  1  0.53868729  0.58427759  0.93185428  1
  O2-  O204  1  0.17335094  0.19578696  0.26616071  1
  O2-  O205  1  0.16808364  0.19884078  0.60844560  1
  O2-  O206  1  0.16938576  0.19033636  0.94081197  1
  O2-  O207  1  0.16211247  0.71140340  0.27223642  1
  O2-  O208  1  0.16823853  0.70678351  0.59689941  1
  O2-  O209  1  0.17018833  0.70995391  0.93312932  1
  O2-  O210  1  0.66334569  0.20621107  0.27537141  1
  O2-  O211  1  0.66005631  0.21168365  0.59924513  1
  O2-  O212  1  0.66799678  0.21088083  0.93106411  1
  O2-  O213  1  0.66603959  0.70332091  0.27129941  1
  O2-  O214  1  0.67133477  0.70584148  0.59424062  1
  O2-  O215  1  0.66603608  0.70756834  0.93233402  1
  O2-  O216  1  0.07681914  0.45910111  0.06887833  1
  O2-  O217  1  0.08093496  0.45268677  0.39140014  1
  O2-  O218  1  0.07902860  0.46403365  0.72756916  1
  O2-  O219  1  0.08528373  0.96305669  0.06852861  1
  O2-  O220  1  0.08131624  0.95742689  0.40364025  1
  O2-  O221  1  0.07930413  0.95446534  0.73564135  1
  O2-  O222  1  0.58515564  0.46159428  0.06522694  1
  O2-  O223  1  0.58717655  0.45933764  0.40803220  1
  O2-  O224  1  0.58495472  0.44963262  0.72746130  1
  O2-  O225  1  0.58176797  0.94998693  0.06216899  1
  O2-  O226  1  0.58584929  0.95810696  0.39482227  1
  O2-  O227  1  0.59098983  0.95814982  0.72871428  1
  O2-  O228  1  0.19627003  0.32566920  0.06567391  1
  O2-  O229  1  0.20191353  0.33190816  0.39178486  1
  O2-  O230  1  0.20273352  0.33413446  0.73210239  1
  O2-  O231  1  0.21201448  0.83519612  0.06948333  1
  O2-  O232  1  0.21334854  0.83574287  0.40200204  1
  O2-  O233  1  0.20885920  0.82767053  0.73401855  1
  O2-  O234  1  0.71282807  0.33527315  0.06512329  1
  O2-  O235  1  0.71063890  0.33187589  0.40523960  1
  O2-  O236  1  0.71134873  0.33603721  0.72938749  1
  O2-  O237  1  0.70258241  0.83295423  0.06407086  1
  O2-  O238  1  0.70524293  0.83574666  0.39684702  1
  O2-  O239  1  0.70586874  0.83420556  0.72455760  1
  O2-  O240  1  0.46288883  0.41474226  0.27669603  1
  O2-  O241  1  0.45686565  0.40950812  0.60064420  1
  O2-  O242  1  0.46042189  0.41689288  0.92973594  1
  O2-  O243  1  0.46048690  0.91508213  0.26145882  1
  O2-  O244  1  0.46427318  0.91827115  0.59795470  1
  O2-  O245  1  0.44912053  0.91668103  0.93836197  1
  O2-  O246  1  0.94775901  0.42235347  0.26511230  1
  O2-  O247  1  0.95469206  0.41700338  0.59602512  1
  O2-  O248  1  0.95353798  0.41914807  0.93285233  1
  O2-  O249  1  0.95144650  0.91425080  0.27599272  1
  O2-  O250  1  0.94774098  0.92109094  0.60587443  1
  O2-  O251  1  0.95627467  0.92402622  0.93564859  1
  O2-  O252  1  0.33860128  0.29995629  0.27187580  1
  O2-  O253  1  0.33415354  0.29247371  0.60405442  1
  O2-  O254  1  0.32649324  0.29662919  0.93427306  1
  O2-  O255  1  0.33204354  0.78672707  0.26500622  1
  O2-  O256  1  0.33225231  0.79477723  0.59730169  1
  O2-  O257  1  0.33504488  0.79315362  0.93730392  1
  O2-  O258  1  0.83025821  0.28572131  0.26716760  1
  O2-  O259  1  0.83386615  0.28426709  0.59616928  1
  O2-  O260  1  0.83656551  0.28324336  0.93142912  1
  O2-  O261  1  0.83448828  0.79318986  0.27164931  1
  O2-  O262  1  0.83648151  0.79497595  0.60039527  1
  O2-  O263  1  0.83013691  0.80108552  0.93334351  1
  O2-  O264  1  0.42056333  0.04889609  0.06362201  1
  O2-  O265  1  0.41778837  0.04395144  0.39458871  1
  O2-  O266  1  0.42352767  0.04487015  0.73453487  1
  O2-  O267  1  0.41819958  0.53983451  0.06811277  1
  O2-  O268  1  0.41488714  0.54014329  0.40681912  1
  O2-  O269  1  0.41803825  0.54250201  0.72521548  1
  O2-  O270  1  0.91363231  0.04010527  0.07314880  1
  O2-  O271  1  0.90942486  0.04052331  0.40107956  1
  O2-  O272  1  0.91189062  0.05062205  0.72883599  1
  O2-  O273  1  0.91571809  0.55156878  0.06102480  1
  O2-  O274  1  0.91859985  0.55111336  0.39593545  1
  O2-  O275  1  0.91048149  0.54095809  0.72826464  1
  O2-  O276  1  0.30260501  0.16774015  0.06381946  1
  O2-  O277  1  0.30448562  0.16893618  0.39188487  1
  O2-  O278  1  0.29691225  0.16944073  0.73773220  1
  O2-  O279  1  0.29192427  0.66692449  0.06846155  1
  O2-  O280  1  0.28598112  0.66517401  0.40406549  1
  O2-  O281  1  0.30168607  0.66552221  0.72508971  1
  O2-  O282  1  0.78526003  0.16507077  0.07129081  1
  O2-  O283  1  0.78864298  0.15937194  0.40122723  1
  O2-  O284  1  0.78415367  0.16166201  0.72761097  1
  O2-  O285  1  0.79690293  0.66987782  0.06044845  1
  O2-  O286  1  0.79457977  0.66619533  0.40141759  1
  O2-  O287  1  0.79475808  0.66437725  0.72800494  1
