# generated using pymatgen
data_Ca2Al2SiO7
_symmetry_space_group_name_H-M   'P 1'
_cell_length_a   15.45867740
_cell_length_b   15.45961285
_cell_length_c   15.28430653
_cell_angle_alpha   89.99699175
_cell_angle_beta   89.98950616
_cell_angle_gamma   90.00003759
_symmetry_Int_Tables_number   1
_chemical_formula_structural   Ca2Al2SiO7
_chemical_formula_sum   'Ca48 Al48 Si24 O168'
_cell_volume   3652.72249528
_cell_formula_units_Z   24
loop_
 _symmetry_equiv_pos_site_id
 _symmetry_equiv_pos_as_xyz
  1  'x, y, z'
loop_
 _atom_type_symbol
 _atom_type_oxidation_number
  Ca2+  2.0
  Al0+  0.0
  Si0+  0.0
  O2-  -2.0
loop_
 _atom_site_type_symbol
 _atom_site_label
 _atom_site_symmetry_multiplicity
 _atom_site_fract_x
 _atom_site_fract_y
 _atom_site_fract_z
 _atom_site_occupancy
  Ca2+  Ca0  1  0.16393585  0.07771798  0.17274458  1
  Ca2+  Ca1  1  0.17085158  0.07307767  0.50449717  1
  Ca2+  Ca2  1  0.16910433  0.08244132  0.83599172  1
  Ca2+  Ca3  1  0.16840419  0.58270119  0.16733268  1
  Ca2+  Ca4  1  0.16846770  0.58122989  0.50592232  1
  Ca2+  Ca5  1  0.17421267  0.59759234  0.83731029  1
  Ca2+  Ca6  1  0.67330342  0.07772531  0.17762094  1
  Ca2+  Ca7  1  0.66707706  0.07426358  0.50056011  1
  Ca2+  Ca8  1  0.66684676  0.07341524  0.83399336  1
  Ca2+  Ca9  1  0.68161681  0.58424614  0.17040231  1
  Ca2+  Ca10  1  0.67506769  0.58495458  0.50946191  1
  Ca2+  Ca11  1  0.67726218  0.59168831  0.83265485  1
  Ca2+  Ca12  1  0.08192515  0.32763075  0.15884472  1
  Ca2+  Ca13  1  0.08535505  0.33369014  0.49510479  1
  Ca2+  Ca14  1  0.07970282  0.33153354  0.83585603  1
  Ca2+  Ca15  1  0.07260763  0.83264110  0.15966341  1
  Ca2+  Ca16  1  0.07464259  0.82791967  0.49623493  1
  Ca2+  Ca17  1  0.07124307  0.82073250  0.82841261  1
  Ca2+  Ca18  1  0.58091330  0.32602850  0.16202520  1
  Ca2+  Ca19  1  0.58633327  0.32903040  0.49512000  1
  Ca2+  Ca20  1  0.58022981  0.33915178  0.82841346  1
  Ca2+  Ca21  1  0.57873538  0.83575949  0.16331899  1
  Ca2+  Ca22  1  0.58399619  0.83593004  0.50154443  1
  Ca2+  Ca23  1  0.57554281  0.82718457  0.82370385  1
  Ca2+  Ca24  1  0.32934085  0.41895367  0.16718302  1
  Ca2+  Ca25  1  0.32580249  0.42121657  0.50579385  1
  Ca2+  Ca26  1  0.33639745  0.43151589  0.83980813  1
  Ca2+  Ca27  1  0.32425076  0.91304153  0.17102706  1
  Ca2+  Ca28  1  0.32919550  0.91780717  0.50832567  1
  Ca2+  Ca29  1  0.34058131  0.91828857  0.83697100  1
  Ca2+  Ca30  1  0.84787942  0.42994327  0.16762950  1
  Ca2+  Ca31  1  0.82834385  0.43047853  0.50804884  1
  Ca2+  Ca32  1  0.83048760  0.42629811  0.83761914  1
  Ca2+  Ca33  1  0.83374806  0.91963758  0.17835751  1
  Ca2+  Ca34  1  0.82623017  0.91230505  0.50281508  1
  Ca2+  Ca35  1  0.82900699  0.90146337  0.83356801  1
  Ca2+  Ca36  1  0.42378925  0.17168113  0.16178624  1
  Ca2+  Ca37  1  0.42261317  0.16275815  0.49608954  1
  Ca2+  Ca38  1  0.41277729  0.17400562  0.82870066  1
  Ca2+  Ca39  1  0.41788270  0.67170230  0.15656575  1
  Ca2+  Ca40  1  0.42196349  0.66426019  0.50458670  1
  Ca2+  Ca41  1  0.41526095  0.67398313  0.82294937  1
  Ca2+  Ca42  1  0.92122045  0.17096052  0.15796531  1
  Ca2+  Ca43  1  0.91115711  0.16902910  0.49393217  1
  Ca2+  Ca44  1  0.92014309  0.17099244  0.83467367  1
  Ca2+  Ca45  1  0.91806012  0.67467798  0.15868057  1
  Ca2+  Ca46  1  0.90830331  0.67455480  0.49817009  1
  Ca2+  Ca47  1  0.92184345  0.66547839  0.82624179  1
  Al0+  Al48  1  -0.00046232  -0.00053451  -0.00881979  1
  Al0+  Al49  1  0.00087770  0.00069004  0.33851233  1
  Al0+  Al50  1  0.00065535  0.00136672  0.66361646  1
  Al0+  Al51  1  0.00195462  0.49855761  -0.00306935  1
  Al0+  Al52  1  0.00255111  0.50103209  0.34254125  1
  Al0+  Al53  1  -0.00028675  0.49668876  0.66632637  1
  Al0+  Al54  1  0.50007054  0.00057683  -0.00063604  1
  Al0+  Al55  1  0.50084168  0.00105694  0.32947651  1
  Al0+  Al56  1  0.50024015  0.00191768  0.67204897  1
  Al0+  Al57  1  0.50147083  0.49883580  0.00331928  1
  Al0+  Al58  1  0.50006232  0.50140080  0.32979682  1
  Al0+  Al59  1  0.49636336  0.49939064  0.66679890  1
  Al0+  Al60  1  0.25333910  0.24943707  -0.00627818  1
  Al0+  Al61  1  0.25023199  0.25202809  0.33629363  1
  Al0+  Al62  1  0.24972685  0.24839804  0.66913361  1
  Al0+  Al63  1  0.25005540  0.75257587  -0.00046888  1
  Al0+  Al64  1  0.25044161  0.74942135  0.33807550  1
  Al0+  Al65  1  0.24668661  0.75066740  0.66147597  1
  Al0+  Al66  1  0.75001646  0.24740253  -0.00349691  1
  Al0+  Al67  1  0.74973274  0.25082592  0.32872596  1
  Al0+  Al68  1  0.74966350  0.24918053  0.67048643  1
  Al0+  Al69  1  0.74699405  0.74932953  0.00505991  1
  Al0+  Al70  1  0.74906396  0.75088737  0.33493058  1
  Al0+  Al71  1  0.74864956  0.75016874  0.66839122  1
  Al0+  Al72  1  0.92531880  0.82054333  0.98614357  1
  Al0+  Al73  1  0.92811786  0.32201000  0.98478854  1
  Al0+  Al74  1  0.32162314  0.57354112  0.01380220  1
  Al0+  Al75  1  0.31691603  0.57104369  0.67963737  1
  Al0+  Al76  1  0.82211277  0.07365973  0.34653389  1
  Al0+  Al77  1  0.82056634  0.57115984  0.68300853  1
  Al0+  Al78  1  0.43145863  0.32149083  0.98559859  1
  Al0+  Al79  1  0.07117006  0.67868286  0.98777584  1
  Al0+  Al80  1  0.32059278  0.06930189  0.68102411  1
  Al0+  Al81  1  0.18088328  0.42929225  0.34592092  1
  Al0+  Al82  1  0.92787649  0.82076258  0.64918080  1
  Al0+  Al83  1  0.68061628  0.93001463  0.68191285  1
  Al0+  Al84  1  0.56921079  0.67788608  0.65182141  1
  Al0+  Al85  1  0.67753182  0.42690875  0.68057816  1
  Al0+  Al86  1  0.67758969  0.92940039  0.34829832  1
  Al0+  Al87  1  0.07055409  0.67560092  0.64888898  1
  Al0+  Al88  1  0.17831804  0.92776454  0.34685697  1
  Al0+  Al89  1  0.42871949  0.82403339  0.65057833  1
  Al0+  Al90  1  0.57112734  0.17917804  0.31938781  1
  Al0+  Al91  1  0.07269226  0.17709625  0.98509395  1
  Al0+  Al92  1  0.82209689  0.56959887  0.01472577  1
  Al0+  Al93  1  0.92959041  0.82034487  0.31952517  1
  Al0+  Al94  1  0.42943596  0.82069396  0.98809144  1
  Al0+  Al95  1  0.82087523  0.57080513  0.34706527  1
  Si0+  Si96  1  0.42755925  0.32058123  0.65039739  1
  Si0+  Si97  1  0.82398292  0.07285413  0.68540581  1
  Si0+  Si98  1  0.57101258  0.67847927  0.31678770  1
  Si0+  Si99  1  0.92780477  0.31814993  0.65002679  1
  Si0+  Si100  1  0.07255180  0.18017951  0.64862014  1
  Si0+  Si101  1  0.57184176  0.17732126  0.98066930  1
  Si0+  Si102  1  0.17750783  0.42532582  0.68589085  1
  Si0+  Si103  1  0.17877845  0.93146690  0.01353739  1
  Si0+  Si104  1  0.32129410  0.07202437  0.34728464  1
  Si0+  Si105  1  0.07357933  0.67699059  0.31646588  1
  Si0+  Si106  1  0.57137167  0.17986984  0.65218411  1
  Si0+  Si107  1  0.67872348  0.42443149  0.01878360  1
  Si0+  Si108  1  0.32223333  0.07236206  0.01678280  1
  Si0+  Si109  1  0.07236877  0.17995278  0.32092470  1
  Si0+  Si110  1  0.93046453  0.32281342  0.32075775  1
  Si0+  Si111  1  0.17644148  0.92830537  0.68529518  1
  Si0+  Si112  1  0.42786921  0.82110011  0.31852508  1
  Si0+  Si113  1  0.18069600  0.42606573  0.01534993  1
  Si0+  Si114  1  0.67598646  0.42881317  0.34680799  1
  Si0+  Si115  1  0.82198790  0.07049802  0.01400672  1
  Si0+  Si116  1  0.57149327  0.67751292  0.98564777  1
  Si0+  Si117  1  0.42677517  0.32301094  0.31669869  1
  Si0+  Si118  1  0.32462274  0.57280027  0.35041653  1
  Si0+  Si119  1  0.67802347  0.93021655  0.01613579  1
  O2-  O120  1  0.24932146  0.00314486  0.05808345  1
  O2-  O121  1  0.25493987  0.00192657  0.39188360  1
  O2-  O122  1  0.24941583  -0.00736129  0.73002655  1
  O2-  O123  1  0.24671358  0.49782263  0.05963281  1
  O2-  O124  1  0.25559638  0.50351773  0.39228142  1
  O2-  O125  1  0.24027455  0.49938003  0.72890781  1
  O2-  O126  1  0.75320212  -0.00230994  0.05686442  1
  O2-  O127  1  0.75171037  0.00048632  0.39669848  1
  O2-  O128  1  0.76014720  -0.00020412  0.72966861  1
  O2-  O129  1  0.74996401  0.49109551  0.06234914  1
  O2-  O130  1  0.74437201  0.49647829  0.39140888  1
  O2-  O131  1  0.74618298  0.50057355  0.73222125  1
  O2-  O132  1  -0.00056068  0.24910736  0.27899171  1
  O2-  O133  1  -0.00004263  0.24895424  0.60593681  1
  O2-  O134  1  0.00101463  0.24985469  0.93565826  1
  O2-  O135  1  0.00524267  0.74613095  0.27264515  1
  O2-  O136  1  -0.00300269  0.74600659  0.59867974  1
  O2-  O137  1  -0.00697139  0.74389857  0.93806652  1
  O2-  O138  1  0.49670692  0.25503540  0.27337970  1
  O2-  O139  1  0.50147994  0.25205174  0.60904808  1
  O2-  O140  1  0.50721691  0.24930760  0.93632631  1
  O2-  O141  1  0.49864075  0.74961796  0.27624150  1
  O2-  O142  1  0.49959300  0.75165206  0.59935577  1
  O2-  O143  1  0.49912724  0.74210461  0.94193043  1
  O2-  O144  1  0.07162536  0.17647402  0.09952864  1
  O2-  O145  1  0.07509019  0.18300035  0.42593276  1
  O2-  O146  1  0.07358150  0.18160638  0.75348809  1
  O2-  O147  1  0.07199399  0.68210468  0.10194421  1
  O2-  O148  1  0.07406746  0.67719998  0.42158638  1
  O2-  O149  1  0.07109264  0.67837392  0.76245514  1
  O2-  O150  1  0.56977063  0.17636249  0.08648166  1
  O2-  O151  1  0.56837162  0.17997027  0.43268470  1
  O2-  O152  1  0.57030884  0.18047895  0.75730939  1
  O2-  O153  1  0.57228628  0.68135670  0.09193094  1
  O2-  O154  1  0.56936804  0.67424550  0.42122225  1
  O2-  O155  1  0.56742867  0.67910848  0.76561708  1
  O2-  O156  1  0.18191351  0.42682776  0.23287899  1
  O2-  O157  1  0.18209587  0.42101124  0.57994973  1
  O2-  O158  1  0.18356635  0.42270012  0.91022448  1
  O2-  O159  1  0.17941644  0.92984380  0.23302083  1
  O2-  O160  1  0.17653361  0.93320292  0.57938503  1
  O2-  O161  1  0.18105356  0.93349058  0.90889484  1
  O2-  O162  1  0.67388852  0.43076050  0.24130997  1
  O2-  O163  1  0.68259568  0.42240425  0.56660020  1
  O2-  O164  1  0.67752693  0.42465492  0.91362201  1
  O2-  O165  1  0.67633414  0.93143646  0.23408016  1
  O2-  O166  1  0.67808974  0.93490435  0.56922518  1
  O2-  O167  1  0.67562152  0.93223617  0.91126301  1
  O2-  O168  1  0.43107576  0.31745395  0.09917208  1
  O2-  O169  1  0.42598826  0.32279990  0.42223886  1
  O2-  O170  1  0.42650481  0.31885854  0.75538348  1
  O2-  O171  1  0.43079964  0.82191482  0.10200415  1
  O2-  O172  1  0.42734317  0.82252135  0.42297541  1
  O2-  O173  1  0.43149675  0.82341155  0.76434354  1
  O2-  O174  1  0.93097129  0.32006598  0.09931380  1
  O2-  O175  1  0.93095948  0.32129405  0.42595861  1
  O2-  O176  1  0.92821745  0.31591092  0.75482928  1
  O2-  O177  1  0.92805257  0.82425149  0.10016719  1
  O2-  O178  1  0.92904641  0.81912165  0.43188960  1
  O2-  O179  1  0.93031718  0.82015249  0.76273907  1
  O2-  O180  1  0.31893048  0.07353880  0.24139014  1
  O2-  O181  1  0.31787329  0.07136059  0.56747491  1
  O2-  O182  1  0.32398460  0.07142750  0.91196134  1
  O2-  O183  1  0.32558814  0.57372813  0.24468443  1
  O2-  O184  1  0.31857123  0.56487533  0.56623738  1
  O2-  O185  1  0.32131000  0.57375254  0.90110918  1
  O2-  O186  1  0.82222078  0.07395075  0.23231488  1
  O2-  O187  1  0.82081618  0.07756334  0.58007974  1
  O2-  O188  1  0.81924792  0.07299170  0.90911431  1
  O2-  O189  1  0.82249903  0.56904486  0.23360872  1
  O2-  O190  1  0.81923768  0.56861398  0.56912446  1
  O2-  O191  1  0.81913305  0.57080044  0.90249855  1
  O2-  O192  1  0.04741307  0.08757155  0.27403079  1
  O2-  O193  1  0.04731364  0.08793400  0.60128132  1
  O2-  O194  1  0.04278662  0.08200878  0.92708948  1
  O2-  O195  1  0.04805799  0.58189847  0.27322520  1
  O2-  O196  1  0.04871522  0.57338460  0.59974959  1
  O2-  O197  1  0.05455324  0.57783417  0.93667810  1
  O2-  O198  1  0.53891885  0.08443636  0.26146087  1
  O2-  O199  1  0.53996567  0.08964264  0.60486382  1
  O2-  O200  1  0.54089449  0.08568974  0.93427427  1
  O2-  O201  1  0.54387328  0.58718099  0.26645904  1
  O2-  O202  1  0.53784834  0.57996148  0.59741912  1
  O2-  O203  1  0.55308546  0.58163540  0.94359257  1
  O2-  O204  1  0.16366124  0.20962394  0.27238081  1
  O2-  O205  1  0.16372741  0.21057491  0.60077621  1
  O2-  O206  1  0.17089986  0.20399406  0.93161650  1
  O2-  O207  1  0.16910801  0.70110350  0.27264879  1
  O2-  O208  1  0.16751955  0.70574127  0.59365193  1
  O2-  O209  1  0.16644050  0.71505347  0.93393287  1
  O2-  O210  1  0.66663605  0.20987396  0.26179248  1
  O2-  O211  1  0.66385793  0.20621986  0.60517520  1
  O2-  O212  1  0.66675252  0.19674564  0.93569329  1
  O2-  O213  1  0.66172265  0.70794903  0.26851514  1
  O2-  O214  1  0.66808250  0.70534894  0.60052485  1
  O2-  O215  1  0.66264395  0.70842421  0.93889935  1
  O2-  O216  1  0.08584901  0.44715934  0.06061253  1
  O2-  O217  1  0.08668987  0.45775726  0.40530907  1
  O2-  O218  1  0.08093342  0.44222036  0.72765516  1
  O2-  O219  1  0.08610109  0.96023329  0.05957765  1
  O2-  O220  1  0.08540944  0.96183529  0.40436302  1
  O2-  O221  1  0.08497659  0.96134659  0.73131086  1
  O2-  O222  1  0.58587742  0.45062766  0.06671292  1
  O2-  O223  1  0.58153454  0.45245997  0.39273896  1
  O2-  O224  1  0.57643050  0.44956172  0.72932885  1
  O2-  O225  1  0.58778036  0.96356144  0.06468711  1
  O2-  O226  1  0.57923914  0.96107068  0.39988889  1
  O2-  O227  1  0.58662929  0.96648287  0.73792273  1
  O2-  O228  1  0.21120643  0.33315980  0.06210563  1
  O2-  O229  1  0.21176780  0.33379807  0.40395536  1
  O2-  O230  1  0.20838159  0.33385058  0.73288969  1
  O2-  O231  1  0.20817436  0.84158775  0.06352838  1
  O2-  O232  1  0.20866706  0.83211519  0.40212947  1
  O2-  O233  1  0.19658450  0.83274616  0.72725738  1
  O2-  O234  1  0.70121356  0.32832060  0.06237281  1
  O2-  O235  1  0.70072345  0.33441912  0.39061866  1
  O2-  O236  1  0.70730900  0.32963802  0.73630003  1
  O2-  O237  1  0.69893007  0.83734226  0.06415850  1
  O2-  O238  1  0.70263223  0.83077297  0.40045151  1
  O2-  O239  1  0.70615635  0.83288971  0.73676579  1
  O2-  O240  1  0.45104554  0.41673706  0.26966588  1
  O2-  O241  1  0.45130194  0.41194290  0.60124106  1
  O2-  O242  1  0.46071918  0.41905341  0.93288319  1
  O2-  O243  1  0.45437665  0.91281933  0.26960089  1
  O2-  O244  1  0.45824815  0.92388687  0.60036368  1
  O2-  O245  1  0.46227037  0.91694490  0.93495176  1
  O2-  O246  1  0.96375286  0.41373007  0.27481867  1
  O2-  O247  1  0.95429589  0.40976938  0.60211319  1
  O2-  O248  1  0.95720171  0.41831218  0.92964711  1
  O2-  O249  1  0.96113412  0.91922734  0.26886533  1
  O2-  O250  1  0.95692082  0.92094017  0.59872764  1
  O2-  O251  1  0.95474802  0.91661025  0.93036779  1
  O2-  O252  1  0.33396244  0.29477903  0.26982420  1
  O2-  O253  1  0.33671729  0.28787012  0.60315209  1
  O2-  O254  1  0.33743130  0.28896733  0.92896028  1
  O2-  O255  1  0.33564742  0.79227466  0.27128923  1
  O2-  O256  1  0.32921966  0.79849644  0.59947658  1
  O2-  O257  1  0.33218340  0.79631287  0.93445182  1
  O2-  O258  1  0.83837593  0.29999814  0.27191808  1
  O2-  O259  1  0.83646343  0.28742285  0.60297252  1
  O2-  O260  1  0.83044748  0.29156724  0.93168810  1
  O2-  O261  1  0.83149528  0.79129019  0.26674336  1
  O2-  O262  1  0.82767369  0.79510954  0.59936151  1
  O2-  O263  1  0.82423699  0.79578961  0.93847464  1
  O2-  O264  1  0.41364526  0.04262730  0.06488191  1
  O2-  O265  1  0.41555570  0.04770616  0.39132978  1
  O2-  O266  1  0.41721286  0.04528753  0.73764726  1
  O2-  O267  1  0.41828667  0.54204907  0.06884497  1
  O2-  O268  1  0.41810209  0.54543023  0.39585975  1
  O2-  O269  1  0.41235119  0.53777332  0.73384849  1
  O2-  O270  1  0.91582929  0.04521606  0.05866396  1
  O2-  O271  1  0.92105088  0.05175204  0.40023510  1
  O2-  O272  1  0.92054512  0.05380519  0.72773873  1
  O2-  O273  1  0.92035751  0.53949923  0.06740773  1
  O2-  O274  1  0.91568483  0.53984781  0.40315396  1
  O2-  O275  1  0.91880577  0.53774876  0.73341514  1
  O2-  O276  1  0.29627470  0.16502650  0.06333119  1
  O2-  O277  1  0.29585926  0.16493887  0.39483569  1
  O2-  O278  1  0.28606827  0.16489675  0.73604216  1
  O2-  O279  1  0.29048259  0.67007800  0.06903522  1
  O2-  O280  1  0.30011224  0.66545599  0.39785764  1
  O2-  O281  1  0.28942425  0.67006785  0.73057206  1
  O2-  O282  1  0.79339033  0.16214203  0.06228866  1
  O2-  O283  1  0.79161606  0.17252105  0.39868086  1
  O2-  O284  1  0.79254116  0.16352891  0.73427810  1
  O2-  O285  1  0.78633376  0.66467875  0.07083847  1
  O2-  O286  1  0.78706607  0.66593869  0.39992445  1
  O2-  O287  1  0.79320683  0.66935247  0.73571723  1
