# generated using pymatgen
data_Ca2Al2SiO7
_symmetry_space_group_name_H-M   'P 1'
_cell_length_a   15.46223764
_cell_length_b   15.46226577
_cell_length_c   15.28516735
_cell_angle_alpha   89.98742434
_cell_angle_beta   90.00246308
_cell_angle_gamma   90.01317259
_symmetry_Int_Tables_number   1
_chemical_formula_structural   Ca2Al2SiO7
_chemical_formula_sum   'Ca48 Al48 Si24 O168'
_cell_volume   3654.39638817
_cell_formula_units_Z   24
loop_
 _symmetry_equiv_pos_site_id
 _symmetry_equiv_pos_as_xyz
  1  'x, y, z'
loop_
 _atom_type_symbol
 _atom_type_oxidation_number
  Ca2+  2.0
  Al0+  0.0
  Si0+  0.0
  O2-  -2.0
loop_
 _atom_site_type_symbol
 _atom_site_label
 _atom_site_symmetry_multiplicity
 _atom_site_fract_x
 _atom_site_fract_y
 _atom_site_fract_z
 _atom_site_occupancy
  Ca2+  Ca0  1  0.17249618  0.07848577  0.17053323  1
  Ca2+  Ca1  1  0.17177880  0.07573702  0.50564434  1
  Ca2+  Ca2  1  0.18119995  0.09055249  0.83707759  1
  Ca2+  Ca3  1  0.16479752  0.57876453  0.17084409  1
  Ca2+  Ca4  1  0.16915923  0.57302801  0.51161823  1
  Ca2+  Ca5  1  0.16687013  0.58483533  0.83116259  1
  Ca2+  Ca6  1  0.67798027  0.09163692  0.16666028  1
  Ca2+  Ca7  1  0.67419762  0.08176149  0.51154836  1
  Ca2+  Ca8  1  0.66781153  0.08470270  0.83641335  1
  Ca2+  Ca9  1  0.66864943  0.57933932  0.17761154  1
  Ca2+  Ca10  1  0.67134927  0.57802862  0.50580356  1
  Ca2+  Ca11  1  0.66654097  0.57882074  0.83549870  1
  Ca2+  Ca12  1  0.07502632  0.33553901  0.16145947  1
  Ca2+  Ca13  1  0.08601972  0.33654358  0.49810044  1
  Ca2+  Ca14  1  0.07589197  0.33788139  0.82878245  1
  Ca2+  Ca15  1  0.07876283  0.82930894  0.15738605  1
  Ca2+  Ca16  1  0.08521212  0.82735441  0.49617041  1
  Ca2+  Ca17  1  0.07839438  0.82455502  0.82957307  1
  Ca2+  Ca18  1  0.57952208  0.33084097  0.15726211  1
  Ca2+  Ca19  1  0.58368542  0.33745825  0.50195093  1
  Ca2+  Ca20  1  0.57505518  0.32273317  0.82561523  1
  Ca2+  Ca21  1  0.59075230  0.81835688  0.16384548  1
  Ca2+  Ca22  1  0.58572202  0.82984575  0.49710259  1
  Ca2+  Ca23  1  0.58995597  0.82924011  0.82919615  1
  Ca2+  Ca24  1  0.32826388  0.41398850  0.16996092  1
  Ca2+  Ca25  1  0.32467483  0.41871804  0.51081467  1
  Ca2+  Ca26  1  0.33373422  0.41296920  0.83263008  1
  Ca2+  Ca27  1  0.32899493  0.92175835  0.16847862  1
  Ca2+  Ca28  1  0.32800890  0.91840785  0.50690660  1
  Ca2+  Ca29  1  0.33798278  0.93065459  0.83674770  1
  Ca2+  Ca30  1  0.82744197  0.42210569  0.17483020  1
  Ca2+  Ca31  1  0.82052708  0.42661970  0.50528422  1
  Ca2+  Ca32  1  0.82901761  0.41709215  0.83339881  1
  Ca2+  Ca33  1  0.83984965  0.92630365  0.16757773  1
  Ca2+  Ca34  1  0.82638546  0.92671219  0.50718076  1
  Ca2+  Ca35  1  0.83154947  0.92513349  0.83592143  1
  Ca2+  Ca36  1  0.42406382  0.17380579  0.15326336  1
  Ca2+  Ca37  1  0.42029051  0.16770669  0.50337075  1
  Ca2+  Ca38  1  0.42064182  0.17046301  0.82317253  1
  Ca2+  Ca39  1  0.43042971  0.66426687  0.16186070  1
  Ca2+  Ca40  1  0.42140334  0.66155258  0.49781485  1
  Ca2+  Ca41  1  0.41969386  0.66544943  0.82850177  1
  Ca2+  Ca42  1  0.91315732  0.17156368  0.15756696  1
  Ca2+  Ca43  1  0.91168305  0.16438288  0.49725548  1
  Ca2+  Ca44  1  0.90874433  0.16958951  0.83090831  1
  Ca2+  Ca45  1  0.92042790  0.67258006  0.15564836  1
  Ca2+  Ca46  1  0.91584038  0.65956772  0.49958637  1
  Ca2+  Ca47  1  0.92555580  0.66590690  0.82690157  1
  Al0+  Al48  1  0.00059640  -0.00024230  -0.00066289  1
  Al0+  Al49  1  0.00307202  -0.00001584  0.34033392  1
  Al0+  Al50  1  -0.00165396  -0.00108001  0.66857569  1
  Al0+  Al51  1  -0.00002403  0.49927894  -0.00662433  1
  Al0+  Al52  1  0.00015619  0.49924733  0.33846216  1
  Al0+  Al53  1  0.00005265  0.49966749  0.66742679  1
  Al0+  Al54  1  0.50169244  -0.00253883  0.00704328  1
  Al0+  Al55  1  0.50088435  0.00153929  0.32885400  1
  Al0+  Al56  1  0.49991217  -0.00102758  0.66801631  1
  Al0+  Al57  1  0.49888977  0.49961408  -0.00615111  1
  Al0+  Al58  1  0.49887989  0.49915042  0.33062808  1
  Al0+  Al59  1  0.49843255  0.49959129  0.66900124  1
  Al0+  Al60  1  0.24893106  0.25148027  0.00490395  1
  Al0+  Al61  1  0.24998646  0.24930054  0.33506856  1
  Al0+  Al62  1  0.24811354  0.24969204  0.66846853  1
  Al0+  Al63  1  0.25181464  0.74807013  -0.00122838  1
  Al0+  Al64  1  0.25018664  0.75141663  0.33380316  1
  Al0+  Al65  1  0.24869964  0.74776916  0.66475888  1
  Al0+  Al66  1  0.74875949  0.25069655  -0.00314748  1
  Al0+  Al67  1  0.75024765  0.25180121  0.34007858  1
  Al0+  Al68  1  0.74984261  0.25109917  0.66765852  1
  Al0+  Al69  1  0.75184553  0.75076681  -0.00792645  1
  Al0+  Al70  1  0.75226885  0.75258686  0.33125390  1
  Al0+  Al71  1  0.75193975  0.75152571  0.67153816  1
  Al0+  Al72  1  0.57117116  0.17809793  0.64948841  1
  Al0+  Al73  1  0.81983437  0.07122971  0.01433108  1
  Al0+  Al74  1  0.17880551  0.42775436  0.68428102  1
  Al0+  Al75  1  0.42611043  0.32031355  0.98498500  1
  Al0+  Al76  1  0.57086127  0.17730870  0.98626964  1
  Al0+  Al77  1  0.82135041  0.57454267  0.34566298  1
  Al0+  Al78  1  0.92841863  0.32018353  0.98724158  1
  Al0+  Al79  1  0.18076480  0.92860333  0.34671658  1
  Al0+  Al80  1  0.82094108  0.57111707  0.68380232  1
  Al0+  Al81  1  0.67754792  0.92913878  0.68158251  1
  Al0+  Al82  1  0.92953273  0.82417857  0.98316292  1
  Al0+  Al83  1  0.82095781  0.07138628  0.34611900  1
  Al0+  Al84  1  0.67693807  0.42924308  0.68438159  1
  Al0+  Al85  1  0.67612475  0.42963523  0.34719551  1
  Al0+  Al86  1  0.31901102  0.06887306  0.67841440  1
  Al0+  Al87  1  0.57165944  0.67900133  0.98514155  1
  Al0+  Al88  1  0.17936441  0.42888349  0.34588097  1
  Al0+  Al89  1  0.82155242  0.07186631  0.68320645  1
  Al0+  Al90  1  0.32086501  0.57178743  0.68215240  1
  Al0+  Al91  1  0.42724870  0.32121730  0.64886610  1
  Al0+  Al92  1  0.07254779  0.67786023  0.98481264  1
  Al0+  Al93  1  0.32262601  0.07258118  0.01536926  1
  Al0+  Al94  1  0.57061647  0.67998870  0.32201823  1
  Al0+  Al95  1  0.06981034  0.67930170  0.64916222  1
  Si0+  Si96  1  0.42737062  0.31939141  0.31797642  1
  Si0+  Si97  1  0.92959970  0.31991312  0.32015983  1
  Si0+  Si98  1  0.07109229  0.67806165  0.31898417  1
  Si0+  Si99  1  0.92895980  0.32086448  0.64901820  1
  Si0+  Si100  1  0.57247621  0.67948221  0.65199251  1
  Si0+  Si101  1  0.67778857  0.92853452  0.34751643  1
  Si0+  Si102  1  0.17703052  0.43033264  0.01637181  1
  Si0+  Si103  1  0.18015653  0.92707176  0.01511697  1
  Si0+  Si104  1  0.67880698  0.92443946  0.02000127  1
  Si0+  Si105  1  0.42860906  0.82070437  0.65227893  1
  Si0+  Si106  1  0.07199416  0.17797856  0.98556299  1
  Si0+  Si107  1  0.93167683  0.82345942  0.31899165  1
  Si0+  Si108  1  0.42654800  0.82426665  0.31549726  1
  Si0+  Si109  1  0.07041438  0.17733490  0.65148903  1
  Si0+  Si110  1  0.57308291  0.17928551  0.31787051  1
  Si0+  Si111  1  0.82206726  0.57071095  0.01351550  1
  Si0+  Si112  1  0.17720272  0.92611782  0.68419713  1
  Si0+  Si113  1  0.32214462  0.57127666  0.01681188  1
  Si0+  Si114  1  0.32362388  0.07183824  0.34986582  1
  Si0+  Si115  1  0.42811974  0.82086079  0.98421029  1
  Si0+  Si116  1  0.32169810  0.57205714  0.34729300  1
  Si0+  Si117  1  0.92792408  0.82259241  0.64616094  1
  Si0+  Si118  1  0.07187163  0.17787415  0.31891984  1
  Si0+  Si119  1  0.67860141  0.43137384  0.01447202  1
  O2-  O120  1  0.24724960  -0.00288679  0.06057409  1
  O2-  O121  1  0.25846001  -0.00024532  0.39368256  1
  O2-  O122  1  0.24396253  -0.00395798  0.72830893  1
  O2-  O123  1  0.24957661  0.50075691  0.05795172  1
  O2-  O124  1  0.25214374  0.50504764  0.39155692  1
  O2-  O125  1  0.25173006  0.49841019  0.73430767  1
  O2-  O126  1  0.74593862  -0.00402274  0.06303148  1
  O2-  O127  1  0.74320297  -0.00024025  0.39149832  1
  O2-  O128  1  0.74683791  0.00289747  0.73214180  1
  O2-  O129  1  0.74885140  0.50309415  0.05777636  1
  O2-  O130  1  0.74543511  0.50589486  0.39386720  1
  O2-  O131  1  0.74784879  0.50171561  0.73552140  1
  O2-  O132  1  -0.00034288  0.24785131  0.27667250  1
  O2-  O133  1  -0.00147156  0.24709164  0.60797493  1
  O2-  O134  1  0.00109969  0.24330185  0.94066129  1
  O2-  O135  1  -0.00029238  0.74878953  0.27681573  1
  O2-  O136  1  -0.00466763  0.75335001  0.60035944  1
  O2-  O137  1  0.00049029  0.74997325  0.93561426  1
  O2-  O138  1  0.50075528  0.25001100  0.27660758  1
  O2-  O139  1  0.50115036  0.25159343  0.59748536  1
  O2-  O140  1  0.49252169  0.24248442  0.93722045  1
  O2-  O141  1  0.49616825  0.75524851  0.27342646  1
  O2-  O142  1  0.50011506  0.74987904  0.61018459  1
  O2-  O143  1  0.49924614  0.75594433  0.93881187  1
  O2-  O144  1  0.07187165  0.17991111  0.09187466  1
  O2-  O145  1  0.07320014  0.17803231  0.42393097  1
  O2-  O146  1  0.07116887  0.17745271  0.75649101  1
  O2-  O147  1  0.07075796  0.67756447  0.09969754  1
  O2-  O148  1  0.07191135  0.67921421  0.42357088  1
  O2-  O149  1  0.07040268  0.68285033  0.76189849  1
  O2-  O150  1  0.57274505  0.18418044  0.10105236  1
  O2-  O151  1  0.57194227  0.17579766  0.42222683  1
  O2-  O152  1  0.56753090  0.17615117  0.76266465  1
  O2-  O153  1  0.57072726  0.67784947  0.09893949  1
  O2-  O154  1  0.56832089  0.68205684  0.43498242  1
  O2-  O155  1  0.57140855  0.68140332  0.75707884  1
  O2-  O156  1  0.17848721  0.43022578  0.23229490  1
  O2-  O157  1  0.17968844  0.42916418  0.57012023  1
  O2-  O158  1  0.17537704  0.42929123  0.91208282  1
  O2-  O159  1  0.18007731  0.93041937  0.23348857  1
  O2-  O160  1  0.17943529  0.92731172  0.57802165  1
  O2-  O161  1  0.18252232  0.92666590  0.90993820  1
  O2-  O162  1  0.67820032  0.42837534  0.23271537  1
  O2-  O163  1  0.67879172  0.43276727  0.57045565  1
  O2-  O164  1  0.67955822  0.43251862  0.90998014  1
  O2-  O165  1  0.67972534  0.92643171  0.24217831  1
  O2-  O166  1  0.67920399  0.92810695  0.56709359  1
  O2-  O167  1  0.67798120  0.92333830  0.91502590  1
  O2-  O168  1  0.42841969  0.32202804  0.09989088  1
  O2-  O169  1  0.42416408  0.31851798  0.42230315  1
  O2-  O170  1  0.42598632  0.31669531  0.76203274  1
  O2-  O171  1  0.42574680  0.81675597  0.09006489  1
  O2-  O172  1  0.42542140  0.82616651  0.42098414  1
  O2-  O173  1  0.42763225  0.82067454  0.75723816  1
  O2-  O174  1  0.93030066  0.32201544  0.10129553  1
  O2-  O175  1  0.93116441  0.31887544  0.42493736  1
  O2-  O176  1  0.93039571  0.32073159  0.75429952  1
  O2-  O177  1  0.93199658  0.82324532  0.09817652  1
  O2-  O178  1  0.93313519  0.82533826  0.42362045  1
  O2-  O179  1  0.93099140  0.82403652  0.75131656  1
  O2-  O180  1  0.32079948  0.07231084  0.24428467  1
  O2-  O181  1  0.31702055  0.06527176  0.56489697  1
  O2-  O182  1  0.32034000  0.07173250  0.90251915  1
  O2-  O183  1  0.32147826  0.57089459  0.24129138  1
  O2-  O184  1  0.31873178  0.57297155  0.56784710  1
  O2-  O185  1  0.32262038  0.57333968  0.91244021  1
  O2-  O186  1  0.82178754  0.07213608  0.23278984  1
  O2-  O187  1  0.82274902  0.06791159  0.56900615  1
  O2-  O188  1  0.81861261  0.07117748  0.90242434  1
  O2-  O189  1  0.82313515  0.57225180  0.23124715  1
  O2-  O190  1  0.81839370  0.56990751  0.56984742  1
  O2-  O191  1  0.82214010  0.56749174  0.90902820  1
  O2-  O192  1  0.04550024  0.08520714  0.27240249  1
  O2-  O193  1  0.04387927  0.08444344  0.60393357  1
  O2-  O194  1  0.05300812  0.08341716  0.94039839  1
  O2-  O195  1  0.04404861  0.58536964  0.27243808  1
  O2-  O196  1  0.03927976  0.58148905  0.59693577  1
  O2-  O197  1  0.04367409  0.58118135  0.93054759  1
  O2-  O198  1  0.54780536  0.08734811  0.26808094  1
  O2-  O199  1  0.53961476  0.07925588  0.59686516  1
  O2-  O200  1  0.55134492  0.07400175  0.94176443  1
  O2-  O201  1  0.53913195  0.58393870  0.26544156  1
  O2-  O202  1  0.54410738  0.58788662  0.60521065  1
  O2-  O203  1  0.53773293  0.58484386  0.93029024  1
  O2-  O204  1  0.16340326  0.20651383  0.27039485  1
  O2-  O205  1  0.16100504  0.20563328  0.60193180  1
  O2-  O206  1  0.16436239  0.20773941  0.94035505  1
  O2-  O207  1  0.16348886  0.70577966  0.27160535  1
  O2-  O208  1  0.16661754  0.71065763  0.59453143  1
  O2-  O209  1  0.17167133  0.70497975  0.93355010  1
  O2-  O210  1  0.66526902  0.20975622  0.27218505  1
  O2-  O211  1  0.67118166  0.20589118  0.59851994  1
  O2-  O212  1  0.66603749  0.21047778  0.93200613  1
  O2-  O213  1  0.66745503  0.71111069  0.26667676  1
  O2-  O214  1  0.66431565  0.70922793  0.60567256  1
  O2-  O215  1  0.66778870  0.70672386  0.93034088  1
  O2-  O216  1  0.08554478  0.46080773  0.06419695  1
  O2-  O217  1  0.08368310  0.45702735  0.40153503  1
  O2-  O218  1  0.08086353  0.45785227  0.73526929  1
  O2-  O219  1  0.08643911  0.95205104  0.06159973  1
  O2-  O220  1  0.08779419  0.96174120  0.40537539  1
  O2-  O221  1  0.08310023  0.95001497  0.72800345  1
  O2-  O222  1  0.58586594  0.45930031  0.06073547  1
  O2-  O223  1  0.57651388  0.45462095  0.39830060  1
  O2-  O224  1  0.57832588  0.45531796  0.73596811  1
  O2-  O225  1  0.58443222  0.94351404  0.06790041  1
  O2-  O226  1  0.58185186  0.95037743  0.39078121  1
  O2-  O227  1  0.57832465  0.95177911  0.73463106  1
  O2-  O228  1  0.20257179  0.33903819  0.06674446  1
  O2-  O229  1  0.20931601  0.33200585  0.39940413  1
  O2-  O230  1  0.20247919  0.32843079  0.73627033  1
  O2-  O231  1  0.20800413  0.83397688  0.06271824  1
  O2-  O232  1  0.20892427  0.83159336  0.40183662  1
  O2-  O233  1  0.20468468  0.83331071  0.72851840  1
  O2-  O234  1  0.70780807  0.33984270  0.06147073  1
  O2-  O235  1  0.70802986  0.33435197  0.40299400  1
  O2-  O236  1  0.70774152  0.33151174  0.73541293  1
  O2-  O237  1  0.70950223  0.83105010  0.06545439  1
  O2-  O238  1  0.70600895  0.83669223  0.39520117  1
  O2-  O239  1  0.70801869  0.83258441  0.73606136  1
  O2-  O240  1  0.45160327  0.41196724  0.26983629  1
  O2-  O241  1  0.45313658  0.42198290  0.59812727  1
  O2-  O242  1  0.45651856  0.41679312  0.93163639  1
  O2-  O243  1  0.45095412  0.91797520  0.26777141  1
  O2-  O244  1  0.45580899  0.91125703  0.60219792  1
  O2-  O245  1  0.45076886  0.91649151  0.94216089  1
  O2-  O246  1  0.95937591  0.41159808  0.27247969  1
  O2-  O247  1  0.95994628  0.41124455  0.60114222  1
  O2-  O248  1  0.96164956  0.41369451  0.93026140  1
  O2-  O249  1  0.96506264  0.91404135  0.27143574  1
  O2-  O250  1  0.95536584  0.91632616  0.59987344  1
  O2-  O251  1  0.95973767  0.92145363  0.92957796  1
  O2-  O252  1  0.33618457  0.28909266  0.26897677  1
  O2-  O253  1  0.32806285  0.28951042  0.59736687  1
  O2-  O254  1  0.32455557  0.29844371  0.93700222  1
  O2-  O255  1  0.33312454  0.79796220  0.26839404  1
  O2-  O256  1  0.33743144  0.79234955  0.60303529  1
  O2-  O257  1  0.33639659  0.79344138  0.93614769  1
  O2-  O258  1  0.83692599  0.29337384  0.27329374  1
  O2-  O259  1  0.83706372  0.29483738  0.60137194  1
  O2-  O260  1  0.83299022  0.29124056  0.93202425  1
  O2-  O261  1  0.83911364  0.80095085  0.27052493  1
  O2-  O262  1  0.83337338  0.79724945  0.60160921  1
  O2-  O263  1  0.83173499  0.79878842  0.92993993  1
  O2-  O264  1  0.41795922  0.04098010  0.07231172  1
  O2-  O265  1  0.41925487  0.04969678  0.39281189  1
  O2-  O266  1  0.41377973  0.03627186  0.73291405  1
  O2-  O267  1  0.41361527  0.54060529  0.06423996  1
  O2-  O268  1  0.41452790  0.54557648  0.39316216  1
  O2-  O269  1  0.41983293  0.54856305  0.73448287  1
  O2-  O270  1  0.91885925  0.04260551  0.06723869  1
  O2-  O271  1  0.91673672  0.04031343  0.40064488  1
  O2-  O272  1  0.91986837  0.04216087  0.73584348  1
  O2-  O273  1  0.91371637  0.54037923  0.06040723  1
  O2-  O274  1  0.91734474  0.54220309  0.40030284  1
  O2-  O275  1  0.91856342  0.53991375  0.73480484  1
  O2-  O276  1  0.28952695  0.16803903  0.07163974  1
  O2-  O277  1  0.29360241  0.16325633  0.39660241  1
  O2-  O278  1  0.28662447  0.16391106  0.73270911  1
  O2-  O279  1  0.29563121  0.66298806  0.06596400  1
  O2-  O280  1  0.30010222  0.66694192  0.39179825  1
  O2-  O281  1  0.29027437  0.66986311  0.73517086  1
  O2-  O282  1  0.78775779  0.16878163  0.06832354  1
  O2-  O283  1  0.79320840  0.16740527  0.40132771  1
  O2-  O284  1  0.79813311  0.17187964  0.73221604  1
  O2-  O285  1  0.79784448  0.66522003  0.05722602  1
  O2-  O286  1  0.79852846  0.67450335  0.39753401  1
  O2-  O287  1  0.79782008  0.67071325  0.73494032  1
