# generated using pymatgen
data_Ca2Al2SiO7
_symmetry_space_group_name_H-M   'P 1'
_cell_length_a   15.46347799
_cell_length_b   15.46327967
_cell_length_c   15.28741889
_cell_angle_alpha   89.99106576
_cell_angle_beta   90.00436779
_cell_angle_gamma   90.02315589
_symmetry_Int_Tables_number   1
_chemical_formula_structural   Ca2Al2SiO7
_chemical_formula_sum   'Ca48 Al48 Si24 O168'
_cell_volume   3655.46739624
_cell_formula_units_Z   24
loop_
 _symmetry_equiv_pos_site_id
 _symmetry_equiv_pos_as_xyz
  1  'x, y, z'
loop_
 _atom_type_symbol
 _atom_type_oxidation_number
  Ca2+  2.0
  Al0+  0.0
  Si0+  0.0
  O2-  -2.0
loop_
 _atom_site_type_symbol
 _atom_site_label
 _atom_site_symmetry_multiplicity
 _atom_site_fract_x
 _atom_site_fract_y
 _atom_site_fract_z
 _atom_site_occupancy
  Ca2+  Ca0  1  0.17207846  0.08528095  0.17126312  1
  Ca2+  Ca1  1  0.16191339  0.08355947  0.49790046  1
  Ca2+  Ca2  1  0.16894085  0.08167815  0.84230542  1
  Ca2+  Ca3  1  0.17895708  0.57823747  0.17180430  1
  Ca2+  Ca4  1  0.17747737  0.57761506  0.50785378  1
  Ca2+  Ca5  1  0.17779149  0.57315705  0.84107906  1
  Ca2+  Ca6  1  0.66732797  0.07206032  0.17945210  1
  Ca2+  Ca7  1  0.67904911  0.08803617  0.50036859  1
  Ca2+  Ca8  1  0.67419971  0.07809411  0.83964261  1
  Ca2+  Ca9  1  0.66064694  0.57545977  0.17096492  1
  Ca2+  Ca10  1  0.66302866  0.58860486  0.50063179  1
  Ca2+  Ca11  1  0.66363156  0.58121249  0.83763748  1
  Ca2+  Ca12  1  0.08601345  0.32283543  0.16072356  1
  Ca2+  Ca13  1  0.08110704  0.32410144  0.49345694  1
  Ca2+  Ca14  1  0.09686039  0.32394019  0.83039769  1
  Ca2+  Ca15  1  0.08118207  0.84665606  0.16606730  1
  Ca2+  Ca16  1  0.07779398  0.83725435  0.48949456  1
  Ca2+  Ca17  1  0.08748387  0.83427165  0.83134355  1
  Ca2+  Ca18  1  0.57849667  0.32513483  0.16117781  1
  Ca2+  Ca19  1  0.58048013  0.32552611  0.49079703  1
  Ca2+  Ca20  1  0.57649256  0.33901310  0.83529072  1
  Ca2+  Ca21  1  0.59026799  0.82998054  0.16374599  1
  Ca2+  Ca22  1  0.57932364  0.82478762  0.49346947  1
  Ca2+  Ca23  1  0.57526630  0.82958438  0.82431700  1
  Ca2+  Ca24  1  0.33614718  0.42190717  0.16572796  1
  Ca2+  Ca25  1  0.33005873  0.42710613  0.50551414  1
  Ca2+  Ca26  1  0.32848589  0.42409828  0.84110530  1
  Ca2+  Ca27  1  0.32177613  0.92839040  0.17269059  1
  Ca2+  Ca28  1  0.33344032  0.92065055  0.49811611  1
  Ca2+  Ca29  1  0.33136757  0.92219659  0.84240255  1
  Ca2+  Ca30  1  0.82921314  0.41050697  0.17068196  1
  Ca2+  Ca31  1  0.83362441  0.41189203  0.50038127  1
  Ca2+  Ca32  1  0.82465576  0.41854103  0.83926939  1
  Ca2+  Ca33  1  0.82553011  0.92098135  0.17614030  1
  Ca2+  Ca34  1  0.83363414  0.92642018  0.49698736  1
  Ca2+  Ca35  1  0.82740616  0.92229751  0.83736799  1
  Ca2+  Ca36  1  0.41646185  0.16320037  0.16080820  1
  Ca2+  Ca37  1  0.42144428  0.16644352  0.49034655  1
  Ca2+  Ca38  1  0.40735599  0.17449488  0.83511828  1
  Ca2+  Ca39  1  0.41554430  0.66314320  0.16566482  1
  Ca2+  Ca40  1  0.41984569  0.66665579  0.49645521  1
  Ca2+  Ca41  1  0.41572024  0.67030033  0.82414046  1
  Ca2+  Ca42  1  0.92691266  0.16222932  0.16847342  1
  Ca2+  Ca43  1  0.92371359  0.16520655  0.49010135  1
  Ca2+  Ca44  1  0.92970016  0.16351247  0.82747628  1
  Ca2+  Ca45  1  0.91806023  0.67559999  0.16598984  1
  Ca2+  Ca46  1  0.91950686  0.67542455  0.48961344  1
  Ca2+  Ca47  1  0.91950247  0.66915492  0.83017485  1
  Al0+  Al48  1  -0.00229179  0.00029955  -0.00481891  1
  Al0+  Al49  1  -0.00180695  0.00056889  0.33106547  1
  Al0+  Al50  1  -0.00015584  0.00148669  0.66784140  1
  Al0+  Al51  1  0.00024197  0.50121443  0.00164217  1
  Al0+  Al52  1  -0.00183199  0.50064085  0.33006326  1
  Al0+  Al53  1  -0.00205057  0.49862426  0.67139659  1
  Al0+  Al54  1  0.50205151  -0.00242330  0.00462703  1
  Al0+  Al55  1  0.49768562  -0.00348052  0.33689509  1
  Al0+  Al56  1  0.49986224  -0.00031824  0.66324953  1
  Al0+  Al57  1  0.50273148  0.49830923  0.00270484  1
  Al0+  Al58  1  0.50045661  0.50060075  0.33484594  1
  Al0+  Al59  1  0.50050068  0.50003553  0.66561783  1
  Al0+  Al60  1  0.25170859  0.25143038  -0.00242635  1
  Al0+  Al61  1  0.24990433  0.25226591  0.33389678  1
  Al0+  Al62  1  0.25000573  0.24846166  0.66222743  1
  Al0+  Al63  1  0.24983047  0.75027583  0.00604592  1
  Al0+  Al64  1  0.25114975  0.74890942  0.34143645  1
  Al0+  Al65  1  0.24980837  0.75104351  0.66482881  1
  Al0+  Al66  1  0.75184576  0.25089366  0.00231897  1
  Al0+  Al67  1  0.74732131  0.24891113  0.32917525  1
  Al0+  Al68  1  0.75173390  0.24993290  0.67418486  1
  Al0+  Al69  1  0.75154880  0.75047566  -0.00043457  1
  Al0+  Al70  1  0.74993956  0.74779420  0.32808205  1
  Al0+  Al71  1  0.74913039  0.75018594  0.66435383  1
  Al0+  Al72  1  0.17803473  0.93115208  0.34964036  1
  Al0+  Al73  1  0.32078046  0.07423839  0.34981660  1
  Al0+  Al74  1  0.68018734  0.92870572  0.01221639  1
  Al0+  Al75  1  0.93056379  0.82049391  0.31927068  1
  Al0+  Al76  1  0.57059191  0.67811096  0.65163307  1
  Al0+  Al77  1  0.06966000  0.18058523  0.98442779  1
  Al0+  Al78  1  0.32282950  0.57162350  0.01558283  1
  Al0+  Al79  1  0.17849250  0.42785668  0.01634251  1
  Al0+  Al80  1  0.17675281  0.92890662  0.01299747  1
  Al0+  Al81  1  0.67762551  0.92373512  0.35023007  1
  Al0+  Al82  1  0.92713760  0.32269571  0.31784557  1
  Al0+  Al83  1  0.32196774  0.56904758  0.34974701  1
  Al0+  Al84  1  0.07086199  0.17960257  0.65149474  1
  Al0+  Al85  1  0.68064527  0.42946363  0.01463350  1
  Al0+  Al86  1  0.56928744  0.67979851  0.31662118  1
  Al0+  Al87  1  0.43171293  0.32007727  0.98595839  1
  Al0+  Al88  1  0.32185901  0.57159648  0.68256487  1
  Al0+  Al89  1  0.32132219  0.07196038  0.01247196  1
  Al0+  Al90  1  0.42606906  0.82332693  0.65006135  1
  Al0+  Al91  1  0.56831074  0.17602560  0.32099844  1
  Al0+  Al92  1  0.17834101  0.42715216  0.68114852  1
  Al0+  Al93  1  0.07170410  0.18029488  0.31645759  1
  Al0+  Al94  1  0.81808092  0.07157324  0.34735342  1
  Al0+  Al95  1  0.82192129  0.07107434  0.68232245  1
  Si0+  Si96  1  0.92871375  0.81980334  0.98211733  1
  Si0+  Si97  1  0.42866447  0.82045501  0.98723567  1
  Si0+  Si98  1  0.17464611  0.42912546  0.35019890  1
  Si0+  Si99  1  0.06961498  0.67704038  0.65351589  1
  Si0+  Si100  1  0.32349924  0.07054770  0.68098950  1
  Si0+  Si101  1  0.17806100  0.93034698  0.68044490  1
  Si0+  Si102  1  0.42919951  0.32254494  0.31820754  1
  Si0+  Si103  1  0.82191756  0.07199835  0.01681230  1
  Si0+  Si104  1  0.57358589  0.17993702  0.65448367  1
  Si0+  Si105  1  0.42520564  0.82089326  0.31391999  1
  Si0+  Si106  1  0.82156571  0.57048567  0.34761079  1
  Si0+  Si107  1  0.92528458  0.32256632  0.65218097  1
  Si0+  Si108  1  0.57397513  0.17510842  0.98302770  1
  Si0+  Si109  1  0.67988802  0.42935550  0.34879830  1
  Si0+  Si110  1  0.67951236  0.42831188  0.68069178  1
  Si0+  Si111  1  0.07405810  0.67773593  0.31726290  1
  Si0+  Si112  1  0.92987915  0.82037684  0.65243235  1
  Si0+  Si113  1  0.43007753  0.32008572  0.65134759  1
  Si0+  Si114  1  0.82287605  0.57328735  0.01744240  1
  Si0+  Si115  1  0.82054082  0.57374444  0.68079677  1
  Si0+  Si116  1  0.92699877  0.32501674  0.98080378  1
  Si0+  Si117  1  0.07241016  0.67850258  0.98474200  1
  Si0+  Si118  1  0.57172819  0.67930750  0.98525153  1
  Si0+  Si119  1  0.67823982  0.92808902  0.68264943  1
  O2-  O120  1  0.24618094  0.00322315  0.06159367  1
  O2-  O121  1  0.24798792  0.00382718  0.40178022  1
  O2-  O122  1  0.25258397  -0.00176319  0.72149871  1
  O2-  O123  1  0.25044773  0.49999110  0.06546282  1
  O2-  O124  1  0.24423264  0.49675457  0.39452280  1
  O2-  O125  1  0.24943619  0.49992387  0.73157660  1
  O2-  O126  1  0.74877678  0.00796724  0.05933704  1
  O2-  O127  1  0.74548271  0.00041405  0.39918679  1
  O2-  O128  1  0.74581663  -0.00281668  0.72814859  1
  O2-  O129  1  0.75712222  0.50218959  0.06141654  1
  O2-  O130  1  0.75352263  0.49744749  0.39143871  1
  O2-  O131  1  0.74843800  0.50283096  0.72127648  1
  O2-  O132  1  0.00091479  0.25401635  0.26694470  1
  O2-  O133  1  -0.00357670  0.25679797  0.60904565  1
  O2-  O134  1  -0.00299784  0.25813455  0.93633955  1
  O2-  O135  1  0.00957651  0.75005407  0.27211080  1
  O2-  O136  1  0.00014652  0.74887890  0.61005318  1
  O2-  O137  1  0.00237937  0.75080313  0.94077015  1
  O2-  O138  1  0.48949673  0.24632720  0.27455061  1
  O2-  O139  1  0.50171503  0.24910522  0.61079839  1
  O2-  O140  1  0.50467789  0.24286521  0.93749135  1
  O2-  O141  1  0.49693081  0.75550354  0.26851244  1
  O2-  O142  1  0.49705129  0.74858711  0.60237584  1
  O2-  O143  1  0.49911801  0.74862195  0.94382120  1
  O2-  O144  1  0.06721911  0.17853542  0.09667543  1
  O2-  O145  1  0.06912366  0.18131657  0.43041966  1
  O2-  O146  1  0.07085595  0.17783955  0.76468008  1
  O2-  O147  1  0.06974107  0.67712793  0.08941645  1
  O2-  O148  1  0.06871205  0.67572178  0.42339987  1
  O2-  O149  1  0.06709450  0.67891733  0.75882520  1
  O2-  O150  1  0.57351220  0.17627810  0.08830941  1
  O2-  O151  1  0.57163845  0.18344528  0.43494292  1
  O2-  O152  1  0.57427913  0.18122596  0.75955072  1
  O2-  O153  1  0.57411769  0.68031338  0.08999739  1
  O2-  O154  1  0.56831591  0.67798252  0.42951609  1
  O2-  O155  1  0.57338781  0.67998813  0.76580972  1
  O2-  O156  1  0.17403666  0.43113868  0.24487697  1
  O2-  O157  1  0.17874544  0.42992786  0.56750774  1
  O2-  O158  1  0.18043415  0.43033157  0.90257749  1
  O2-  O159  1  0.17973568  0.93177300  0.23637232  1
  O2-  O160  1  0.17355760  0.93188227  0.57614023  1
  O2-  O161  1  0.17996207  0.92756089  0.89850800  1
  O2-  O162  1  0.67895993  0.43161990  0.24397361  1
  O2-  O163  1  0.68139635  0.42436452  0.57583713  1
  O2-  O164  1  0.68063409  0.43339459  0.90066420  1
  O2-  O165  1  0.68281974  0.92429511  0.23631967  1
  O2-  O166  1  0.68030206  0.92721112  0.57794431  1
  O2-  O167  1  0.68271089  0.92730277  0.89850046  1
  O2-  O168  1  0.43550952  0.32165229  0.09866677  1
  O2-  O169  1  0.43443103  0.32456675  0.42452084  1
  O2-  O170  1  0.43104844  0.32050285  0.75636998  1
  O2-  O171  1  0.42957193  0.82013779  0.09170890  1
  O2-  O172  1  0.42498627  0.81764910  0.41956421  1
  O2-  O173  1  0.42854315  0.82554853  0.76462999  1
  O2-  O174  1  0.92519703  0.32442431  0.08580869  1
  O2-  O175  1  0.92869173  0.32364261  0.43211602  1
  O2-  O176  1  0.92044773  0.32220903  0.75746023  1
  O2-  O177  1  0.92592713  0.81800318  0.08667639  1
  O2-  O178  1  0.93061761  0.81679877  0.43317750  1
  O2-  O179  1  0.92967833  0.81811171  0.75794887  1
  O2-  O180  1  0.32079245  0.07317937  0.23650805  1
  O2-  O181  1  0.32526218  0.07199577  0.57660435  1
  O2-  O182  1  0.32139593  0.06878779  0.89787513  1
  O2-  O183  1  0.32266952  0.56626862  0.23684348  1
  O2-  O184  1  0.32128290  0.56826154  0.56907262  1
  O2-  O185  1  0.32198382  0.57307284  0.90197005  1
  O2-  O186  1  0.81704513  0.06995754  0.23383639  1
  O2-  O187  1  0.82120629  0.07186221  0.56991978  1
  O2-  O188  1  0.82191445  0.06871447  0.91043739  1
  O2-  O189  1  0.82060105  0.57140126  0.24274269  1
  O2-  O190  1  0.82312448  0.57504800  0.57616306  1
  O2-  O191  1  0.82072676  0.57538094  0.91111366  1
  O2-  O192  1  0.04069674  0.08263644  0.26454418  1
  O2-  O193  1  0.03656665  0.08329039  0.59905243  1
  O2-  O194  1  0.03586281  0.08437007  0.92865389  1
  O2-  O195  1  0.04349817  0.58683309  0.26906925  1
  O2-  O196  1  0.03938062  0.58562803  0.60685027  1
  O2-  O197  1  0.04209018  0.58795717  0.93503888  1
  O2-  O198  1  0.54310925  0.07710987  0.26953359  1
  O2-  O199  1  0.54843117  0.08793190  0.60727679  1
  O2-  O200  1  0.55080573  0.08019475  0.93787118  1
  O2-  O201  1  0.53725071  0.58221702  0.26445533  1
  O2-  O202  1  0.54726513  0.57800689  0.59903214  1
  O2-  O203  1  0.54687954  0.58648467  0.93907777  1
  O2-  O204  1  0.17121220  0.20870613  0.26528393  1
  O2-  O205  1  0.16756551  0.20761613  0.59621135  1
  O2-  O206  1  0.16754341  0.20892253  0.93097948  1
  O2-  O207  1  0.16978517  0.69894709  0.27528318  1
  O2-  O208  1  0.16158269  0.70273477  0.60638484  1
  O2-  O209  1  0.16424240  0.70716156  0.93741042  1
  O2-  O210  1  0.66166340  0.21110681  0.26432220  1
  O2-  O211  1  0.66500274  0.21148985  0.60818730  1
  O2-  O212  1  0.66819111  0.20305372  0.93813100  1
  O2-  O213  1  0.66683419  0.70544369  0.26199600  1
  O2-  O214  1  0.66979862  0.70623434  0.59858812  1
  O2-  O215  1  0.66382858  0.70797119  0.93730395  1
  O2-  O216  1  0.07888329  0.45519980  0.06673880  1
  O2-  O217  1  0.08102800  0.45627665  0.39595279  1
  O2-  O218  1  0.07849827  0.45213516  0.73395493  1
  O2-  O219  1  0.07566461  0.95351782  0.06061652  1
  O2-  O220  1  0.07816356  0.95723923  0.40072681  1
  O2-  O221  1  0.08783400  0.95949141  0.73071015  1
  O2-  O222  1  0.58683694  0.46191614  0.07091304  1
  O2-  O223  1  0.59025014  0.46044411  0.39824505  1
  O2-  O224  1  0.58757987  0.45480636  0.72814769  1
  O2-  O225  1  0.58353512  0.95195371  0.06791177  1
  O2-  O226  1  0.57670296  0.94417569  0.39914221  1
  O2-  O227  1  0.58419042  0.95443444  0.72810402  1
  O2-  O228  1  0.20864144  0.33035869  0.06741716  1
  O2-  O229  1  0.19979383  0.33573487  0.39593768  1
  O2-  O230  1  0.21095116  0.32861050  0.73137556  1
  O2-  O231  1  0.20314024  0.83175135  0.06772140  1
  O2-  O232  1  0.20440169  0.83176244  0.40268314  1
  O2-  O233  1  0.20108403  0.83652827  0.72644408  1
  O2-  O234  1  0.70832814  0.33191914  0.06818405  1
  O2-  O235  1  0.70558030  0.33724135  0.39615949  1
  O2-  O236  1  0.70923546  0.33980535  0.73345488  1
  O2-  O237  1  0.71562270  0.83347348  0.06549250  1
  O2-  O238  1  0.71202665  0.82611818  0.40105119  1
  O2-  O239  1  0.70600309  0.83464080  0.72930476  1
  O2-  O240  1  0.46493236  0.41192552  0.27086619  1
  O2-  O241  1  0.45921602  0.41118340  0.60344954  1
  O2-  O242  1  0.46818967  0.41556109  0.93086273  1
  O2-  O243  1  0.44586709  0.91624244  0.27065180  1
  O2-  O244  1  0.45672594  0.92087151  0.59596096  1
  O2-  O245  1  0.45848491  0.91159645  0.93838716  1
  O2-  O246  1  0.94845344  0.42355501  0.26568220  1
  O2-  O247  1  0.94598365  0.41846187  0.60771569  1
  O2-  O248  1  0.94769997  0.42128265  0.93667679  1
  O2-  O249  1  0.95648404  0.91680217  0.26369463  1
  O2-  O250  1  0.95943013  0.91168641  0.60641177  1
  O2-  O251  1  0.95299024  0.91146343  0.93259110  1
  O2-  O252  1  0.33259585  0.30790449  0.27595569  1
  O2-  O253  1  0.33975917  0.29169128  0.60224466  1
  O2-  O254  1  0.33589186  0.29191438  0.92871129  1
  O2-  O255  1  0.33217588  0.79029521  0.26951175  1
  O2-  O256  1  0.32667905  0.79824546  0.59730105  1
  O2-  O257  1  0.33603945  0.79381285  0.93994064  1
  O2-  O258  1  0.82884674  0.29410118  0.26519876  1
  O2-  O259  1  0.83212518  0.29478316  0.60550098  1
  O2-  O260  1  0.83272307  0.29834788  0.93464850  1
  O2-  O261  1  0.83745540  0.78282518  0.26317504  1
  O2-  O262  1  0.83829030  0.79279606  0.60549799  1
  O2-  O263  1  0.83903402  0.78692702  0.93167246  1
  O2-  O264  1  0.41901913  0.04229159  0.06504794  1
  O2-  O265  1  0.41845960  0.04369713  0.40381826  1
  O2-  O266  1  0.41577210  0.04489260  0.72934242  1
  O2-  O267  1  0.42103792  0.54221914  0.06712375  1
  O2-  O268  1  0.41730642  0.53418976  0.40419520  1
  O2-  O269  1  0.42138781  0.54306409  0.73336394  1
  O2-  O270  1  0.91303548  0.03948221  0.06172453  1
  O2-  O271  1  0.91563001  0.04048721  0.39977249  1
  O2-  O272  1  0.91664883  0.03588465  0.73768389  1
  O2-  O273  1  0.91737744  0.55288223  0.06245805  1
  O2-  O274  1  0.91398434  0.54675177  0.39671009  1
  O2-  O275  1  0.91057797  0.54600985  0.73236854  1
  O2-  O276  1  0.29842753  0.17140283  0.06289053  1
  O2-  O277  1  0.29715016  0.17482513  0.40188024  1
  O2-  O278  1  0.29385979  0.16236865  0.72709555  1
  O2-  O279  1  0.29365916  0.66862085  0.06998363  1
  O2-  O280  1  0.29366901  0.66513372  0.40503728  1
  O2-  O281  1  0.29346067  0.67161833  0.73253581  1
  O2-  O282  1  0.80428518  0.16776398  0.05949665  1
  O2-  O283  1  0.78795318  0.17007908  0.40069917  1
  O2-  O284  1  0.79164986  0.16661375  0.73925840  1
  O2-  O285  1  0.79451757  0.66577193  0.06337409  1
  O2-  O286  1  0.79040772  0.66040228  0.39609355  1
  O2-  O287  1  0.79305832  0.66499426  0.73070331  1
