# generated using pymatgen
data_Ca2Al2SiO7
_symmetry_space_group_name_H-M   'P 1'
_cell_length_a   15.46812192
_cell_length_b   15.46956798
_cell_length_c   15.29226023
_cell_angle_alpha   90.00530830
_cell_angle_beta   90.01099834
_cell_angle_gamma   90.02550768
_symmetry_Int_Tables_number   1
_chemical_formula_structural   Ca2Al2SiO7
_chemical_formula_sum   'Ca48 Al48 Si24 O168'
_cell_volume   3659.21054404
_cell_formula_units_Z   24
loop_
 _symmetry_equiv_pos_site_id
 _symmetry_equiv_pos_as_xyz
  1  'x, y, z'
loop_
 _atom_type_symbol
 _atom_type_oxidation_number
  Ca2+  2.0
  Al0+  0.0
  Si0+  0.0
  O2-  -2.0
loop_
 _atom_site_type_symbol
 _atom_site_label
 _atom_site_symmetry_multiplicity
 _atom_site_fract_x
 _atom_site_fract_y
 _atom_site_fract_z
 _atom_site_occupancy
  Ca2+  Ca0  1  0.16382175  0.07146014  0.16738860  1
  Ca2+  Ca1  1  0.16208239  0.07308491  0.50435851  1
  Ca2+  Ca2  1  0.17338540  0.06869108  0.83334885  1
  Ca2+  Ca3  1  0.16054153  0.57898187  0.17311643  1
  Ca2+  Ca4  1  0.16603132  0.57227148  0.51315901  1
  Ca2+  Ca5  1  0.15860675  0.58328201  0.83350264  1
  Ca2+  Ca6  1  0.67398411  0.06856535  0.16841724  1
  Ca2+  Ca7  1  0.67478377  0.07518425  0.50559406  1
  Ca2+  Ca8  1  0.67880788  0.07681070  0.84135469  1
  Ca2+  Ca9  1  0.67283674  0.59482056  0.17371133  1
  Ca2+  Ca10  1  0.67647010  0.59629695  0.50331486  1
  Ca2+  Ca11  1  0.67123051  0.59420154  0.83275544  1
  Ca2+  Ca12  1  0.08858656  0.32699799  0.16756471  1
  Ca2+  Ca13  1  0.09252236  0.32755117  0.49381588  1
  Ca2+  Ca14  1  0.08596303  0.32972822  0.82675065  1
  Ca2+  Ca15  1  0.07394251  0.83765342  0.15955891  1
  Ca2+  Ca16  1  0.07340743  0.83931413  0.49638623  1
  Ca2+  Ca17  1  0.07794733  0.83465462  0.82627636  1
  Ca2+  Ca18  1  0.58187862  0.32925786  0.16070832  1
  Ca2+  Ca19  1  0.57640321  0.33174317  0.50015966  1
  Ca2+  Ca20  1  0.57483757  0.32715492  0.82268694  1
  Ca2+  Ca21  1  0.59074711  0.82835239  0.16264167  1
  Ca2+  Ca22  1  0.58506475  0.82496425  0.49476607  1
  Ca2+  Ca23  1  0.58738123  0.82693045  0.83075449  1
  Ca2+  Ca24  1  0.32691446  0.42182023  0.17232863  1
  Ca2+  Ca25  1  0.32523905  0.41993938  0.50849050  1
  Ca2+  Ca26  1  0.33318330  0.42136644  0.82604403  1
  Ca2+  Ca27  1  0.31970995  0.91487685  0.16998602  1
  Ca2+  Ca28  1  0.31813480  0.91964681  0.50928638  1
  Ca2+  Ca29  1  0.32333141  0.91791755  0.83985356  1
  Ca2+  Ca30  1  0.83060475  0.42830851  0.17430900  1
  Ca2+  Ca31  1  0.83499429  0.43431898  0.50592145  1
  Ca2+  Ca32  1  0.83496348  0.42727211  0.83343633  1
  Ca2+  Ca33  1  0.82729276  0.90506629  0.16816092  1
  Ca2+  Ca34  1  0.83199778  0.91156338  0.50419424  1
  Ca2+  Ca35  1  0.83614752  0.91934019  0.83764093  1
  Ca2+  Ca36  1  0.41302720  0.16583530  0.16078495  1
  Ca2+  Ca37  1  0.40293811  0.17233617  0.50050681  1
  Ca2+  Ca38  1  0.40594702  0.16835797  0.82519532  1
  Ca2+  Ca39  1  0.43032576  0.66734331  0.16151866  1
  Ca2+  Ca40  1  0.42677824  0.65770596  0.50041549  1
  Ca2+  Ca41  1  0.42834670  0.66183224  0.82526070  1
  Ca2+  Ca42  1  0.92129655  0.16415269  0.16362871  1
  Ca2+  Ca43  1  0.92205070  0.16673882  0.49514147  1
  Ca2+  Ca44  1  0.91126234  0.16472351  0.82634868  1
  Ca2+  Ca45  1  0.91990498  0.67748544  0.16199056  1
  Ca2+  Ca46  1  0.91722889  0.67409803  0.49945735  1
  Ca2+  Ca47  1  0.92571261  0.67989453  0.82661720  1
  Al0+  Al48  1  0.00230362  0.00395572  0.00100660  1
  Al0+  Al49  1  0.00028775  0.00220385  0.32644532  1
  Al0+  Al50  1  -0.00139126  0.00159160  0.66982600  1
  Al0+  Al51  1  -0.00117986  0.49833970  -0.00064507  1
  Al0+  Al52  1  -0.00122633  0.49941389  0.34207994  1
  Al0+  Al53  1  -0.00278688  0.50009288  0.67323853  1
  Al0+  Al54  1  0.50264287  0.00088712  0.00605980  1
  Al0+  Al55  1  0.50051741  0.00107020  0.33753767  1
  Al0+  Al56  1  0.50161961  -0.00034683  0.66780017  1
  Al0+  Al57  1  0.49896472  0.49779893  -0.00372846  1
  Al0+  Al58  1  0.50088390  0.49835802  0.32693874  1
  Al0+  Al59  1  0.49873704  0.49584499  0.65937838  1
  Al0+  Al60  1  0.24905358  0.25227736  0.00200280  1
  Al0+  Al61  1  0.24962488  0.25182041  0.32848398  1
  Al0+  Al62  1  0.24862463  0.25065970  0.66824749  1
  Al0+  Al63  1  0.25250298  0.74641934  0.00342665  1
  Al0+  Al64  1  0.25180256  0.75010506  0.33895306  1
  Al0+  Al65  1  0.25120400  0.74648023  0.67098716  1
  Al0+  Al66  1  0.74906776  0.25118446  0.00351523  1
  Al0+  Al67  1  0.74848092  0.25122370  0.33176095  1
  Al0+  Al68  1  0.74874625  0.24988183  0.66699633  1
  Al0+  Al69  1  0.75293058  0.74975766  -0.00521753  1
  Al0+  Al70  1  0.75059403  0.75090791  0.33456501  1
  Al0+  Al71  1  0.75074084  0.74977683  0.66464920  1
  Al0+  Al72  1  0.68264670  0.92658168  0.01481192  1
  Al0+  Al73  1  0.07047612  0.18108506  0.31811353  1
  Al0+  Al74  1  0.57075175  0.67913810  0.98536148  1
  Al0+  Al75  1  0.18054654  0.43057970  0.34634750  1
  Al0+  Al76  1  0.81956571  0.07154037  0.67794184  1
  Al0+  Al77  1  0.17688708  0.92873421  0.34745701  1
  Al0+  Al78  1  0.56900587  0.68032186  0.65175499  1
  Al0+  Al79  1  0.32362097  0.57039081  0.68136560  1
  Al0+  Al80  1  0.17773333  0.92641894  0.68071265  1
  Al0+  Al81  1  0.82276470  0.07454954  0.01674374  1
  Al0+  Al82  1  0.56898231  0.68164122  0.31947514  1
  Al0+  Al83  1  0.81910773  0.57273051  0.68327710  1
  Al0+  Al84  1  0.32125516  0.07028993  0.67839354  1
  Al0+  Al85  1  0.93234883  0.82330184  0.98389518  1
  Al0+  Al86  1  0.07308148  0.67559713  0.98736499  1
  Al0+  Al87  1  0.32081398  0.07273352  0.01511504  1
  Al0+  Al88  1  0.81862374  0.57105760  0.34700064  1
  Al0+  Al89  1  0.67979159  0.92936776  0.34891982  1
  Al0+  Al90  1  0.42833288  0.31647855  0.65096888  1
  Al0+  Al91  1  0.17784558  0.42963663  0.68360762  1
  Al0+  Al92  1  0.93110121  0.82000487  0.31915744  1
  Al0+  Al93  1  0.17985654  0.92573026  0.01567867  1
  Al0+  Al94  1  0.93197927  0.82267571  0.65029639  1
  Al0+  Al95  1  0.07304626  0.67662759  0.65131639  1
  Si0+  Si96  1  0.07397896  0.67590645  0.32125316  1
  Si0+  Si97  1  0.32559748  0.56886128  0.01600427  1
  Si0+  Si98  1  0.57173017  0.17931288  0.98545162  1
  Si0+  Si99  1  0.06838800  0.18225972  0.65291006  1
  Si0+  Si100  1  0.42837801  0.82313521  0.98559211  1
  Si0+  Si101  1  0.42804638  0.31908004  0.98328541  1
  Si0+  Si102  1  0.42632691  0.82495016  0.65112025  1
  Si0+  Si103  1  0.67845764  0.92654952  0.68288287  1
  Si0+  Si104  1  0.81952101  0.56872818  0.01469211  1
  Si0+  Si105  1  0.57291749  0.17732239  0.31650832  1
  Si0+  Si106  1  0.67577245  0.42546810  0.35012332  1
  Si0+  Si107  1  0.82174846  0.07431070  0.34904340  1
  Si0+  Si108  1  0.67653580  0.42931015  0.01418358  1
  Si0+  Si109  1  0.42625034  0.82529821  0.31758190  1
  Si0+  Si110  1  0.57437986  0.17612846  0.64884345  1
  Si0+  Si111  1  0.92649188  0.32453155  0.31741721  1
  Si0+  Si112  1  0.32516974  0.57143074  0.34860396  1
  Si0+  Si113  1  0.67791348  0.42745666  0.68240143  1
  Si0+  Si114  1  0.32133104  0.07226922  0.34860094  1
  Si0+  Si115  1  0.92510883  0.32210085  0.65201745  1
  Si0+  Si116  1  0.43001881  0.31872016  0.31496291  1
  Si0+  Si117  1  0.17845546  0.43107207  0.01620465  1
  Si0+  Si118  1  0.92708686  0.32049882  0.98491453  1
  Si0+  Si119  1  0.07194809  0.18220447  0.98268577  1
  O2-  O120  1  0.25321839  -0.00243021  0.06565156  1
  O2-  O121  1  0.25477776  0.00187395  0.39185094  1
  O2-  O122  1  0.25732904  -0.00797273  0.72845279  1
  O2-  O123  1  0.24651839  0.50562510  0.05726442  1
  O2-  O124  1  0.25056806  0.50920824  0.39183948  1
  O2-  O125  1  0.24554092  0.50579764  0.73375731  1
  O2-  O126  1  0.75720205  -0.00373095  0.06573481  1
  O2-  O127  1  0.75498227  0.00463266  0.39381928  1
  O2-  O128  1  0.74536510  -0.00244107  0.72514432  1
  O2-  O129  1  0.74420365  0.50228775  0.05785157  1
  O2-  O130  1  0.74355598  0.49489220  0.39282786  1
  O2-  O131  1  0.74277823  0.49812770  0.72891094  1
  O2-  O132  1  -0.00602408  0.25558128  0.27192794  1
  O2-  O133  1  -0.00181751  0.25385607  0.60988458  1
  O2-  O134  1  -0.00508703  0.24745187  0.94136143  1
  O2-  O135  1  0.01020757  0.74776425  0.27510756  1
  O2-  O136  1  0.00594432  0.75241185  0.60010734  1
  O2-  O137  1  0.00967649  0.75483458  0.93732140  1
  O2-  O138  1  0.50114805  0.24774455  0.27316903  1
  O2-  O139  1  0.49993146  0.23843924  0.60381054  1
  O2-  O140  1  0.49563805  0.24438303  0.94224253  1
  O2-  O141  1  0.49405278  0.75567545  0.27232985  1
  O2-  O142  1  0.49319878  0.75442301  0.60589455  1
  O2-  O143  1  0.49719551  0.75516093  0.93993493  1
  O2-  O144  1  0.07429387  0.18719920  0.08781752  1
  O2-  O145  1  0.07050780  0.18244780  0.43143430  1
  O2-  O146  1  0.06722303  0.18417506  0.75819154  1
  O2-  O147  1  0.06576701  0.66801137  0.10113811  1
  O2-  O148  1  0.07154323  0.67394329  0.42614977  1
  O2-  O149  1  0.06719617  0.67628079  0.76474419  1
  O2-  O150  1  0.57263491  0.18507162  0.09074234  1
  O2-  O151  1  0.57511877  0.17964855  0.42111982  1
  O2-  O152  1  0.57878188  0.18134605  0.75426888  1
  O2-  O153  1  0.56953635  0.67675474  0.09859685  1
  O2-  O154  1  0.56765327  0.68044634  0.43216698  1
  O2-  O155  1  0.56977677  0.68155877  0.76504115  1
  O2-  O156  1  0.18301707  0.43043077  0.23248107  1
  O2-  O157  1  0.18090614  0.42574412  0.57001312  1
  O2-  O158  1  0.17834395  0.42758037  0.91185760  1
  O2-  O159  1  0.17737483  0.92975060  0.23456617  1
  O2-  O160  1  0.17443791  0.93267247  0.56694565  1
  O2-  O161  1  0.18069762  0.92779379  0.90252755  1
  O2-  O162  1  0.67630570  0.42294160  0.24406592  1
  O2-  O163  1  0.68167440  0.42434633  0.57693452  1
  O2-  O164  1  0.67713145  0.42645126  0.90958777  1
  O2-  O165  1  0.68055326  0.92924833  0.23608593  1
  O2-  O166  1  0.67881979  0.92750318  0.57705332  1
  O2-  O167  1  0.68073491  0.92946342  0.90137992  1
  O2-  O168  1  0.42980149  0.32098249  0.08881051  1
  O2-  O169  1  0.42911900  0.31827764  0.41952886  1
  O2-  O170  1  0.43067690  0.31593666  0.76440782  1
  O2-  O171  1  0.42838910  0.81968950  0.09139708  1
  O2-  O172  1  0.42710955  0.82585639  0.42279224  1
  O2-  O173  1  0.43122695  0.82745076  0.75667865  1
  O2-  O174  1  0.92872867  0.32375108  0.08999782  1
  O2-  O175  1  0.92518755  0.32329239  0.42272591  1
  O2-  O176  1  0.92294302  0.31921277  0.75751964  1
  O2-  O177  1  0.92925132  0.81715896  0.09779474  1
  O2-  O178  1  0.92962220  0.82042805  0.43170665  1
  O2-  O179  1  0.93100070  0.82394937  0.76356763  1
  O2-  O180  1  0.32146426  0.07245409  0.24302793  1
  O2-  O181  1  0.31524512  0.07194469  0.56460422  1
  O2-  O182  1  0.31699345  0.07487287  0.90207869  1
  O2-  O183  1  0.32769208  0.56748855  0.24249494  1
  O2-  O184  1  0.32726438  0.56258114  0.56778777  1
  O2-  O185  1  0.33363417  0.56294038  0.91215055  1
  O2-  O186  1  0.81809499  0.07765054  0.24384399  1
  O2-  O187  1  0.81833022  0.07502822  0.56491221  1
  O2-  O188  1  0.81616774  0.08049368  0.90362793  1
  O2-  O189  1  0.81720374  0.56866404  0.23318546  1
  O2-  O190  1  0.81742330  0.57152644  0.57011905  1
  O2-  O191  1  0.81877270  0.56513009  0.91002183  1
  O2-  O192  1  0.03966116  0.08699557  0.25997363  1
  O2-  O193  1  0.03837922  0.09159985  0.60532922  1
  O2-  O194  1  0.05161052  0.08889560  0.93657132  1
  O2-  O195  1  0.04432849  0.58229654  0.27589639  1
  O2-  O196  1  0.03887398  0.57745608  0.60169076  1
  O2-  O197  1  0.03784770  0.57906853  0.93324271  1
  O2-  O198  1  0.54484569  0.08541570  0.26975020  1
  O2-  O199  1  0.55694781  0.07999875  0.60541121  1
  O2-  O200  1  0.55186162  0.08507189  0.94070530  1
  O2-  O201  1  0.54205184  0.58321161  0.26451548  1
  O2-  O202  1  0.54105922  0.58244060  0.59833170  1
  O2-  O203  1  0.53889088  0.58172528  0.93267551  1
  O2-  O204  1  0.16495746  0.21653795  0.26166644  1
  O2-  O205  1  0.15922861  0.21092261  0.60493474  1
  O2-  O206  1  0.16083989  0.21911950  0.93538236  1
  O2-  O207  1  0.17100559  0.69421928  0.27835693  1
  O2-  O208  1  0.17684624  0.69162064  0.60452919  1
  O2-  O209  1  0.17747688  0.68925713  0.94201999  1
  O2-  O210  1  0.66336227  0.20741732  0.26686888  1
  O2-  O211  1  0.66422206  0.21013232  0.59910815  1
  O2-  O212  1  0.66112271  0.21439527  0.93752734  1
  O2-  O213  1  0.66517951  0.71428677  0.26652009  1
  O2-  O214  1  0.66490931  0.71332448  0.59827818  1
  O2-  O215  1  0.66758713  0.70774034  0.93183242  1
  O2-  O216  1  0.08532039  0.45447255  0.06377377  1
  O2-  O217  1  0.08258949  0.45155207  0.40092453  1
  O2-  O218  1  0.07781676  0.45054221  0.73649110  1
  O2-  O219  1  0.08310257  0.96036190  0.06790285  1
  O2-  O220  1  0.08124157  0.96617034  0.39865674  1
  O2-  O221  1  0.08389974  0.96566765  0.73505516  1
  O2-  O222  1  0.58352154  0.45310073  0.06163940  1
  O2-  O223  1  0.58096043  0.44996804  0.39330595  1
  O2-  O224  1  0.58263189  0.44892263  0.72515026  1
  O2-  O225  1  0.58500341  0.95605231  0.06952008  1
  O2-  O226  1  0.58328440  0.96046123  0.40328705  1
  O2-  O227  1  0.58423428  0.94878059  0.72870878  1
  O2-  O228  1  0.21190097  0.34183291  0.06555890  1
  O2-  O229  1  0.21697306  0.33487913  0.39826632  1
  O2-  O230  1  0.21187623  0.33329559  0.73741171  1
  O2-  O231  1  0.20591234  0.82632498  0.06949793  1
  O2-  O232  1  0.20477400  0.83146812  0.40182049  1
  O2-  O233  1  0.19871758  0.82635954  0.73184986  1
  O2-  O234  1  0.70677226  0.33980454  0.06504829  1
  O2-  O235  1  0.69994359  0.33189295  0.39683960  1
  O2-  O236  1  0.70577680  0.33535170  0.73078858  1
  O2-  O237  1  0.71101206  0.82707760  0.06706164  1
  O2-  O238  1  0.71167405  0.83408595  0.40311227  1
  O2-  O239  1  0.70660735  0.83466810  0.72927989  1
  O2-  O240  1  0.45834767  0.40950064  0.26487538  1
  O2-  O241  1  0.46263303  0.40951173  0.59260120  1
  O2-  O242  1  0.46020248  0.40844031  0.93450488  1
  O2-  O243  1  0.45196086  0.91939432  0.27241782  1
  O2-  O244  1  0.45249671  0.91820123  0.60308260  1
  O2-  O245  1  0.45289967  0.91818516  0.94218740  1
  O2-  O246  1  0.95378676  0.41796198  0.27134905  1
  O2-  O247  1  0.95039594  0.41504521  0.60744617  1
  O2-  O248  1  0.95794412  0.41046095  0.93585039  1
  O2-  O249  1  0.95694129  0.91739053  0.26444516  1
  O2-  O250  1  0.95740582  0.92305744  0.59842764  1
  O2-  O251  1  0.95461320  0.92517439  0.93525066  1
  O2-  O252  1  0.33944513  0.29101457  0.26472175  1
  O2-  O253  1  0.33116676  0.28657307  0.59662457  1
  O2-  O254  1  0.33492452  0.29468821  0.93740170  1
  O2-  O255  1  0.33221587  0.79907035  0.27159428  1
  O2-  O256  1  0.33157417  0.80196709  0.60703826  1
  O2-  O257  1  0.33495786  0.79696095  0.94016858  1
  O2-  O258  1  0.83178134  0.30148581  0.27075255  1
  O2-  O259  1  0.83476165  0.29267453  0.60270795  1
  O2-  O260  1  0.83368239  0.29628302  0.93857625  1
  O2-  O261  1  0.83592416  0.78372089  0.26578254  1
  O2-  O262  1  0.83353740  0.79081608  0.59910990  1
  O2-  O263  1  0.83597837  0.79015728  0.92994322  1
  O2-  O264  1  0.42216676  0.05318427  0.06585276  1
  O2-  O265  1  0.41612682  0.05354594  0.39483752  1
  O2-  O266  1  0.42423159  0.05473398  0.72757398  1
  O2-  O267  1  0.41313603  0.53102381  0.06709865  1
  O2-  O268  1  0.41652496  0.53680106  0.39373590  1
  O2-  O269  1  0.41963198  0.53039514  0.73395877  1
  O2-  O270  1  0.92497375  0.05753171  0.06408091  1
  O2-  O271  1  0.91696777  0.05152283  0.39094531  1
  O2-  O272  1  0.91513316  0.04439326  0.73433960  1
  O2-  O273  1  0.90876572  0.53416916  0.06297994  1
  O2-  O274  1  0.91310822  0.53940402  0.40404163  1
  O2-  O275  1  0.91228762  0.53768060  0.73994063  1
  O2-  O276  1  0.28924951  0.17117171  0.06854136  1
  O2-  O277  1  0.29265543  0.16636680  0.39139958  1
  O2-  O278  1  0.28658613  0.16582886  0.73250387  1
  O2-  O279  1  0.30845970  0.66247627  0.06327741  1
  O2-  O280  1  0.31040775  0.66722066  0.39278923  1
  O2-  O281  1  0.30989893  0.67134973  0.73322246  1
  O2-  O282  1  0.78839411  0.17119441  0.07177047  1
  O2-  O283  1  0.79475651  0.16828463  0.39491028  1
  O2-  O284  1  0.78822436  0.16794677  0.73326249  1
  O2-  O285  1  0.79428659  0.66139843  0.06009040  1
  O2-  O286  1  0.78508663  0.66527263  0.40183797  1
  O2-  O287  1  0.78618266  0.66823956  0.73691140  1
