# generated using pymatgen
data_Ca2Al2SiO7
_symmetry_space_group_name_H-M   'P 1'
_cell_length_a   15.48122839
_cell_length_b   15.47611131
_cell_length_c   15.30151657
_cell_angle_alpha   89.99509737
_cell_angle_beta   90.02390702
_cell_angle_gamma   90.02012161
_symmetry_Int_Tables_number   1
_chemical_formula_structural   Ca2Al2SiO7
_chemical_formula_sum   'Ca48 Al48 Si24 O168'
_cell_volume   3666.07776389
_cell_formula_units_Z   24
loop_
 _symmetry_equiv_pos_site_id
 _symmetry_equiv_pos_as_xyz
  1  'x, y, z'
loop_
 _atom_type_symbol
 _atom_type_oxidation_number
  Ca2+  2.0
  Al0+  0.0
  Si0+  0.0
  O2-  -2.0
loop_
 _atom_site_type_symbol
 _atom_site_label
 _atom_site_symmetry_multiplicity
 _atom_site_fract_x
 _atom_site_fract_y
 _atom_site_fract_z
 _atom_site_occupancy
  Ca2+  Ca0  1  0.16854270  0.08633755  0.16654649  1
  Ca2+  Ca1  1  0.17439758  0.08215995  0.50346744  1
  Ca2+  Ca2  1  0.16916536  0.08306283  0.83940386  1
  Ca2+  Ca3  1  0.17724820  0.58243724  0.16570957  1
  Ca2+  Ca4  1  0.17337189  0.57664815  0.51012971  1
  Ca2+  Ca5  1  0.17360886  0.57350761  0.84147503  1
  Ca2+  Ca6  1  0.66677731  0.07227820  0.17527177  1
  Ca2+  Ca7  1  0.66477277  0.07675185  0.50786494  1
  Ca2+  Ca8  1  0.66934311  0.07198004  0.83712083  1
  Ca2+  Ca9  1  0.66071165  0.58562558  0.16506826  1
  Ca2+  Ca10  1  0.66290229  0.58018057  0.50889614  1
  Ca2+  Ca11  1  0.66629134  0.58260635  0.84094362  1
  Ca2+  Ca12  1  0.07901248  0.32765407  0.15506806  1
  Ca2+  Ca13  1  0.08006232  0.33598073  0.49770815  1
  Ca2+  Ca14  1  0.08553548  0.33369703  0.83171245  1
  Ca2+  Ca15  1  0.07853916  0.83251622  0.16050474  1
  Ca2+  Ca16  1  0.07303342  0.83353455  0.50016754  1
  Ca2+  Ca17  1  0.07093525  0.83078523  0.82601518  1
  Ca2+  Ca18  1  0.58775877  0.32813070  0.16376028  1
  Ca2+  Ca19  1  0.59291756  0.32194162  0.49681439  1
  Ca2+  Ca20  1  0.59656540  0.32924954  0.82732954  1
  Ca2+  Ca21  1  0.58448770  0.82796979  0.16008852  1
  Ca2+  Ca22  1  0.58647394  0.82606213  0.49564103  1
  Ca2+  Ca23  1  0.58431871  0.82560333  0.82680697  1
  Ca2+  Ca24  1  0.33526187  0.41866124  0.16864337  1
  Ca2+  Ca25  1  0.32900248  0.40974055  0.50565650  1
  Ca2+  Ca26  1  0.32485833  0.42133168  0.84381451  1
  Ca2+  Ca27  1  0.33403541  0.90648926  0.17120660  1
  Ca2+  Ca28  1  0.33696122  0.90830404  0.50447684  1
  Ca2+  Ca29  1  0.33886654  0.91202467  0.83814519  1
  Ca2+  Ca30  1  0.82687414  0.42128248  0.16020030  1
  Ca2+  Ca31  1  0.82609260  0.42560915  0.50931130  1
  Ca2+  Ca32  1  0.82098941  0.42928573  0.83414210  1
  Ca2+  Ca33  1  0.81842928  0.92359047  0.16786544  1
  Ca2+  Ca34  1  0.81911285  0.92495555  0.50493523  1
  Ca2+  Ca35  1  0.81978711  0.91717633  0.83420548  1
  Ca2+  Ca36  1  0.42319850  0.17165395  0.16985520  1
  Ca2+  Ca37  1  0.43373003  0.17258814  0.49700785  1
  Ca2+  Ca38  1  0.42760925  0.17058618  0.82757098  1
  Ca2+  Ca39  1  0.42737294  0.67497269  0.16008588  1
  Ca2+  Ca40  1  0.43020284  0.67432003  0.49701754  1
  Ca2+  Ca41  1  0.42470068  0.67292446  0.83202338  1
  Ca2+  Ca42  1  0.91914644  0.15698526  0.15706414  1
  Ca2+  Ca43  1  0.91179844  0.16108248  0.49672968  1
  Ca2+  Ca44  1  0.91809449  0.15816721  0.82891164  1
  Ca2+  Ca45  1  0.91631614  0.66505590  0.15818732  1
  Ca2+  Ca46  1  0.90370892  0.67609868  0.50349171  1
  Ca2+  Ca47  1  0.90987404  0.66688285  0.82531122  1
  Al0+  Al48  1  0.00318676  -0.00107777  -0.00275118  1
  Al0+  Al49  1  0.00148543  -0.00137541  0.33593306  1
  Al0+  Al50  1  0.00350222  -0.00100401  0.66252007  1
  Al0+  Al51  1  0.00008260  0.49708170  0.00533474  1
  Al0+  Al52  1  0.00131133  0.49832420  0.33259560  1
  Al0+  Al53  1  0.00116385  0.49690559  0.67264663  1
  Al0+  Al54  1  0.49809789  0.00301078  0.00194971  1
  Al0+  Al55  1  0.49648109  0.00171799  0.33197856  1
  Al0+  Al56  1  0.49827790  0.00298610  0.66421602  1
  Al0+  Al57  1  0.49829265  0.50068421  0.00485453  1
  Al0+  Al58  1  0.49815559  0.50223723  0.33011851  1
  Al0+  Al59  1  0.49586874  0.49986348  0.66777492  1
  Al0+  Al60  1  0.24783486  0.24747211  -0.00080995  1
  Al0+  Al61  1  0.24724075  0.24866456  0.33136728  1
  Al0+  Al62  1  0.24910060  0.24685446  0.67026957  1
  Al0+  Al63  1  0.24824884  0.74899445  0.00034664  1
  Al0+  Al64  1  0.24879657  0.74682007  0.33438290  1
  Al0+  Al65  1  0.24772822  0.74855032  0.66483175  1
  Al0+  Al66  1  0.75436671  0.25319997  0.00364749  1
  Al0+  Al67  1  0.75374224  0.25321286  0.32949658  1
  Al0+  Al68  1  0.75506964  0.25203945  0.66738427  1
  Al0+  Al69  1  0.75045897  0.75209977  0.00381906  1
  Al0+  Al70  1  0.75240676  0.75226444  0.33100053  1
  Al0+  Al71  1  0.75115779  0.75320830  0.66205368  1
  Al0+  Al72  1  0.82343205  0.07141043  0.68062322  1
  Al0+  Al73  1  0.57229177  0.67772063  0.65272396  1
  Al0+  Al74  1  0.82207879  0.07242790  0.34746261  1
  Al0+  Al75  1  0.67675058  0.42913189  0.01628030  1
  Al0+  Al76  1  0.82324637  0.06953382  0.01193499  1
  Al0+  Al77  1  0.81974212  0.57334278  0.01437809  1
  Al0+  Al78  1  0.42744914  0.82320956  0.98525851  1
  Al0+  Al79  1  0.42683323  0.32056694  0.31979393  1
  Al0+  Al80  1  0.92870895  0.82225397  0.65186441  1
  Al0+  Al81  1  0.57426676  0.68062948  0.31698857  1
  Al0+  Al82  1  0.06925925  0.17887102  0.98390018  1
  Al0+  Al83  1  0.81904491  0.57281854  0.67778083  1
  Al0+  Al84  1  0.67590229  0.42974670  0.67803362  1
  Al0+  Al85  1  0.32063137  0.57225995  0.01742456  1
  Al0+  Al86  1  0.57209465  0.68000630  0.98384108  1
  Al0+  Al87  1  0.42674453  0.82090183  0.31942658  1
  Al0+  Al88  1  0.57416012  0.18311934  0.65626055  1
  Al0+  Al89  1  0.18061570  0.42684796  0.68095764  1
  Al0+  Al90  1  0.67573135  0.93097035  0.01523940  1
  Al0+  Al91  1  0.67536125  0.93032967  0.68096618  1
  Al0+  Al92  1  0.42758367  0.82171474  0.65226911  1
  Al0+  Al93  1  0.18017536  0.42633904  0.01811530  1
  Al0+  Al94  1  0.57422862  0.18027410  0.31769229  1
  Al0+  Al95  1  0.67575126  0.92990257  0.34954705  1
  Si0+  Si96  1  0.92807501  0.32380877  0.97878065  1
  Si0+  Si97  1  0.32030570  0.57092771  0.35153113  1
  Si0+  Si98  1  0.93284431  0.32075459  0.65024254  1
  Si0+  Si99  1  0.67824513  0.43135992  0.34702125  1
  Si0+  Si100  1  0.93082546  0.32414643  0.31631100  1
  Si0+  Si101  1  0.93226836  0.82108235  0.31592123  1
  Si0+  Si102  1  0.17973427  0.92744883  0.68143798  1
  Si0+  Si103  1  0.42834266  0.31981697  0.98657484  1
  Si0+  Si104  1  0.06957942  0.67541364  0.65082947  1
  Si0+  Si105  1  0.82441523  0.57007433  0.34715035  1
  Si0+  Si106  1  0.17997101  0.92645977  0.34932984  1
  Si0+  Si107  1  0.07039766  0.67633209  0.98556096  1
  Si0+  Si108  1  0.06842937  0.17835755  0.31865668  1
  Si0+  Si109  1  0.07312087  0.17795623  0.64862745  1
  Si0+  Si110  1  0.32027447  0.57379694  0.68450723  1
  Si0+  Si111  1  0.32080173  0.07172065  0.01596364  1
  Si0+  Si112  1  0.31980250  0.06973697  0.68249459  1
  Si0+  Si113  1  0.18026740  0.92907364  0.01412361  1
  Si0+  Si114  1  0.31801566  0.07331592  0.34928222  1
  Si0+  Si115  1  0.42452611  0.32074181  0.65476266  1
  Si0+  Si116  1  0.93138519  0.81952367  0.98550184  1
  Si0+  Si117  1  0.57349211  0.18146342  0.98611160  1
  Si0+  Si118  1  0.17966871  0.42835155  0.34920269  1
  Si0+  Si119  1  0.07035816  0.67696831  0.31825351  1
  O2-  O120  1  0.25526255  -0.00518291  0.05729407  1
  O2-  O121  1  0.25414220  -0.00545719  0.39069147  1
  O2-  O122  1  0.25462341  -0.00688813  0.72434234  1
  O2-  O123  1  0.25184052  0.49713519  0.06924349  1
  O2-  O124  1  0.25291924  0.49530334  0.39332897  1
  O2-  O125  1  0.25573865  0.50012833  0.72713170  1
  O2-  O126  1  0.74531060  0.00669349  0.06381118  1
  O2-  O127  1  0.74362363  0.00801936  0.39714766  1
  O2-  O128  1  0.74884275  0.00236815  0.72941143  1
  O2-  O129  1  0.74485303  0.50548454  0.06597362  1
  O2-  O130  1  0.74748354  0.50513310  0.38803826  1
  O2-  O131  1  0.73866658  0.51043760  0.72714689  1
  O2-  O132  1  -0.00606218  0.24472774  0.27661602  1
  O2-  O133  1  0.00120344  0.24718137  0.60618934  1
  O2-  O134  1  -0.00574932  0.25155639  0.93566209  1
  O2-  O135  1  -0.00020236  0.74666618  0.27366654  1
  O2-  O136  1  -0.00060467  0.74180593  0.60553135  1
  O2-  O137  1  -0.00461797  0.74192664  0.94302128  1
  O2-  O138  1  0.50338872  0.25454244  0.26821856  1
  O2-  O139  1  0.50242789  0.26275639  0.61131170  1
  O2-  O140  1  0.50512522  0.25567386  0.94362586  1
  O2-  O141  1  0.50482387  0.75674663  0.26948043  1
  O2-  O142  1  0.50261495  0.75297327  0.60314555  1
  O2-  O143  1  0.50156411  0.75441488  0.93524779  1
  O2-  O144  1  0.06896074  0.17772635  0.09755997  1
  O2-  O145  1  0.07167123  0.17993697  0.42379122  1
  O2-  O146  1  0.07551064  0.17694314  0.75314574  1
  O2-  O147  1  0.07114936  0.68052722  0.09117976  1
  O2-  O148  1  0.07074464  0.67685739  0.42313820  1
  O2-  O149  1  0.07089136  0.67801149  0.75632204  1
  O2-  O150  1  0.57041904  0.18065965  0.09099012  1
  O2-  O151  1  0.57359368  0.18247029  0.43151607  1
  O2-  O152  1  0.57083906  0.18199089  0.76960017  1
  O2-  O153  1  0.57112056  0.68220065  0.09724158  1
  O2-  O154  1  0.57289726  0.67681170  0.43045816  1
  O2-  O155  1  0.57049680  0.67637793  0.76570046  1
  O2-  O156  1  0.17822383  0.42889545  0.24499039  1
  O2-  O157  1  0.18149581  0.42703431  0.56691605  1
  O2-  O158  1  0.18271671  0.42685242  0.90447502  1
  O2-  O159  1  0.17670855  0.92710326  0.24420012  1
  O2-  O160  1  0.17840428  0.93016788  0.57606110  1
  O2-  O161  1  0.17767277  0.93093405  0.90918187  1
  O2-  O162  1  0.68039305  0.43004315  0.24237020  1
  O2-  O163  1  0.68205500  0.42674764  0.56396644  1
  O2-  O164  1  0.67981015  0.42706237  0.90306298  1
  O2-  O165  1  0.68005506  0.92842321  0.23615662  1
  O2-  O166  1  0.67530258  0.93130595  0.56755139  1
  O2-  O167  1  0.67602279  0.92992697  0.90191306  1
  O2-  O168  1  0.42567348  0.31416447  0.09139684  1
  O2-  O169  1  0.42228123  0.31569343  0.43336559  1
  O2-  O170  1  0.41746774  0.31385645  0.75982831  1
  O2-  O171  1  0.42492971  0.82044558  0.09838405  1
  O2-  O172  1  0.42084403  0.81359885  0.43217983  1
  O2-  O173  1  0.42381507  0.81849654  0.76515188  1
  O2-  O174  1  0.93107165  0.32514411  0.08480742  1
  O2-  O175  1  0.93571900  0.33071186  0.42120078  1
  O2-  O176  1  0.93618425  0.32205159  0.75446519  1
  O2-  O177  1  0.93737530  0.82066470  0.09089610  1
  O2-  O178  1  0.93525661  0.82090890  0.42085190  1
  O2-  O179  1  0.93382213  0.82450717  0.76489543  1
  O2-  O180  1  0.31168201  0.07850217  0.24451820  1
  O2-  O181  1  0.31498207  0.07443551  0.57756577  1
  O2-  O182  1  0.31840229  0.07448518  0.91085108  1
  O2-  O183  1  0.31518476  0.57309939  0.24716521  1
  O2-  O184  1  0.31639592  0.57473722  0.57864953  1
  O2-  O185  1  0.31600833  0.57114675  0.90373759  1
  O2-  O186  1  0.82798673  0.06616114  0.23459621  1
  O2-  O187  1  0.82243610  0.06976177  0.56707641  1
  O2-  O188  1  0.82426218  0.06401330  0.89896406  1
  O2-  O189  1  0.83120585  0.56577907  0.24279568  1
  O2-  O190  1  0.82289453  0.56730130  0.56363021  1
  O2-  O191  1  0.82218082  0.57170075  0.90134542  1
  O2-  O192  1  0.04644749  0.08430681  0.27246108  1
  O2-  O193  1  0.04946608  0.08604083  0.59932819  1
  O2-  O194  1  0.04271056  0.08109533  0.92913327  1
  O2-  O195  1  0.04337081  0.58516149  0.27037515  1
  O2-  O196  1  0.04792410  0.58022117  0.60633417  1
  O2-  O197  1  0.04828930  0.58199381  0.94170041  1
  O2-  O198  1  0.53988911  0.08357157  0.26538241  1
  O2-  O199  1  0.53605346  0.09006862  0.60036231  1
  O2-  O200  1  0.54055231  0.09143550  0.93862925  1
  O2-  O201  1  0.54172450  0.58306068  0.26504653  1
  O2-  O202  1  0.54075576  0.57861422  0.59966299  1
  O2-  O203  1  0.54220066  0.57938621  0.93561488  1
  O2-  O204  1  0.15779649  0.21004495  0.26924940  1
  O2-  O205  1  0.16420324  0.20857563  0.60038860  1
  O2-  O206  1  0.16622942  0.20922871  0.92949229  1
  O2-  O207  1  0.16101156  0.70655533  0.27036235  1
  O2-  O208  1  0.16123499  0.70447500  0.60217315  1
  O2-  O209  1  0.15929258  0.70902656  0.93651814  1
  O2-  O210  1  0.67296097  0.20788874  0.26458607  1
  O2-  O211  1  0.67082799  0.21180412  0.60119426  1
  O2-  O212  1  0.66677356  0.20745553  0.94154640  1
  O2-  O213  1  0.67477608  0.70406346  0.26546176  1
  O2-  O214  1  0.67107835  0.70270547  0.59896296  1
  O2-  O215  1  0.67269959  0.70712436  0.93458925  1
  O2-  O216  1  0.08191496  0.45374659  0.07043129  1
  O2-  O217  1  0.08902960  0.46016548  0.39745082  1
  O2-  O218  1  0.08565050  0.45717796  0.73653518  1
  O2-  O219  1  0.09160855  0.96215160  0.06458813  1
  O2-  O220  1  0.09070585  0.95900913  0.39893175  1
  O2-  O221  1  0.09087636  0.96119082  0.72991045  1
  O2-  O222  1  0.57697466  0.44907969  0.06872268  1
  O2-  O223  1  0.58500913  0.45527076  0.39299628  1
  O2-  O224  1  0.57283961  0.44211042  0.72678626  1
  O2-  O225  1  0.57730213  0.95894111  0.06833504  1
  O2-  O226  1  0.57425965  0.95268671  0.39837839  1
  O2-  O227  1  0.57728485  0.96046518  0.73319165  1
  O2-  O228  1  0.20743481  0.32664348  0.06889814  1
  O2-  O229  1  0.20372200  0.33481684  0.39583822  1
  O2-  O230  1  0.20878022  0.32956136  0.73442299  1
  O2-  O231  1  0.20127156  0.83625590  0.06264188  1
  O2-  O232  1  0.20313207  0.83365872  0.39717105  1
  O2-  O233  1  0.19960142  0.83340285  0.72752308  1
  O2-  O234  1  0.71266495  0.33354476  0.07198292  1
  O2-  O235  1  0.71029304  0.34031299  0.39363784  1
  O2-  O236  1  0.71604814  0.33623066  0.73256540  1
  O2-  O237  1  0.71060094  0.83562411  0.06914627  1
  O2-  O238  1  0.71365997  0.83264843  0.40048533  1
  O2-  O239  1  0.70765015  0.83235608  0.73132222  1
  O2-  O240  1  0.44665950  0.42149876  0.27037652  1
  O2-  O241  1  0.43460605  0.41818413  0.61285096  1
  O2-  O242  1  0.44640874  0.41479341  0.94296459  1
  O2-  O243  1  0.43828746  0.92485340  0.27312308  1
  O2-  O244  1  0.44642704  0.92357761  0.60258746  1
  O2-  O245  1  0.44744975  0.92605314  0.93706055  1
  O2-  O246  1  0.96857091  0.41108744  0.26567780  1
  O2-  O247  1  0.96580754  0.41088862  0.60112242  1
  O2-  O248  1  0.95973907  0.41593735  0.93336499  1
  O2-  O249  1  0.96812897  0.91046476  0.26900946  1
  O2-  O250  1  0.97071781  0.91393000  0.59491585  1
  O2-  O251  1  0.97004675  0.90639007  0.93685580  1
  O2-  O252  1  0.32992595  0.28586793  0.26556792  1
  O2-  O253  1  0.33550745  0.28374204  0.60481240  1
  O2-  O254  1  0.33911900  0.28468957  0.93820910  1
  O2-  O255  1  0.32839340  0.78679468  0.26700247  1
  O2-  O256  1  0.32791421  0.79180181  0.59985087  1
  O2-  O257  1  0.32733675  0.79393416  0.93427673  1
  O2-  O258  1  0.83763376  0.30601938  0.26899280  1
  O2-  O259  1  0.84160721  0.29611439  0.60046321  1
  O2-  O260  1  0.83332716  0.30261305  0.93422996  1
  O2-  O261  1  0.84069728  0.79639471  0.26836458  1
  O2-  O262  1  0.83378634  0.79634208  0.59280600  1
  O2-  O263  1  0.83793322  0.79832715  0.94049917  1
  O2-  O264  1  0.41322901  0.05267147  0.06455639  1
  O2-  O265  1  0.41180882  0.05511199  0.39525588  1
  O2-  O266  1  0.41231593  0.04903705  0.73037615  1
  O2-  O267  1  0.41797233  0.54620102  0.07141881  1
  O2-  O268  1  0.41318782  0.54703538  0.39781271  1
  O2-  O269  1  0.41439264  0.55309199  0.72968136  1
  O2-  O270  1  0.92070875  0.03450831  0.06448603  1
  O2-  O271  1  0.92001146  0.03879572  0.40098480  1
  O2-  O272  1  0.92430763  0.04255595  0.72840846  1
  O2-  O273  1  0.91738117  0.54094384  0.06842530  1
  O2-  O274  1  0.91388072  0.53619120  0.39641208  1
  O2-  O275  1  0.91475684  0.53686099  0.73186547  1
  O2-  O276  1  0.28367545  0.15900214  0.06548508  1
  O2-  O277  1  0.27858202  0.16010252  0.39947083  1
  O2-  O278  1  0.28464861  0.15739175  0.73332595  1
  O2-  O279  1  0.28360953  0.66818353  0.07114456  1
  O2-  O280  1  0.28425356  0.65912591  0.40088935  1
  O2-  O281  1  0.28702276  0.66447878  0.73148033  1
  O2-  O282  1  0.80829735  0.17225158  0.05977588  1
  O2-  O283  1  0.80665557  0.17689105  0.39343183  1
  O2-  O284  1  0.80326973  0.17209226  0.73075018  1
  O2-  O285  1  0.79932004  0.67249677  0.06881785  1
  O2-  O286  1  0.80384716  0.66540660  0.38951163  1
  O2-  O287  1  0.80572883  0.67562624  0.72443812  1
