# generated using pymatgen
data_Ca2Al2SiO7
_symmetry_space_group_name_H-M   'P 1'
_cell_length_a   15.46356700
_cell_length_b   15.46449481
_cell_length_c   15.28941427
_cell_angle_alpha   89.99503303
_cell_angle_beta   90.01344197
_cell_angle_gamma   90.00400200
_symmetry_Int_Tables_number   1
_chemical_formula_structural   Ca2Al2SiO7
_chemical_formula_sum   'Ca48 Al48 Si24 O168'
_cell_volume   3656.25309594
_cell_formula_units_Z   24
loop_
 _symmetry_equiv_pos_site_id
 _symmetry_equiv_pos_as_xyz
  1  'x, y, z'
loop_
 _atom_type_symbol
 _atom_type_oxidation_number
  Ca2+  2.0
  Al0+  0.0
  Si0+  0.0
  O2-  -2.0
loop_
 _atom_site_type_symbol
 _atom_site_label
 _atom_site_symmetry_multiplicity
 _atom_site_fract_x
 _atom_site_fract_y
 _atom_site_fract_z
 _atom_site_occupancy
  Ca2+  Ca0  1  0.17908569  0.07184162  0.16693500  1
  Ca2+  Ca1  1  0.17409859  0.08045405  0.50107157  1
  Ca2+  Ca2  1  0.17110397  0.07121233  0.84540064  1
  Ca2+  Ca3  1  0.16113180  0.57655558  0.17169434  1
  Ca2+  Ca4  1  0.16543661  0.57997127  0.50752010  1
  Ca2+  Ca5  1  0.16286203  0.57858452  0.83764748  1
  Ca2+  Ca6  1  0.65997459  0.07885744  0.16267300  1
  Ca2+  Ca7  1  0.66831242  0.07188781  0.50710478  1
  Ca2+  Ca8  1  0.66979955  0.07109376  0.84454570  1
  Ca2+  Ca9  1  0.66812695  0.58522486  0.17616100  1
  Ca2+  Ca10  1  0.67277594  0.59345810  0.50494354  1
  Ca2+  Ca11  1  0.67193464  0.59790670  0.83490789  1
  Ca2+  Ca12  1  0.08611897  0.33631107  0.16086360  1
  Ca2+  Ca13  1  0.08737827  0.34028796  0.49620136  1
  Ca2+  Ca14  1  0.09094318  0.33427404  0.83133027  1
  Ca2+  Ca15  1  0.08594217  0.82073514  0.15882693  1
  Ca2+  Ca16  1  0.07738387  0.81966916  0.49579009  1
  Ca2+  Ca17  1  0.08236538  0.82403630  0.82748155  1
  Ca2+  Ca18  1  0.57731313  0.32939001  0.15383586  1
  Ca2+  Ca19  1  0.58409293  0.33308961  0.49365619  1
  Ca2+  Ca20  1  0.57784876  0.32711599  0.83530547  1
  Ca2+  Ca21  1  0.57676654  0.82645368  0.16092853  1
  Ca2+  Ca22  1  0.58222929  0.82296027  0.49714440  1
  Ca2+  Ca23  1  0.58398973  0.83176493  0.83224223  1
  Ca2+  Ca24  1  0.32540823  0.41443019  0.16822642  1
  Ca2+  Ca25  1  0.32374647  0.42836357  0.50715358  1
  Ca2+  Ca26  1  0.32750812  0.42445568  0.83678829  1
  Ca2+  Ca27  1  0.34726818  0.92180776  0.16629254  1
  Ca2+  Ca28  1  0.34357474  0.92073492  0.49809936  1
  Ca2+  Ca29  1  0.33025082  0.91836256  0.84709477  1
  Ca2+  Ca30  1  0.82208882  0.42361689  0.17580557  1
  Ca2+  Ca31  1  0.82627309  0.43120244  0.49962053  1
  Ca2+  Ca32  1  0.83322288  0.42596426  0.83485364  1
  Ca2+  Ca33  1  0.82774049  0.91925463  0.16351854  1
  Ca2+  Ca34  1  0.82778337  0.90906551  0.50952034  1
  Ca2+  Ca35  1  0.82413226  0.91160843  0.83893707  1
  Ca2+  Ca36  1  0.41545079  0.17008525  0.15617006  1
  Ca2+  Ca37  1  0.41508084  0.16867907  0.49336823  1
  Ca2+  Ca38  1  0.41233754  0.16886749  0.83821772  1
  Ca2+  Ca39  1  0.42844589  0.67242710  0.15772808  1
  Ca2+  Ca40  1  0.42479338  0.66743768  0.49334290  1
  Ca2+  Ca41  1  0.42543308  0.66897510  0.82947998  1
  Ca2+  Ca42  1  0.91531758  0.16954391  0.15846259  1
  Ca2+  Ca43  1  0.92069270  0.17096676  0.49545494  1
  Ca2+  Ca44  1  0.91346206  0.16697700  0.83158635  1
  Ca2+  Ca45  1  0.92592778  0.65793801  0.16575070  1
  Ca2+  Ca46  1  0.92097807  0.66024145  0.50075440  1
  Ca2+  Ca47  1  0.92640809  0.66998079  0.82529830  1
  Al0+  Al48  1  0.00000739  0.00035124  0.00839413  1
  Al0+  Al49  1  0.00198644  0.00057730  0.33281095  1
  Al0+  Al50  1  0.00115905  0.00289728  0.66055600  1
  Al0+  Al51  1  -0.00095644  0.49930995  -0.00040397  1
  Al0+  Al52  1  -0.00368954  0.49850906  0.33661556  1
  Al0+  Al53  1  -0.00306974  0.49731519  0.67085449  1
  Al0+  Al54  1  0.50197924  0.00004578  0.00042866  1
  Al0+  Al55  1  0.50141528  0.00235928  0.33632164  1
  Al0+  Al56  1  0.50244207  0.00167123  0.67091839  1
  Al0+  Al57  1  0.49981747  0.49892205  -0.00961179  1
  Al0+  Al58  1  0.49721091  0.49709226  0.33203321  1
  Al0+  Al59  1  0.49868856  0.49777620  0.66563513  1
  Al0+  Al60  1  0.24770308  0.24993715  0.00190014  1
  Al0+  Al61  1  0.24986758  0.24730575  0.34103750  1
  Al0+  Al62  1  0.25051066  0.25039468  0.66801555  1
  Al0+  Al63  1  0.25118514  0.74584594  -0.00434619  1
  Al0+  Al64  1  0.24808178  0.75222573  0.32528731  1
  Al0+  Al65  1  0.25140605  0.75169575  0.66435983  1
  Al0+  Al66  1  0.75027405  0.25212950  -0.00270537  1
  Al0+  Al67  1  0.75118958  0.24981995  0.33730515  1
  Al0+  Al68  1  0.75030999  0.25006289  0.66350476  1
  Al0+  Al69  1  0.75327510  0.75128102  0.00512428  1
  Al0+  Al70  1  0.75150986  0.75236530  0.33335790  1
  Al0+  Al71  1  0.74888321  0.75077184  0.66914077  1
  Al0+  Al72  1  0.67481553  0.42760226  0.34657452  1
  Al0+  Al73  1  0.07183681  0.67681769  0.65149710  1
  Al0+  Al74  1  0.67918428  0.92747699  0.01832480  1
  Al0+  Al75  1  0.57153663  0.67724811  0.31940506  1
  Al0+  Al76  1  0.17865682  0.92273731  0.01455536  1
  Al0+  Al77  1  0.57459222  0.67883485  0.98430135  1
  Al0+  Al78  1  0.81748533  0.56995764  0.68254298  1
  Al0+  Al79  1  0.42992876  0.82087697  0.98422016  1
  Al0+  Al80  1  0.68096873  0.92971632  0.68089920  1
  Al0+  Al81  1  0.06791412  0.67730424  0.31946140  1
  Al0+  Al82  1  0.42452517  0.32068091  0.98332339  1
  Al0+  Al83  1  0.32078967  0.06777369  0.34824477  1
  Al0+  Al84  1  0.81781342  0.57268509  0.34887515  1
  Al0+  Al85  1  0.17899170  0.43153507  0.01465498  1
  Al0+  Al86  1  0.57242696  0.17916340  0.98437032  1
  Al0+  Al87  1  0.17886571  0.43042642  0.68286260  1
  Al0+  Al88  1  0.32321590  0.57474732  0.68150566  1
  Al0+  Al89  1  0.43003451  0.82349257  0.31887687  1
  Al0+  Al90  1  0.17975659  0.43037702  0.34662136  1
  Al0+  Al91  1  0.32088746  0.06920384  0.01397391  1
  Al0+  Al92  1  0.56887621  0.67933230  0.65321745  1
  Al0+  Al93  1  0.92921402  0.82150045  0.65349745  1
  Al0+  Al94  1  0.82088222  0.07409417  0.01484479  1
  Al0+  Al95  1  0.07043329  0.67671259  0.98634351  1
  Si0+  Si96  1  0.92691333  0.32035804  0.64927407  1
  Si0+  Si97  1  0.32519487  0.57044971  0.01698797  1
  Si0+  Si98  1  0.07270850  0.18066796  0.65031918  1
  Si0+  Si99  1  0.92781054  0.82596462  0.31455281  1
  Si0+  Si100  1  0.32128809  0.07065014  0.68218060  1
  Si0+  Si101  1  0.68114766  0.93231659  0.34969747  1
  Si0+  Si102  1  0.17771259  0.93077445  0.67863077  1
  Si0+  Si103  1  0.42642089  0.31868092  0.32054642  1
  Si0+  Si104  1  0.67843033  0.42968917  0.01139710  1
  Si0+  Si105  1  0.07273056  0.17855006  0.31675428  1
  Si0+  Si106  1  0.57111682  0.17917421  0.64998789  1
  Si0+  Si107  1  0.57226394  0.18100564  0.32024390  1
  Si0+  Si108  1  0.42784148  0.31861135  0.64880339  1
  Si0+  Si109  1  0.17549840  0.92613716  0.35208108  1
  Si0+  Si110  1  0.82054135  0.57021706  0.01491952  1
  Si0+  Si111  1  0.93077138  0.82367897  0.98561674  1
  Si0+  Si112  1  0.42782354  0.82634857  0.65063252  1
  Si0+  Si113  1  0.06918702  0.17857899  0.98647696  1
  Si0+  Si114  1  0.92962379  0.31826846  0.31789147  1
  Si0+  Si115  1  0.32139477  0.57510327  0.34661462  1
  Si0+  Si116  1  0.67661611  0.42430064  0.68483425  1
  Si0+  Si117  1  0.92879456  0.32125663  0.98431671  1
  Si0+  Si118  1  0.82397009  0.07377850  0.68089226  1
  Si0+  Si119  1  0.82447186  0.07222778  0.34996594  1
  O2-  O120  1  0.25562100  -0.00931320  0.06381976  1
  O2-  O121  1  0.24900341  -0.00937097  0.39603860  1
  O2-  O122  1  0.25335605  -0.00357607  0.72187008  1
  O2-  O123  1  0.25391278  0.50462570  0.06245672  1
  O2-  O124  1  0.25021897  0.50902692  0.39202074  1
  O2-  O125  1  0.24605112  0.50719284  0.73150586  1
  O2-  O126  1  0.74844698  0.00413873  0.06670534  1
  O2-  O127  1  0.75670777  -0.00091669  0.39254202  1
  O2-  O128  1  0.75915083  0.00269128  0.72463153  1
  O2-  O129  1  0.74302178  0.50542395  0.05495845  1
  O2-  O130  1  0.73828263  0.50694653  0.39726165  1
  O2-  O131  1  0.74027921  0.49718816  0.72946524  1
  O2-  O132  1  0.00146834  0.24902738  0.27410701  1
  O2-  O133  1  0.00170522  0.25202038  0.60818484  1
  O2-  O134  1  -0.00264443  0.24777265  0.94222291  1
  O2-  O135  1  -0.00509588  0.75459889  0.27272231  1
  O2-  O136  1  -0.00044473  0.74903355  0.60162317  1
  O2-  O137  1  0.00184735  0.75780031  0.94162047  1
  O2-  O138  1  0.50501537  0.25565525  0.27930372  1
  O2-  O139  1  0.50114625  0.24987511  0.60570113  1
  O2-  O140  1  0.49656655  0.24731881  0.93418943  1
  O2-  O141  1  0.49715083  0.74664421  0.26987813  1
  O2-  O142  1  0.49101033  0.75187410  0.60771739  1
  O2-  O143  1  0.50301842  0.75064337  0.93359813  1
  O2-  O144  1  0.06858136  0.18180739  0.09159183  1
  O2-  O145  1  0.07085631  0.17834491  0.42232313  1
  O2-  O146  1  0.07252637  0.17852979  0.75520567  1
  O2-  O147  1  0.06415813  0.67199193  0.09953693  1
  O2-  O148  1  0.06669129  0.67653738  0.43231791  1
  O2-  O149  1  0.06950430  0.67869966  0.76494633  1
  O2-  O150  1  0.57447174  0.18522932  0.09855358  1
  O2-  O151  1  0.57091351  0.17981455  0.42592478  1
  O2-  O152  1  0.57183766  0.17972044  0.75424070  1
  O2-  O153  1  0.57387194  0.67643919  0.09795155  1
  O2-  O154  1  0.57164439  0.68060831  0.43323134  1
  O2-  O155  1  0.57018025  0.68342937  0.76563826  1
  O2-  O156  1  0.18096626  0.42742829  0.23367655  1
  O2-  O157  1  0.18212848  0.42747010  0.56902940  1
  O2-  O158  1  0.17733216  0.43205670  0.90208873  1
  O2-  O159  1  0.16926952  0.93064502  0.24741424  1
  O2-  O160  1  0.17606582  0.93520189  0.57360850  1
  O2-  O161  1  0.17529198  0.92902625  0.90014259  1
  O2-  O162  1  0.67988419  0.42116779  0.23308622  1
  O2-  O163  1  0.68049362  0.41954187  0.57942734  1
  O2-  O164  1  0.68346684  0.42569594  0.90655612  1
  O2-  O165  1  0.68048431  0.93545668  0.24525029  1
  O2-  O166  1  0.68003679  0.93338902  0.56711408  1
  O2-  O167  1  0.68357696  0.92658233  0.90476062  1
  O2-  O168  1  0.42613880  0.32025598  0.09770581  1
  O2-  O169  1  0.42488217  0.31449492  0.42586578  1
  O2-  O170  1  0.42577532  0.31492936  0.75329709  1
  O2-  O171  1  0.43288786  0.81856618  0.09774163  1
  O2-  O172  1  0.43517708  0.82505089  0.43296373  1
  O2-  O173  1  0.42961637  0.83206394  0.75541253  1
  O2-  O174  1  0.92905980  0.32219998  0.08954251  1
  O2-  O175  1  0.92975230  0.31497659  0.42308021  1
  O2-  O176  1  0.92250728  0.31706177  0.75423582  1
  O2-  O177  1  0.93002098  0.82182253  0.09138171  1
  O2-  O178  1  0.92939354  0.83038878  0.41999582  1
  O2-  O179  1  0.93284711  0.82352644  0.76693620  1
  O2-  O180  1  0.32021246  0.07096357  0.23623475  1
  O2-  O181  1  0.32098388  0.07195344  0.57669860  1
  O2-  O182  1  0.31444434  0.07114294  0.89984415  1
  O2-  O183  1  0.32260138  0.57068446  0.24130219  1
  O2-  O184  1  0.32464271  0.57007235  0.56730659  1
  O2-  O185  1  0.32528055  0.56816674  0.91161146  1
  O2-  O186  1  0.82410197  0.07533255  0.24561046  1
  O2-  O187  1  0.82165079  0.07661061  0.57489346  1
  O2-  O188  1  0.82166999  0.07398662  0.90112588  1
  O2-  O189  1  0.82053155  0.56633380  0.23496246  1
  O2-  O190  1  0.81763643  0.56741840  0.56970161  1
  O2-  O191  1  0.82254107  0.56791889  0.90986834  1
  O2-  O192  1  0.04523342  0.08682666  0.26971069  1
  O2-  O193  1  0.04489300  0.09104455  0.59797111  1
  O2-  O194  1  0.04219294  0.08605647  0.93988116  1
  O2-  O195  1  0.03288325  0.58075282  0.26646239  1
  O2-  O196  1  0.04058373  0.57693416  0.60260617  1
  O2-  O197  1  0.03140487  0.58308445  0.93126830  1
  O2-  O198  1  0.54054667  0.09111020  0.27301214  1
  O2-  O199  1  0.54171198  0.08767781  0.60214234  1
  O2-  O200  1  0.54923874  0.07966402  0.93326939  1
  O2-  O201  1  0.54721294  0.57620949  0.26877803  1
  O2-  O202  1  0.54464130  0.57949576  0.60125910  1
  O2-  O203  1  0.54939946  0.58026374  0.93021421  1
  O2-  O204  1  0.16466267  0.20812347  0.27198966  1
  O2-  O205  1  0.16436183  0.20888402  0.60199114  1
  O2-  O206  1  0.15907509  0.20812371  0.93708870  1
  O2-  O207  1  0.16484989  0.70429992  0.26424748  1
  O2-  O208  1  0.17089503  0.70515713  0.59894236  1
  O2-  O209  1  0.16895806  0.69761933  0.93320356  1
  O2-  O210  1  0.66626202  0.20359706  0.27526044  1
  O2-  O211  1  0.66349033  0.20557608  0.60146509  1
  O2-  O212  1  0.66882218  0.21300992  0.92934326  1
  O2-  O213  1  0.67067330  0.70749498  0.26869386  1
  O2-  O214  1  0.66441046  0.71475602  0.59996753  1
  O2-  O215  1  0.67497968  0.70857642  0.93599336  1
  O2-  O216  1  0.08124485  0.46134000  0.06820449  1
  O2-  O217  1  0.08124002  0.45566512  0.39899838  1
  O2-  O218  1  0.07751913  0.44804726  0.73340897  1
  O2-  O219  1  0.08369023  0.95737267  0.07059703  1
  O2-  O220  1  0.08466731  0.95944930  0.40088651  1
  O2-  O221  1  0.08805527  0.96534429  0.72627056  1
  O2-  O222  1  0.58355083  0.44997414  0.05523818  1
  O2-  O223  1  0.57252337  0.44256300  0.39658863  1
  O2-  O224  1  0.58026948  0.44199770  0.72626871  1
  O2-  O225  1  0.58119223  0.95595426  0.07084722  1
  O2-  O226  1  0.59266197  0.96686412  0.39919785  1
  O2-  O227  1  0.58655391  0.96532398  0.73582501  1
  O2-  O228  1  0.20669199  0.33369128  0.06764379  1
  O2-  O229  1  0.21148218  0.33451593  0.40201038  1
  O2-  O230  1  0.21159746  0.33177551  0.73439170  1
  O2-  O231  1  0.20021461  0.82159483  0.06361514  1
  O2-  O232  1  0.19635740  0.83049587  0.39517003  1
  O2-  O233  1  0.19901435  0.83705413  0.72373512  1
  O2-  O234  1  0.71179015  0.34090492  0.06114713  1
  O2-  O235  1  0.71221141  0.33223223  0.40315217  1
  O2-  O236  1  0.70908091  0.33227139  0.73113749  1
  O2-  O237  1  0.71392309  0.83212252  0.07451655  1
  O2-  O238  1  0.70633986  0.83963211  0.39623016  1
  O2-  O239  1  0.71053359  0.83484119  0.73650423  1
  O2-  O240  1  0.44360680  0.41236115  0.27331219  1
  O2-  O241  1  0.45338000  0.41055439  0.60112578  1
  O2-  O242  1  0.45546764  0.41617862  0.92677644  1
  O2-  O243  1  0.46580462  0.92100591  0.26783715  1
  O2-  O244  1  0.46047264  0.91861112  0.60356565  1
  O2-  O245  1  0.45446064  0.92109566  0.93360548  1
  O2-  O246  1  0.95508971  0.41015258  0.27079918  1
  O2-  O247  1  0.95297089  0.41216166  0.60242506  1
  O2-  O248  1  0.96003533  0.41078824  0.93501548  1
  O2-  O249  1  0.95466923  0.91952211  0.26810664  1
  O2-  O250  1  0.95535195  0.92102641  0.59874250  1
  O2-  O251  1  0.95155315  0.91938159  0.94205446  1
  O2-  O252  1  0.33734233  0.28199910  0.27355412  1
  O2-  O253  1  0.33740759  0.28626003  0.60038980  1
  O2-  O254  1  0.32663322  0.28983288  0.93025354  1
  O2-  O255  1  0.32807151  0.80802318  0.26909584  1
  O2-  O256  1  0.33238790  0.80930611  0.60470929  1
  O2-  O257  1  0.33124101  0.79370453  0.93100235  1
  O2-  O258  1  0.83818512  0.28760486  0.27056064  1
  O2-  O259  1  0.83761369  0.28856862  0.59818910  1
  O2-  O260  1  0.83795542  0.29597050  0.93406962  1
  O2-  O261  1  0.83330087  0.80323628  0.26989282  1
  O2-  O262  1  0.83082040  0.79270085  0.60134250  1
  O2-  O263  1  0.83845928  0.79397961  0.94006083  1
  O2-  O264  1  0.42176470  0.05008922  0.06481349  1
  O2-  O265  1  0.41813637  0.04083395  0.40492372  1
  O2-  O266  1  0.41445212  0.04839569  0.72827338  1
  O2-  O267  1  0.41846448  0.54054923  0.06199304  1
  O2-  O268  1  0.41342718  0.54581887  0.39445821  1
  O2-  O269  1  0.41916878  0.53815752  0.73494413  1
  O2-  O270  1  0.91816567  0.04707395  0.07126314  1
  O2-  O271  1  0.91809170  0.04852187  0.39643180  1
  O2-  O272  1  0.92028417  0.05461827  0.72360415  1
  O2-  O273  1  0.90838121  0.53281550  0.06357600  1
  O2-  O274  1  0.91179075  0.53332222  0.40383155  1
  O2-  O275  1  0.91200048  0.53452730  0.73773093  1
  O2-  O276  1  0.28545315  0.16528699  0.06742967  1
  O2-  O277  1  0.28515235  0.16112564  0.40701094  1
  O2-  O278  1  0.28939384  0.16101627  0.72880470  1
  O2-  O279  1  0.30287393  0.66489296  0.06101723  1
  O2-  O280  1  0.29948000  0.67070162  0.38965545  1
  O2-  O281  1  0.30397038  0.67677630  0.73045433  1
  O2-  O282  1  0.79462575  0.17432922  0.06650303  1
  O2-  O283  1  0.79474830  0.16246863  0.39996602  1
  O2-  O284  1  0.79542172  0.16660001  0.72677851  1
  O2-  O285  1  0.80136919  0.66295043  0.06323840  1
  O2-  O286  1  0.79936420  0.67421833  0.40001279  1
  O2-  O287  1  0.78913256  0.66659002  0.73648933  1
