# generated using pymatgen
data_Ca2Al2SiO7
_symmetry_space_group_name_H-M   'P 1'
_cell_length_a   15.46745322
_cell_length_b   15.46507358
_cell_length_c   15.28974273
_cell_angle_alpha   90.01429556
_cell_angle_beta   90.00272995
_cell_angle_gamma   89.98333435
_symmetry_Int_Tables_number   1
_chemical_formula_structural   Ca2Al2SiO7
_chemical_formula_sum   'Ca48 Al48 Si24 O168'
_cell_volume   3657.38725617
_cell_formula_units_Z   24
loop_
 _symmetry_equiv_pos_site_id
 _symmetry_equiv_pos_as_xyz
  1  'x, y, z'
loop_
 _atom_type_symbol
 _atom_type_oxidation_number
  Ca2+  2.0
  Al0+  0.0
  Si0+  0.0
  O2-  -2.0
loop_
 _atom_site_type_symbol
 _atom_site_label
 _atom_site_symmetry_multiplicity
 _atom_site_fract_x
 _atom_site_fract_y
 _atom_site_fract_z
 _atom_site_occupancy
  Ca2+  Ca0  1  0.16244369  0.08321220  0.17394272  1
  Ca2+  Ca1  1  0.16125244  0.08326773  0.50897017  1
  Ca2+  Ca2  1  0.15575397  0.07641732  0.83109412  1
  Ca2+  Ca3  1  0.17157807  0.58772312  0.17104252  1
  Ca2+  Ca4  1  0.17358841  0.57759665  0.50523513  1
  Ca2+  Ca5  1  0.15981482  0.57943954  0.83470889  1
  Ca2+  Ca6  1  0.66954035  0.08807231  0.16732852  1
  Ca2+  Ca7  1  0.67367414  0.08068869  0.50874040  1
  Ca2+  Ca8  1  0.67979166  0.08135130  0.83670034  1
  Ca2+  Ca9  1  0.66470519  0.57110634  0.17573512  1
  Ca2+  Ca10  1  0.66909641  0.57313768  0.50458169  1
  Ca2+  Ca11  1  0.67680947  0.57368596  0.83117513  1
  Ca2+  Ca12  1  0.07068670  0.33242898  0.16310901  1
  Ca2+  Ca13  1  0.07546591  0.32779329  0.49721715  1
  Ca2+  Ca14  1  0.07072056  0.32948936  0.82090753  1
  Ca2+  Ca15  1  0.07225168  0.82803586  0.16225650  1
  Ca2+  Ca16  1  0.07098177  0.83866607  0.49951849  1
  Ca2+  Ca17  1  0.07599177  0.82813731  0.82835112  1
  Ca2+  Ca18  1  0.59034344  0.32715190  0.16453693  1
  Ca2+  Ca19  1  0.58551109  0.33226216  0.48980195  1
  Ca2+  Ca20  1  0.59251298  0.33127571  0.83262211  1
  Ca2+  Ca21  1  0.58503591  0.82248662  0.16494723  1
  Ca2+  Ca22  1  0.58318624  0.82917121  0.49730078  1
  Ca2+  Ca23  1  0.57768947  0.83895786  0.82201352  1
  Ca2+  Ca24  1  0.33195595  0.42009667  0.17788569  1
  Ca2+  Ca25  1  0.33173133  0.41809725  0.50290591  1
  Ca2+  Ca26  1  0.32230688  0.41321750  0.83353581  1
  Ca2+  Ca27  1  0.32972925  0.91992834  0.17166589  1
  Ca2+  Ca28  1  0.32606800  0.91822305  0.51048265  1
  Ca2+  Ca29  1  0.32779268  0.91274005  0.83197536  1
  Ca2+  Ca30  1  0.82626734  0.40727879  0.16948809  1
  Ca2+  Ca31  1  0.82745587  0.41551754  0.50877982  1
  Ca2+  Ca32  1  0.82802199  0.40983553  0.83758340  1
  Ca2+  Ca33  1  0.84303678  0.92172147  0.16887184  1
  Ca2+  Ca34  1  0.83204254  0.92169923  0.51213564  1
  Ca2+  Ca35  1  0.84614679  0.92873407  0.83352769  1
  Ca2+  Ca36  1  0.42929652  0.17324837  0.16642427  1
  Ca2+  Ca37  1  0.42643511  0.17478125  0.49124951  1
  Ca2+  Ca38  1  0.42777558  0.16265246  0.83033018  1
  Ca2+  Ca39  1  0.42300189  0.65663916  0.16906185  1
  Ca2+  Ca40  1  0.42104666  0.66889513  0.49473822  1
  Ca2+  Ca41  1  0.42192924  0.67304802  0.82594001  1
  Ca2+  Ca42  1  0.91334926  0.17658578  0.16664389  1
  Ca2+  Ca43  1  0.92104813  0.17428165  0.49958559  1
  Ca2+  Ca44  1  0.91172804  0.17354015  0.82740770  1
  Ca2+  Ca45  1  0.91680569  0.67932447  0.15926805  1
  Ca2+  Ca46  1  0.90331451  0.67821726  0.49974545  1
  Ca2+  Ca47  1  0.91199936  0.67587212  0.82692636  1
  Al0+  Al48  1  0.00074460  -0.00042760  0.00521120  1
  Al0+  Al49  1  -0.00075544  -0.00029710  0.32720898  1
  Al0+  Al50  1  0.00187755  -0.00167200  0.66851006  1
  Al0+  Al51  1  -0.00042588  0.50008653  -0.00387357  1
  Al0+  Al52  1  0.00028429  0.50235067  0.33114417  1
  Al0+  Al53  1  0.00136325  0.50198630  0.66881268  1
  Al0+  Al54  1  0.49994674  0.00074457  -0.00141942  1
  Al0+  Al55  1  0.49842489  -0.00019893  0.33055486  1
  Al0+  Al56  1  0.49866112  0.00059516  0.66348521  1
  Al0+  Al57  1  0.49819428  0.49939473  0.00102378  1
  Al0+  Al58  1  0.49927668  0.50176000  0.33604243  1
  Al0+  Al59  1  0.50072546  0.50028642  0.67258408  1
  Al0+  Al60  1  0.25131548  0.24983797  0.00271095  1
  Al0+  Al61  1  0.25141235  0.24885349  0.32762663  1
  Al0+  Al62  1  0.25263290  0.25046413  0.66884278  1
  Al0+  Al63  1  0.25019780  0.74990957  -0.00125297  1
  Al0+  Al64  1  0.24883267  0.75148557  0.33947906  1
  Al0+  Al65  1  0.25177651  0.75197136  0.66632444  1
  Al0+  Al66  1  0.74943190  0.24690726  0.00075233  1
  Al0+  Al67  1  0.75148485  0.24764778  0.33267846  1
  Al0+  Al68  1  0.74997209  0.24801546  0.66891203  1
  Al0+  Al69  1  0.74821826  0.75035256  -0.00587834  1
  Al0+  Al70  1  0.74767025  0.75060527  0.32303672  1
  Al0+  Al71  1  0.74661922  0.74702990  0.66958572  1
  Al0+  Al72  1  0.92666297  0.32296517  0.65177426  1
  Al0+  Al73  1  0.92935702  0.31831705  0.98574753  1
  Al0+  Al74  1  0.32045108  0.57121242  0.34808964  1
  Al0+  Al75  1  0.82225981  0.06866581  0.68068479  1
  Al0+  Al76  1  0.92881389  0.81841600  0.65333028  1
  Al0+  Al77  1  0.43001437  0.32314216  0.31961024  1
  Al0+  Al78  1  0.56955316  0.18003992  0.98384532  1
  Al0+  Al79  1  0.56874872  0.68022369  0.32017069  1
  Al0+  Al80  1  0.18000392  0.42848247  0.67913888  1
  Al0+  Al81  1  0.67936858  0.42704080  0.68190093  1
  Al0+  Al82  1  0.07221819  0.17937765  0.65415700  1
  Al0+  Al83  1  0.92807520  0.81973260  0.32022263  1
  Al0+  Al84  1  0.92813702  0.82238809  0.98213880  1
  Al0+  Al85  1  0.07250162  0.67963465  0.98461647  1
  Al0+  Al86  1  0.68265692  0.42835218  0.34628204  1
  Al0+  Al87  1  0.07079750  0.17871562  0.31870054  1
  Al0+  Al88  1  0.68057992  0.43068835  0.01553087  1
  Al0+  Al89  1  0.67673691  0.92840277  0.67888692  1
  Al0+  Al90  1  0.17950073  0.92907438  0.68092034  1
  Al0+  Al91  1  0.82094667  0.06817690  0.01712320  1
  Al0+  Al92  1  0.92869764  0.32400383  0.31913935  1
  Al0+  Al93  1  0.82289360  0.57180041  0.68030054  1
  Al0+  Al94  1  0.42918735  0.82203766  0.65174112  1
  Al0+  Al95  1  0.57266721  0.17738768  0.31894878  1
  Si0+  Si96  1  0.07454020  0.67758396  0.64808479  1
  Si0+  Si97  1  0.82260170  0.57431369  0.01729386  1
  Si0+  Si98  1  0.67408302  0.92708762  0.01758540  1
  Si0+  Si99  1  0.17827594  0.93174329  0.34900874  1
  Si0+  Si100  1  0.32255581  0.07280716  0.68376517  1
  Si0+  Si101  1  0.31900257  0.57112084  0.01481637  1
  Si0+  Si102  1  0.32203942  0.57235106  0.68508107  1
  Si0+  Si103  1  0.18171828  0.92946520  0.01710972  1
  Si0+  Si104  1  0.07571953  0.17859992  0.98415863  1
  Si0+  Si105  1  0.57014102  0.67620904  0.64972216  1
  Si0+  Si106  1  0.32209390  0.07137797  0.34854896  1
  Si0+  Si107  1  0.07473076  0.67921562  0.31936073  1
  Si0+  Si108  1  0.42653426  0.32333738  0.98152822  1
  Si0+  Si109  1  0.42940662  0.32263995  0.65363706  1
  Si0+  Si110  1  0.17680010  0.42619273  0.34898408  1
  Si0+  Si111  1  0.67726413  0.92688638  0.34568574  1
  Si0+  Si112  1  0.56982477  0.67564986  0.98322719  1
  Si0+  Si113  1  0.82253535  0.57593819  0.34649643  1
  Si0+  Si114  1  0.32391712  0.07141057  0.01700485  1
  Si0+  Si115  1  0.42487875  0.82198564  0.31630211  1
  Si0+  Si116  1  0.17750164  0.42794286  0.01584355  1
  Si0+  Si117  1  0.57046352  0.18008595  0.65203038  1
  Si0+  Si118  1  0.43046583  0.82063512  0.98615272  1
  Si0+  Si119  1  0.82087607  0.06806819  0.34878474  1
  O2-  O120  1  0.24956180  0.00375046  0.05959059  1
  O2-  O121  1  0.24858674  0.00348256  0.39111839  1
  O2-  O122  1  0.25200871  0.00612930  0.72846449  1
  O2-  O123  1  0.24816662  0.50012125  0.05730861  1
  O2-  O124  1  0.24634166  0.49502954  0.39256350  1
  O2-  O125  1  0.25181000  0.50547239  0.72907249  1
  O2-  O126  1  0.74783407  -0.01025558  0.06258969  1
  O2-  O127  1  0.74693668  -0.00148993  0.38845414  1
  O2-  O128  1  0.75221637  -0.00564948  0.73125244  1
  O2-  O129  1  0.75469916  0.50582947  0.06319816  1
  O2-  O130  1  0.76054765  0.50110628  0.39036473  1
  O2-  O131  1  0.75786429  0.49309973  0.73041440  1
  O2-  O132  1  0.00316241  0.25420116  0.26885680  1
  O2-  O133  1  0.00115875  0.25182409  0.60411772  1
  O2-  O134  1  0.00790609  0.24710770  0.94030722  1
  O2-  O135  1  0.00060553  0.74188944  0.27559487  1
  O2-  O136  1  0.00175119  0.74244583  0.60434396  1
  O2-  O137  1  -0.00334774  0.74638642  0.93374781  1
  O2-  O138  1  0.50462175  0.25399754  0.26942367  1
  O2-  O139  1  0.50389342  0.25585151  0.61128196  1
  O2-  O140  1  0.49567780  0.25583030  0.93675664  1
  O2-  O141  1  0.49261129  0.75337307  0.27094941  1
  O2-  O142  1  0.50396232  0.74791573  0.60600261  1
  O2-  O143  1  0.50400523  0.75290053  0.94323203  1
  O2-  O144  1  0.07837128  0.18138531  0.08977083  1
  O2-  O145  1  0.06897478  0.17610549  0.43176672  1
  O2-  O146  1  0.07275550  0.18096860  0.76792870  1
  O2-  O147  1  0.07661300  0.68454971  0.09859528  1
  O2-  O148  1  0.07938687  0.68200169  0.42430323  1
  O2-  O149  1  0.07780826  0.68128312  0.75353390  1
  O2-  O150  1  0.56702251  0.17961644  0.09672465  1
  O2-  O151  1  0.57009102  0.17463405  0.43266882  1
  O2-  O152  1  0.56763526  0.17793306  0.75708002  1
  O2-  O153  1  0.56656213  0.67434562  0.08856858  1
  O2-  O154  1  0.56894207  0.68357620  0.43273413  1
  O2-  O155  1  0.56559448  0.67462145  0.75560075  1
  O2-  O156  1  0.17738718  0.42815381  0.24298920  1
  O2-  O157  1  0.18511162  0.42864626  0.56609588  1
  O2-  O158  1  0.18069986  0.42589682  0.91104723  1
  O2-  O159  1  0.18112456  0.93083168  0.24341221  1
  O2-  O160  1  0.18058422  0.92977033  0.56757071  1
  O2-  O161  1  0.18370542  0.92857485  0.91236413  1
  O2-  O162  1  0.68221297  0.42956149  0.23292394  1
  O2-  O163  1  0.67426928  0.42942982  0.56833348  1
  O2-  O164  1  0.68011779  0.43267879  0.90283814  1
  O2-  O165  1  0.67722605  0.92611426  0.24052801  1
  O2-  O166  1  0.67632238  0.93221942  0.56461571  1
  O2-  O167  1  0.66667953  0.93131704  0.91291148  1
  O2-  O168  1  0.42467098  0.32312439  0.08683572  1
  O2-  O169  1  0.42967431  0.31972576  0.43365822  1
  O2-  O170  1  0.42750738  0.32043866  0.75876145  1
  O2-  O171  1  0.42900505  0.81998624  0.09141029  1
  O2-  O172  1  0.42510609  0.82267024  0.42141398  1
  O2-  O173  1  0.42925605  0.81981104  0.76568251  1
  O2-  O174  1  0.93069708  0.31753169  0.09891347  1
  O2-  O175  1  0.92841970  0.32291625  0.43220006  1
  O2-  O176  1  0.92707736  0.31924359  0.76548112  1
  O2-  O177  1  0.93199044  0.82199808  0.09632546  1
  O2-  O178  1  0.92761996  0.82192808  0.43315977  1
  O2-  O179  1  0.93266571  0.81929301  0.76577333  1
  O2-  O180  1  0.32328393  0.06697750  0.24316128  1
  O2-  O181  1  0.32391422  0.07167055  0.57809632  1
  O2-  O182  1  0.32648733  0.06915445  0.91233806  1
  O2-  O183  1  0.31684445  0.57268333  0.23431263  1
  O2-  O184  1  0.32312375  0.57104765  0.57953361  1
  O2-  O185  1  0.31968670  0.57214459  0.91006400  1
  O2-  O186  1  0.82142751  0.06699865  0.24352392  1
  O2-  O187  1  0.82002984  0.06906740  0.56656633  1
  O2-  O188  1  0.82081624  0.06846622  0.90449400  1
  O2-  O189  1  0.81887157  0.57997487  0.24097089  1
  O2-  O190  1  0.81628964  0.57469027  0.56639414  1
  O2-  O191  1  0.82035025  0.57451831  0.91213222  1
  O2-  O192  1  0.03952048  0.08248606  0.26232469  1
  O2-  O193  1  0.04580843  0.08010058  0.60279937  1
  O2-  O194  1  0.05004790  0.08312685  0.94367439  1
  O2-  O195  1  0.05728141  0.58405365  0.27348986  1
  O2-  O196  1  0.05587241  0.58218520  0.60388383  1
  O2-  O197  1  0.05178330  0.57880416  0.93475434  1
  O2-  O198  1  0.53891311  0.08081263  0.26410296  1
  O2-  O199  1  0.53746982  0.09097991  0.60272829  1
  O2-  O200  1  0.53458377  0.08409101  0.93062071  1
  O2-  O201  1  0.53586685  0.58511081  0.26499993  1
  O2-  O202  1  0.53926094  0.58387422  0.60370748  1
  O2-  O203  1  0.53388848  0.58744603  0.93473389  1
  O2-  O204  1  0.17132784  0.19900390  0.26632976  1
  O2-  O205  1  0.17262359  0.20599574  0.60305742  1
  O2-  O206  1  0.17075397  0.20045876  0.93913843  1
  O2-  O207  1  0.16558759  0.71219167  0.27072851  1
  O2-  O208  1  0.16726007  0.70721525  0.60229426  1
  O2-  O209  1  0.16978429  0.71212675  0.93048218  1
  O2-  O210  1  0.67126109  0.20211244  0.26632249  1
  O2-  O211  1  0.66299238  0.20321321  0.60516975  1
  O2-  O212  1  0.66573018  0.20999363  0.93076099  1
  O2-  O213  1  0.66152951  0.71195886  0.25934973  1
  O2-  O214  1  0.66363624  0.69846764  0.60371186  1
  O2-  O215  1  0.66286590  0.69721720  0.93688783  1
  O2-  O216  1  0.08559833  0.45513998  0.06304984  1
  O2-  O217  1  0.08337323  0.45282199  0.39496653  1
  O2-  O218  1  0.08397991  0.45706513  0.73469194  1
  O2-  O219  1  0.09036548  0.95486977  0.06644040  1
  O2-  O220  1  0.08578564  0.95994548  0.39419835  1
  O2-  O221  1  0.08477500  0.95814970  0.73822121  1
  O2-  O222  1  0.58161511  0.46098057  0.06670605  1
  O2-  O223  1  0.58609914  0.46177788  0.39856874  1
  O2-  O224  1  0.58266102  0.45956164  0.73780011  1
  O2-  O225  1  0.58213989  0.95660956  0.06650872  1
  O2-  O226  1  0.58352026  0.95161885  0.39123401  1
  O2-  O227  1  0.57898651  0.96102530  0.73169012  1
  O2-  O228  1  0.20691271  0.33668726  0.06434725  1
  O2-  O229  1  0.20403664  0.33205613  0.39259186  1
  O2-  O230  1  0.21554499  0.33449053  0.73637923  1
  O2-  O231  1  0.21557416  0.83937377  0.06495594  1
  O2-  O232  1  0.20592507  0.84102076  0.39780436  1
  O2-  O233  1  0.21512035  0.83428879  0.73616165  1
  O2-  O234  1  0.71149714  0.33310597  0.06694402  1
  O2-  O235  1  0.70908792  0.32994919  0.39917969  1
  O2-  O236  1  0.70276397  0.32760313  0.73420963  1
  O2-  O237  1  0.69408433  0.82956789  0.05860094  1
  O2-  O238  1  0.70539446  0.83468129  0.39153172  1
  O2-  O239  1  0.69306768  0.82704417  0.72874898  1
  O2-  O240  1  0.45190513  0.42320744  0.26854584  1
  O2-  O241  1  0.45282413  0.41675432  0.60921239  1
  O2-  O242  1  0.44967173  0.41771172  0.93611804  1
  O2-  O243  1  0.45014242  0.91504995  0.26901353  1
  O2-  O244  1  0.45691894  0.91882516  0.59641032  1
  O2-  O245  1  0.45435335  0.91300508  0.93869746  1
  O2-  O246  1  0.95234096  0.42403292  0.26558966  1
  O2-  O247  1  0.95356858  0.42312353  0.60237786  1
  O2-  O248  1  0.95542996  0.41677324  0.93413685  1
  O2-  O249  1  0.96482800  0.91263078  0.26336173  1
  O2-  O250  1  0.96256846  0.91436675  0.59986755  1
  O2-  O251  1  0.96412731  0.92026908  0.93373056  1
  O2-  O252  1  0.33354853  0.29254474  0.26343095  1
  O2-  O253  1  0.33991304  0.29207484  0.60411107  1
  O2-  O254  1  0.33281145  0.29528870  0.93619686  1
  O2-  O255  1  0.33058434  0.79692076  0.27121019  1
  O2-  O256  1  0.33319012  0.79102669  0.59702152  1
  O2-  O257  1  0.34012554  0.78951553  0.93813165  1
  O2-  O258  1  0.83316509  0.28826030  0.26529886  1
  O2-  O259  1  0.82863908  0.29129398  0.59971761  1
  O2-  O260  1  0.83408993  0.28352930  0.93347028  1
  O2-  O261  1  0.83294176  0.79303192  0.26182354  1
  O2-  O262  1  0.82985957  0.78914061  0.60215440  1
  O2-  O263  1  0.82690104  0.80115043  0.93202090  1
  O2-  O264  1  0.41308657  0.03831176  0.06672827  1
  O2-  O265  1  0.41270168  0.04071638  0.39719749  1
  O2-  O266  1  0.41417562  0.04190904  0.73098292  1
  O2-  O267  1  0.41031968  0.54256302  0.06317966  1
  O2-  O268  1  0.41644643  0.54358070  0.40406722  1
  O2-  O269  1  0.41392190  0.54534442  0.73386381  1
  O2-  O270  1  0.91825107  0.03954210  0.07276715  1
  O2-  O271  1  0.91214479  0.03614184  0.39420291  1
  O2-  O272  1  0.91996318  0.04133345  0.73481917  1
  O2-  O273  1  0.91799065  0.55133739  0.06115403  1
  O2-  O274  1  0.91957696  0.56047217  0.38939552  1
  O2-  O275  1  0.92478910  0.55774036  0.73051825  1
  O2-  O276  1  0.29977016  0.16465307  0.06394397  1
  O2-  O277  1  0.29913512  0.16508539  0.39385731  1
  O2-  O278  1  0.30233437  0.16653368  0.73129316  1
  O2-  O279  1  0.29186084  0.66310761  0.06330593  1
  O2-  O280  1  0.28988113  0.66783208  0.40344334  1
  O2-  O281  1  0.29846554  0.66694135  0.72965348  1
  O2-  O282  1  0.78477178  0.16276497  0.07134269  1
  O2-  O283  1  0.79503544  0.15990669  0.39617030  1
  O2-  O284  1  0.78980460  0.16489565  0.73471325  1
  O2-  O285  1  0.79597661  0.66936704  0.06115103  1
  O2-  O286  1  0.78830125  0.66760532  0.39230156  1
  O2-  O287  1  0.78529962  0.66535442  0.73828696  1
