# generated using pymatgen
data_Ca2Al2SiO7
_symmetry_space_group_name_H-M   'P 1'
_cell_length_a   15.46366055
_cell_length_b   15.46359378
_cell_length_c   15.28922563
_cell_angle_alpha   89.99006643
_cell_angle_beta   90.00541371
_cell_angle_gamma   89.98998555
_symmetry_Int_Tables_number   1
_chemical_formula_structural   Ca2Al2SiO7
_chemical_formula_sum   'Ca48 Al48 Si24 O168'
_cell_volume   3656.01707222
_cell_formula_units_Z   24
loop_
 _symmetry_equiv_pos_site_id
 _symmetry_equiv_pos_as_xyz
  1  'x, y, z'
loop_
 _atom_type_symbol
 _atom_type_oxidation_number
  Ca2+  2.0
  Al0+  0.0
  Si0+  0.0
  O2-  -2.0
loop_
 _atom_site_type_symbol
 _atom_site_label
 _atom_site_symmetry_multiplicity
 _atom_site_fract_x
 _atom_site_fract_y
 _atom_site_fract_z
 _atom_site_occupancy
  Ca2+  Ca0  1  0.16716070  0.08494694  0.16856148  1
  Ca2+  Ca1  1  0.17244843  0.07278812  0.50835006  1
  Ca2+  Ca2  1  0.16713584  0.07813382  0.83875091  1
  Ca2+  Ca3  1  0.17665414  0.58233954  0.17159291  1
  Ca2+  Ca4  1  0.17173437  0.58541748  0.50842666  1
  Ca2+  Ca5  1  0.16544018  0.58048604  0.83295474  1
  Ca2+  Ca6  1  0.67127894  0.08281341  0.16653418  1
  Ca2+  Ca7  1  0.67173882  0.08379059  0.50387120  1
  Ca2+  Ca8  1  0.66335204  0.07887398  0.84443795  1
  Ca2+  Ca9  1  0.66431348  0.57588349  0.17215398  1
  Ca2+  Ca10  1  0.67317536  0.59258827  0.50160584  1
  Ca2+  Ca11  1  0.67324064  0.58686493  0.84269755  1
  Ca2+  Ca12  1  0.07333870  0.32540222  0.15352935  1
  Ca2+  Ca13  1  0.08329001  0.33648795  0.49855386  1
  Ca2+  Ca14  1  0.07771397  0.33243388  0.83203418  1
  Ca2+  Ca15  1  0.07308847  0.83315474  0.16648640  1
  Ca2+  Ca16  1  0.08035744  0.82952783  0.49837310  1
  Ca2+  Ca17  1  0.08036516  0.82709975  0.82600733  1
  Ca2+  Ca18  1  0.58598620  0.33356819  0.15534914  1
  Ca2+  Ca19  1  0.59388034  0.32842088  0.49778689  1
  Ca2+  Ca20  1  0.59475539  0.32313512  0.83609829  1
  Ca2+  Ca21  1  0.57953249  0.82276464  0.15840675  1
  Ca2+  Ca22  1  0.57515274  0.82073979  0.49477892  1
  Ca2+  Ca23  1  0.58347477  0.82621220  0.82910097  1
  Ca2+  Ca24  1  0.33784087  0.42184204  0.17225736  1
  Ca2+  Ca25  1  0.32813430  0.42664897  0.50412031  1
  Ca2+  Ca26  1  0.32774755  0.41035953  0.83828610  1
  Ca2+  Ca27  1  0.33656393  0.90946021  0.16813993  1
  Ca2+  Ca28  1  0.33286372  0.90921263  0.50817291  1
  Ca2+  Ca29  1  0.33123351  0.90459343  0.83583689  1
  Ca2+  Ca30  1  0.82429117  0.42382083  0.16726605  1
  Ca2+  Ca31  1  0.82634302  0.42873001  0.50096731  1
  Ca2+  Ca32  1  0.82902973  0.42774969  0.84263949  1
  Ca2+  Ca33  1  0.82671032  0.92349232  0.16885772  1
  Ca2+  Ca34  1  0.83709724  0.91901499  0.49937999  1
  Ca2+  Ca35  1  0.82228106  0.92331411  0.84555635  1
  Ca2+  Ca36  1  0.42460200  0.17733447  0.15510987  1
  Ca2+  Ca37  1  0.42430308  0.16753325  0.50025261  1
  Ca2+  Ca38  1  0.42879113  0.17143268  0.83392619  1
  Ca2+  Ca39  1  0.42754625  0.66836926  0.16308334  1
  Ca2+  Ca40  1  0.42066036  0.67328747  0.49167813  1
  Ca2+  Ca41  1  0.43240163  0.67463048  0.82983306  1
  Ca2+  Ca42  1  0.91535939  0.16840296  0.15604795  1
  Ca2+  Ca43  1  0.91723573  0.16727863  0.49196023  1
  Ca2+  Ca44  1  0.91128202  0.17262869  0.83749035  1
  Ca2+  Ca45  1  0.90775537  0.66635780  0.16602170  1
  Ca2+  Ca46  1  0.91988073  0.66372549  0.49573110  1
  Ca2+  Ca47  1  0.91736008  0.66081742  0.82554970  1
  Al0+  Al48  1  0.00153581  -0.00225864  -0.00027088  1
  Al0+  Al49  1  0.00147580  -0.00118399  0.33372765  1
  Al0+  Al50  1  0.00310775  0.00225684  0.67162150  1
  Al0+  Al51  1  0.00134157  0.49909611  0.00142979  1
  Al0+  Al52  1  -0.00164517  0.49735236  0.33325141  1
  Al0+  Al53  1  0.00001215  0.50022329  0.66845942  1
  Al0+  Al54  1  0.49476026  0.00065451  -0.00063603  1
  Al0+  Al55  1  0.50004510  0.00142315  0.33091422  1
  Al0+  Al56  1  0.50140075  0.00313820  0.65830713  1
  Al0+  Al57  1  0.49780925  0.50273456  -0.00605501  1
  Al0+  Al58  1  0.49719742  0.49746856  0.34146847  1
  Al0+  Al59  1  0.50149503  0.49780931  0.66465299  1
  Al0+  Al60  1  0.24838002  0.24682416  -0.00568939  1
  Al0+  Al61  1  0.25101426  0.24667059  0.33540697  1
  Al0+  Al62  1  0.24964283  0.24923676  0.66946641  1
  Al0+  Al63  1  0.24772300  0.74870058  -0.00110923  1
  Al0+  Al64  1  0.24842700  0.74935912  0.33396729  1
  Al0+  Al65  1  0.24773960  0.74926881  0.66651138  1
  Al0+  Al66  1  0.75180502  0.25208117  -0.00224935  1
  Al0+  Al67  1  0.75240986  0.24908630  0.33990377  1
  Al0+  Al68  1  0.75223590  0.25245741  0.66130817  1
  Al0+  Al69  1  0.75064063  0.75316236  0.00411875  1
  Al0+  Al70  1  0.75034086  0.75060960  0.32972784  1
  Al0+  Al71  1  0.75052276  0.75414653  0.66666314  1
  Al0+  Al72  1  0.67728523  0.42829032  0.34919393  1
  Al0+  Al73  1  0.92962585  0.82164075  0.31960341  1
  Al0+  Al74  1  0.82102864  0.57315512  0.34962768  1
  Al0+  Al75  1  0.81811202  0.57263265  0.67947322  1
  Al0+  Al76  1  0.18064039  0.92795716  0.68201586  1
  Al0+  Al77  1  0.57037136  0.67622418  0.31793652  1
  Al0+  Al78  1  0.42687383  0.82200268  0.31721505  1
  Al0+  Al79  1  0.82155076  0.06865383  0.34737149  1
  Al0+  Al80  1  0.67336522  0.92945856  0.01546903  1
  Al0+  Al81  1  0.42626071  0.82048389  0.98529527  1
  Al0+  Al82  1  0.67706501  0.43178957  0.01214292  1
  Al0+  Al83  1  0.82388991  0.57318608  0.01515272  1
  Al0+  Al84  1  0.07048376  0.17607489  0.98356534  1
  Al0+  Al85  1  0.57215852  0.18181748  0.65093489  1
  Al0+  Al86  1  0.17967752  0.42898485  0.68127192  1
  Al0+  Al87  1  0.57209330  0.17994129  0.98756348  1
  Al0+  Al88  1  0.57391221  0.68025924  0.98506079  1
  Al0+  Al89  1  0.57493582  0.67710300  0.65097077  1
  Al0+  Al90  1  0.31879244  0.57092651  0.34723398  1
  Al0+  Al91  1  0.82118587  0.07078677  0.01343091  1
  Al0+  Al92  1  0.42973782  0.81953327  0.65200144  1
  Al0+  Al93  1  0.42770990  0.32425434  0.98583299  1
  Al0+  Al94  1  0.06809198  0.67855752  0.65399945  1
  Al0+  Al95  1  0.92886564  0.32251551  0.98414284  1
  Si0+  Si96  1  0.32310726  0.57208652  0.68509059  1
  Si0+  Si97  1  0.31863141  0.07222560  0.01631242  1
  Si0+  Si98  1  0.32377407  0.07114276  0.68456397  1
  Si0+  Si99  1  0.92881661  0.82591485  0.65199564  1
  Si0+  Si100  1  0.07218393  0.17839690  0.64966437  1
  Si0+  Si101  1  0.42439327  0.32103967  0.64818619  1
  Si0+  Si102  1  0.42710101  0.31802549  0.32102671  1
  Si0+  Si103  1  0.17974974  0.42615483  0.01522499  1
  Si0+  Si104  1  0.07080999  0.67560505  0.31650621  1
  Si0+  Si105  1  0.67869122  0.42616194  0.68394376  1
  Si0+  Si106  1  0.92914904  0.31948918  0.31815956  1
  Si0+  Si107  1  0.07167623  0.17880087  0.31998642  1
  Si0+  Si108  1  0.18045459  0.92994662  0.34807077  1
  Si0+  Si109  1  0.17829876  0.42516605  0.34764236  1
  Si0+  Si110  1  0.82324233  0.07393084  0.68150148  1
  Si0+  Si111  1  0.67992289  0.93348070  0.67918844  1
  Si0+  Si112  1  0.32220215  0.07237641  0.34893888  1
  Si0+  Si113  1  0.57346821  0.18081967  0.31824959  1
  Si0+  Si114  1  0.92936279  0.82096546  0.98576503  1
  Si0+  Si115  1  0.93146835  0.32081744  0.64865944  1
  Si0+  Si116  1  0.31815469  0.57088489  0.01322919  1
  Si0+  Si117  1  0.67626468  0.92876631  0.35101237  1
  Si0+  Si118  1  0.17984847  0.92683498  0.01735376  1
  Si0+  Si119  1  0.07008699  0.67911201  0.98621801  1
  O2-  O120  1  0.24980510  -0.00121001  0.05932353  1
  O2-  O121  1  0.25702796  -0.00461073  0.38989535  1
  O2-  O122  1  0.25893464  -0.00116703  0.72898447  1
  O2-  O123  1  0.25348399  0.49381375  0.05714114  1
  O2-  O124  1  0.24125152  0.49791172  0.39290478  1
  O2-  O125  1  0.25755515  0.49968370  0.72936461  1
  O2-  O126  1  0.74537072  0.00325806  0.06380606  1
  O2-  O127  1  0.74700912  -0.00449687  0.39669221  1
  O2-  O128  1  0.75211911  0.00331982  0.72212303  1
  O2-  O129  1  0.74738527  0.50490596  0.06331456  1
  O2-  O130  1  0.74449788  0.50536460  0.39899904  1
  O2-  O131  1  0.73837399  0.50340425  0.72576861  1
  O2-  O132  1  0.00273548  0.25033556  0.27727156  1
  O2-  O133  1  0.00186477  0.24865093  0.60565360  1
  O2-  O134  1  -0.00106822  0.24807487  0.93340026  1
  O2-  O135  1  -0.00102887  0.74108303  0.27257487  1
  O2-  O136  1  -0.00552631  0.75435728  0.60774027  1
  O2-  O137  1  -0.00678938  0.74343108  0.94437567  1
  O2-  O138  1  0.50260004  0.25261103  0.27809206  1
  O2-  O139  1  0.49830139  0.25778598  0.60361706  1
  O2-  O140  1  0.50385934  0.25592192  0.93701503  1
  O2-  O141  1  0.49995182  0.75088982  0.26875487  1
  O2-  O142  1  0.49722717  0.74385186  0.60171548  1
  O2-  O143  1  0.50538885  0.75686809  0.93644576  1
  O2-  O144  1  0.07250417  0.17842596  0.09803825  1
  O2-  O145  1  0.07216947  0.17920425  0.42532141  1
  O2-  O146  1  0.07164974  0.17705154  0.75399888  1
  O2-  O147  1  0.07536903  0.68202079  0.09126609  1
  O2-  O148  1  0.07256409  0.67704712  0.42205498  1
  O2-  O149  1  0.06658124  0.67915310  0.76747315  1
  O2-  O150  1  0.56893165  0.18010256  0.10157141  1
  O2-  O151  1  0.57206276  0.18055051  0.42369469  1
  O2-  O152  1  0.57318577  0.18071771  0.76335550  1
  O2-  O153  1  0.56972289  0.67635202  0.09832805  1
  O2-  O154  1  0.56788173  0.67924862  0.43158477  1
  O2-  O155  1  0.57706514  0.68209980  0.76415336  1
  O2-  O156  1  0.18169661  0.42171506  0.24212756  1
  O2-  O157  1  0.18049600  0.42938227  0.56766070  1
  O2-  O158  1  0.17826695  0.42835179  0.91021282  1
  O2-  O159  1  0.17794476  0.93270481  0.24289236  1
  O2-  O160  1  0.17723987  0.93233198  0.56849275  1
  O2-  O161  1  0.18013644  0.92559579  0.91245728  1
  O2-  O162  1  0.67946515  0.42407687  0.23610566  1
  O2-  O163  1  0.68534298  0.41993189  0.57877243  1
  O2-  O164  1  0.68017794  0.43172289  0.89846951  1
  O2-  O165  1  0.67503391  0.93337328  0.24589831  1
  O2-  O166  1  0.68185780  0.93472784  0.57408562  1
  O2-  O167  1  0.67726253  0.92989128  0.90092816  1
  O2-  O168  1  0.42477289  0.32069719  0.10014602  1
  O2-  O169  1  0.42075840  0.31197358  0.42565379  1
  O2-  O170  1  0.42008582  0.31673321  0.75311150  1
  O2-  O171  1  0.42222324  0.81374644  0.09842315  1
  O2-  O172  1  0.42586672  0.82142274  0.43069705  1
  O2-  O173  1  0.43239972  0.82034224  0.76513125  1
  O2-  O174  1  0.93295292  0.32278403  0.09812425  1
  O2-  O175  1  0.93191568  0.31837100  0.42366682  1
  O2-  O176  1  0.93157184  0.31900943  0.75323417  1
  O2-  O177  1  0.93450423  0.82464639  0.09066809  1
  O2-  O178  1  0.93708650  0.82653626  0.43264699  1
  O2-  O179  1  0.93032938  0.82738279  0.75762630  1
  O2-  O180  1  0.31741967  0.07968464  0.24457793  1
  O2-  O181  1  0.31995884  0.07255749  0.57824924  1
  O2-  O182  1  0.31671886  0.07478949  0.91162978  1
  O2-  O183  1  0.31722252  0.56788226  0.23370040  1
  O2-  O184  1  0.31834452  0.57186060  0.57924039  1
  O2-  O185  1  0.31203679  0.57268632  0.90857437  1
  O2-  O186  1  0.82161919  0.07006930  0.23513206  1
  O2-  O187  1  0.82437640  0.07237870  0.57603147  1
  O2-  O188  1  0.82238284  0.06651520  0.89930849  1
  O2-  O189  1  0.82552275  0.56710824  0.23699586  1
  O2-  O190  1  0.82122518  0.57000623  0.56665699  1
  O2-  O191  1  0.82617174  0.57061538  0.90129262  1
  O2-  O192  1  0.04439331  0.08747660  0.27248376  1
  O2-  O193  1  0.04372317  0.08647675  0.60186636  1
  O2-  O194  1  0.04508236  0.07657270  0.93160437  1
  O2-  O195  1  0.05102220  0.57981999  0.27185819  1
  O2-  O196  1  0.03853268  0.58235375  0.59851428  1
  O2-  O197  1  0.04959667  0.58518321  0.94043248  1
  O2-  O198  1  0.54491968  0.08945929  0.27158455  1
  O2-  O199  1  0.54049457  0.08782116  0.59197528  1
  O2-  O200  1  0.53730831  0.08365274  0.93386491  1
  O2-  O201  1  0.53753487  0.57630378  0.27017067  1
  O2-  O202  1  0.55615335  0.57436135  0.60312218  1
  O2-  O203  1  0.54065348  0.58518160  0.92891488  1
  O2-  O204  1  0.16423017  0.20535395  0.27280555  1
  O2-  O205  1  0.16443667  0.20579834  0.60238556  1
  O2-  O206  1  0.16726392  0.20441041  0.92855029  1
  O2-  O207  1  0.16233436  0.70628477  0.26909410  1
  O2-  O208  1  0.16408935  0.70943673  0.59939463  1
  O2-  O209  1  0.15773541  0.71390051  0.93554758  1
  O2-  O210  1  0.66636421  0.20781006  0.27388566  1
  O2-  O211  1  0.66908110  0.21233094  0.59538334  1
  O2-  O212  1  0.67060610  0.20388726  0.93309567  1
  O2-  O213  1  0.67015445  0.70088088  0.26732975  1
  O2-  O214  1  0.67075430  0.71449994  0.59723768  1
  O2-  O215  1  0.67374368  0.70793831  0.93438410  1
  O2-  O216  1  0.09028101  0.45722528  0.06493276  1
  O2-  O217  1  0.08284920  0.44531694  0.39154226  1
  O2-  O218  1  0.08453706  0.46230130  0.73584822  1
  O2-  O219  1  0.08849610  0.95494520  0.06543945  1
  O2-  O220  1  0.09223949  0.96452596  0.39797050  1
  O2-  O221  1  0.08587299  0.96314619  0.73794102  1
  O2-  O222  1  0.57589241  0.45627905  0.06265361  1
  O2-  O223  1  0.57659755  0.44434833  0.40245510  1
  O2-  O224  1  0.58012521  0.43746088  0.72361700  1
  O2-  O225  1  0.57385830  0.95515768  0.06700320  1
  O2-  O226  1  0.58340204  0.95812532  0.39762969  1
  O2-  O227  1  0.58837878  0.96440339  0.72449785  1
  O2-  O228  1  0.20379062  0.33235911  0.06036821  1
  O2-  O229  1  0.20782247  0.33312429  0.39635224  1
  O2-  O230  1  0.20671366  0.33081578  0.73477164  1
  O2-  O231  1  0.20846300  0.83561189  0.06601234  1
  O2-  O232  1  0.20136311  0.83644158  0.39485432  1
  O2-  O233  1  0.20578601  0.83012980  0.73639311  1
  O2-  O234  1  0.70607526  0.33277237  0.06382656  1
  O2-  O235  1  0.71462546  0.33295176  0.40490629  1
  O2-  O236  1  0.71520710  0.33568095  0.73063909  1
  O2-  O237  1  0.70636680  0.83388218  0.07047042  1
  O2-  O238  1  0.70163813  0.83470412  0.39501675  1
  O2-  O239  1  0.70713783  0.84254024  0.72814396  1
  O2-  O240  1  0.44768672  0.41239106  0.27752302  1
  O2-  O241  1  0.44364530  0.41707635  0.60506689  1
  O2-  O242  1  0.44474245  0.42371179  0.93207355  1
  O2-  O243  1  0.45056510  0.92352103  0.26727469  1
  O2-  O244  1  0.45724573  0.91836939  0.59868589  1
  O2-  O245  1  0.44002550  0.92332570  0.93773194  1
  O2-  O246  1  0.95487969  0.41115942  0.27009150  1
  O2-  O247  1  0.96298185  0.41115003  0.60129649  1
  O2-  O248  1  0.96393712  0.41905403  0.93053951  1
  O2-  O249  1  0.96948529  0.91518368  0.26412472  1
  O2-  O250  1  0.95940875  0.91874540  0.60599677  1
  O2-  O251  1  0.96466329  0.90866848  0.93539266  1
  O2-  O252  1  0.33744764  0.28508913  0.27099998  1
  O2-  O253  1  0.33284526  0.28936969  0.60005928  1
  O2-  O254  1  0.33181907  0.28882751  0.93181322  1
  O2-  O255  1  0.32653440  0.79479763  0.26706238  1
  O2-  O256  1  0.32876849  0.79472489  0.60224396  1
  O2-  O257  1  0.32984007  0.78428945  0.93166218  1
  O2-  O258  1  0.83869166  0.28680904  0.27262339  1
  O2-  O259  1  0.84118618  0.29227591  0.59896246  1
  O2-  O260  1  0.83192670  0.29606446  0.92838299  1
  O2-  O261  1  0.83174335  0.79942271  0.26553478  1
  O2-  O262  1  0.83470818  0.80539414  0.60612661  1
  O2-  O263  1  0.83543335  0.80236807  0.93982354  1
  O2-  O264  1  0.41001759  0.04852523  0.06591185  1
  O2-  O265  1  0.41623642  0.05112523  0.39494503  1
  O2-  O266  1  0.42004171  0.05080804  0.72602403  1
  O2-  O267  1  0.41133148  0.54897710  0.05940708  1
  O2-  O268  1  0.41126820  0.53720590  0.40627803  1
  O2-  O269  1  0.41911142  0.55001096  0.72737582  1
  O2-  O270  1  0.91937772  0.03794358  0.06579892  1
  O2-  O271  1  0.91902425  0.03806804  0.40185396  1
  O2-  O272  1  0.91532631  0.04883292  0.72879043  1
  O2-  O273  1  0.92230270  0.54263064  0.06856474  1
  O2-  O274  1  0.91987462  0.53954513  0.40197134  1
  O2-  O275  1  0.91361238  0.53671248  0.73252985  1
  O2-  O276  1  0.28639977  0.16250087  0.06575691  1
  O2-  O277  1  0.28787559  0.15994013  0.40194334  1
  O2-  O278  1  0.29269234  0.16256788  0.73087813  1
  O2-  O279  1  0.28084051  0.65866607  0.06300622  1
  O2-  O280  1  0.28662777  0.66698077  0.40203533  1
  O2-  O281  1  0.29150045  0.66335835  0.73117013  1
  O2-  O282  1  0.79932771  0.17146285  0.06335881  1
  O2-  O283  1  0.79200916  0.16399744  0.40468188  1
  O2-  O284  1  0.79536652  0.16693019  0.72531042  1
  O2-  O285  1  0.80336205  0.67410722  0.06462446  1
  O2-  O286  1  0.80012590  0.67490493  0.39960909  1
  O2-  O287  1  0.79608996  0.67274358  0.73137411  1
