# generated using pymatgen
data_Ca2Al2SiO7
_symmetry_space_group_name_H-M   'P 1'
_cell_length_a   15.46426686
_cell_length_b   15.46511033
_cell_length_c   15.28875513
_cell_angle_alpha   89.99573669
_cell_angle_beta   89.99914425
_cell_angle_gamma   90.00941853
_symmetry_Int_Tables_number   1
_chemical_formula_structural   Ca2Al2SiO7
_chemical_formula_sum   'Ca48 Al48 Si24 O168'
_cell_volume   3656.40653110
_cell_formula_units_Z   24
loop_
 _symmetry_equiv_pos_site_id
 _symmetry_equiv_pos_as_xyz
  1  'x, y, z'
loop_
 _atom_type_symbol
 _atom_type_oxidation_number
  Ca2+  2.0
  Al0+  0.0
  Si0+  0.0
  O2-  -2.0
loop_
 _atom_site_type_symbol
 _atom_site_label
 _atom_site_symmetry_multiplicity
 _atom_site_fract_x
 _atom_site_fract_y
 _atom_site_fract_z
 _atom_site_occupancy
  Ca2+  Ca0  1  0.17611950  0.07541485  0.17283002  1
  Ca2+  Ca1  1  0.17881670  0.07332352  0.50553044  1
  Ca2+  Ca2  1  0.17641531  0.06927252  0.83693877  1
  Ca2+  Ca3  1  0.16987645  0.57470356  0.17435024  1
  Ca2+  Ca4  1  0.15967213  0.57820886  0.50542526  1
  Ca2+  Ca5  1  0.16567662  0.58833007  0.83231178  1
  Ca2+  Ca6  1  0.66531780  0.08023642  0.16142079  1
  Ca2+  Ca7  1  0.67099691  0.08452365  0.51124833  1
  Ca2+  Ca8  1  0.67116885  0.08113060  0.83872464  1
  Ca2+  Ca9  1  0.66922793  0.59024123  0.17574921  1
  Ca2+  Ca10  1  0.67188759  0.58359972  0.50831357  1
  Ca2+  Ca11  1  0.66525330  0.58487699  0.83260616  1
  Ca2+  Ca12  1  0.08496247  0.33248455  0.16424639  1
  Ca2+  Ca13  1  0.07873586  0.33487527  0.49672482  1
  Ca2+  Ca14  1  0.07328614  0.32685868  0.82392160  1
  Ca2+  Ca15  1  0.08031756  0.84604735  0.16765602  1
  Ca2+  Ca16  1  0.07448265  0.84142293  0.49938226  1
  Ca2+  Ca17  1  0.08238098  0.83421330  0.82187367  1
  Ca2+  Ca18  1  0.57457605  0.32591444  0.16180531  1
  Ca2+  Ca19  1  0.58260440  0.32838892  0.49984032  1
  Ca2+  Ca20  1  0.58871870  0.32054291  0.82554239  1
  Ca2+  Ca21  1  0.58855639  0.82412997  0.16049008  1
  Ca2+  Ca22  1  0.58083124  0.82545024  0.49923671  1
  Ca2+  Ca23  1  0.58395234  0.82836146  0.82642634  1
  Ca2+  Ca24  1  0.32989521  0.41365046  0.17661777  1
  Ca2+  Ca25  1  0.33120270  0.41276633  0.49880266  1
  Ca2+  Ca26  1  0.33373805  0.42008601  0.83367071  1
  Ca2+  Ca27  1  0.32589930  0.92600614  0.17368370  1
  Ca2+  Ca28  1  0.32848887  0.91988846  0.51172631  1
  Ca2+  Ca29  1  0.33002411  0.91838053  0.83619553  1
  Ca2+  Ca30  1  0.82776184  0.42761232  0.17472741  1
  Ca2+  Ca31  1  0.82982834  0.42965863  0.51206410  1
  Ca2+  Ca32  1  0.82869276  0.41918167  0.82664685  1
  Ca2+  Ca33  1  0.82906291  0.91677397  0.16722437  1
  Ca2+  Ca34  1  0.83649869  0.91845711  0.50659366  1
  Ca2+  Ca35  1  0.83258312  0.92558634  0.83702410  1
  Ca2+  Ca36  1  0.41135886  0.16746316  0.16311100  1
  Ca2+  Ca37  1  0.41730097  0.16456919  0.49687096  1
  Ca2+  Ca38  1  0.42530536  0.15511180  0.82956934  1
  Ca2+  Ca39  1  0.43045055  0.66520694  0.16116679  1
  Ca2+  Ca40  1  0.42673917  0.67043365  0.49980627  1
  Ca2+  Ca41  1  0.42707701  0.67646750  0.82370487  1
  Ca2+  Ca42  1  0.91740780  0.16620299  0.15998912  1
  Ca2+  Ca43  1  0.91093933  0.17357567  0.50021707  1
  Ca2+  Ca44  1  0.90925347  0.16837266  0.82272849  1
  Ca2+  Ca45  1  0.91438067  0.67344254  0.16855815  1
  Ca2+  Ca46  1  0.91296758  0.67577381  0.49832276  1
  Ca2+  Ca47  1  0.92263500  0.67619479  0.81944536  1
  Al0+  Al48  1  0.00046783  0.00225209  0.00462680  1
  Al0+  Al49  1  -0.00041847  0.00184881  0.33125961  1
  Al0+  Al50  1  0.00266112  0.00159026  0.66999613  1
  Al0+  Al51  1  -0.00142332  0.50075284  -0.00020440  1
  Al0+  Al52  1  -0.00132332  0.50191861  0.33897549  1
  Al0+  Al53  1  -0.00209933  0.49866224  0.66576319  1
  Al0+  Al54  1  0.50009556  -0.00016806  0.00545881  1
  Al0+  Al55  1  0.50246572  -0.00113169  0.33534031  1
  Al0+  Al56  1  0.50145034  0.00037974  0.66089746  1
  Al0+  Al57  1  0.50005094  0.49935441  -0.00426195  1
  Al0+  Al58  1  0.49990116  0.49676167  0.32465591  1
  Al0+  Al59  1  0.49880774  0.49697511  0.66810654  1
  Al0+  Al60  1  0.24689899  0.25123378  -0.00071879  1
  Al0+  Al61  1  0.24954843  0.24971663  0.33749522  1
  Al0+  Al62  1  0.25051458  0.24939192  0.67262205  1
  Al0+  Al63  1  0.25013455  0.74708876  0.00694547  1
  Al0+  Al64  1  0.24911605  0.74864851  0.33578375  1
  Al0+  Al65  1  0.25004933  0.74712338  0.66225976  1
  Al0+  Al66  1  0.74824475  0.25355084  0.00223496  1
  Al0+  Al67  1  0.74946760  0.25105461  0.32924457  1
  Al0+  Al68  1  0.74900139  0.25186444  0.66360857  1
  Al0+  Al69  1  0.75323293  0.74974706  -0.00236925  1
  Al0+  Al70  1  0.75241989  0.75198063  0.32926251  1
  Al0+  Al71  1  0.75242828  0.74953109  0.66400459  1
  Al0+  Al72  1  0.82109643  0.57298419  0.68366031  1
  Al0+  Al73  1  0.56945003  0.17925806  0.98633135  1
  Al0+  Al74  1  0.56931966  0.68115123  0.32006728  1
  Al0+  Al75  1  0.17899518  0.92576976  0.01655517  1
  Al0+  Al76  1  0.81832029  0.57246382  0.34743216  1
  Al0+  Al77  1  0.32156549  0.07194958  0.01581255  1
  Al0+  Al78  1  0.92864673  0.31878244  0.65206488  1
  Al0+  Al79  1  0.57232280  0.67658604  0.65203989  1
  Al0+  Al80  1  0.68035189  0.92660650  0.01414744  1
  Al0+  Al81  1  0.82014830  0.07441502  0.01525658  1
  Al0+  Al82  1  0.17937022  0.42990562  0.34744970  1
  Al0+  Al83  1  0.32280608  0.07004012  0.35027546  1
  Al0+  Al84  1  0.93044393  0.82441464  0.65299225  1
  Al0+  Al85  1  0.07171238  0.67773497  0.65147484  1
  Al0+  Al86  1  0.42914550  0.31656342  0.32023381  1
  Al0+  Al87  1  0.93178642  0.82228637  0.31683111  1
  Al0+  Al88  1  0.57329504  0.67915589  0.98437778  1
  Al0+  Al89  1  0.17729868  0.92792822  0.35115900  1
  Al0+  Al90  1  0.32423991  0.07134217  0.68338389  1
  Al0+  Al91  1  0.42941860  0.82170112  0.65254189  1
  Al0+  Al92  1  0.18055224  0.92637435  0.68159656  1
  Al0+  Al93  1  0.57014412  0.17968293  0.65358719  1
  Al0+  Al94  1  0.82051250  0.07116440  0.67683721  1
  Al0+  Al95  1  0.67676122  0.42979111  0.68167983  1
  Si0+  Si96  1  0.06857186  0.18232831  0.31824838  1
  Si0+  Si97  1  0.82121597  0.56976742  0.01539382  1
  Si0+  Si98  1  0.67853190  0.92734301  0.68017431  1
  Si0+  Si99  1  0.93218886  0.82190138  0.98537609  1
  Si0+  Si100  1  0.81997944  0.07334800  0.34730088  1
  Si0+  Si101  1  0.17723312  0.42827642  0.68324920  1
  Si0+  Si102  1  0.67737085  0.42997163  0.01673960  1
  Si0+  Si103  1  0.32116871  0.56964942  0.68121806  1
  Si0+  Si104  1  0.42624387  0.82327346  0.31602552  1
  Si0+  Si105  1  0.92798760  0.32398905  0.31687022  1
  Si0+  Si106  1  0.32489084  0.57057308  0.34923280  1
  Si0+  Si107  1  0.32266029  0.56895792  0.01520636  1
  Si0+  Si108  1  0.42675164  0.82002284  0.98697558  1
  Si0+  Si109  1  0.42496396  0.32194581  0.65073881  1
  Si0+  Si110  1  0.07420029  0.17910219  0.64973990  1
  Si0+  Si111  1  0.07006266  0.17980272  0.98434827  1
  Si0+  Si112  1  0.57524573  0.17538213  0.31455459  1
  Si0+  Si113  1  0.07112924  0.67673296  0.98765840  1
  Si0+  Si114  1  0.17746727  0.43107900  0.01326377  1
  Si0+  Si115  1  0.07221898  0.67516085  0.31536761  1
  Si0+  Si116  1  0.67684368  0.42708906  0.34843081  1
  Si0+  Si117  1  0.42474826  0.32160549  0.98143707  1
  Si0+  Si118  1  0.92897395  0.32293346  0.98547539  1
  Si0+  Si119  1  0.68116596  0.92880108  0.34836329  1
  O2-  O120  1  0.25114362  -0.00173374  0.06525023  1
  O2-  O121  1  0.25719580  -0.00816092  0.39925901  1
  O2-  O122  1  0.25477007  -0.00392694  0.73138381  1
  O2-  O123  1  0.25176458  0.49730785  0.05687799  1
  O2-  O124  1  0.25182146  0.50667312  0.39409478  1
  O2-  O125  1  0.24769558  0.50037751  0.72441704  1
  O2-  O126  1  0.75030591  0.00071822  0.06588992  1
  O2-  O127  1  0.74650929  0.00567406  0.38902292  1
  O2-  O128  1  0.74895186  -0.00557743  0.72404851  1
  O2-  O129  1  0.74510459  0.50447553  0.05863386  1
  O2-  O130  1  0.74389094  0.49686362  0.39193011  1
  O2-  O131  1  0.74487784  0.50496791  0.73357790  1
  O2-  O132  1  -0.00189188  0.25343721  0.27300983  1
  O2-  O133  1  0.00365038  0.24524658  0.60382675  1
  O2-  O134  1  -0.00583470  0.24662713  0.94325029  1
  O2-  O135  1  0.00931526  0.74893771  0.27013928  1
  O2-  O136  1  0.00161960  0.75156207  0.60225541  1
  O2-  O137  1  0.00802317  0.75452299  0.94623208  1
  O2-  O138  1  0.50169181  0.24036183  0.27250393  1
  O2-  O139  1  0.49198547  0.25141498  0.60810656  1
  O2-  O140  1  0.49121972  0.25070209  0.93890418  1
  O2-  O141  1  0.49313389  0.75310333  0.27052216  1
  O2-  O142  1  0.50236941  0.75033998  0.60258025  1
  O2-  O143  1  0.49948669  0.75600196  0.94141844  1
  O2-  O144  1  0.07135507  0.18446931  0.08980082  1
  O2-  O145  1  0.06529468  0.18433305  0.42290884  1
  O2-  O146  1  0.07368185  0.18337318  0.75571349  1
  O2-  O147  1  0.06698846  0.66836853  0.09215842  1
  O2-  O148  1  0.06796303  0.66949203  0.41979437  1
  O2-  O149  1  0.07046663  0.67806165  0.76632805  1
  O2-  O150  1  0.57078319  0.18512557  0.09949097  1
  O2-  O151  1  0.58116741  0.17876418  0.41959565  1
  O2-  O152  1  0.57171687  0.18028699  0.76674112  1
  O2-  O153  1  0.57164378  0.67741790  0.09791283  1
  O2-  O154  1  0.56896497  0.68130847  0.43234634  1
  O2-  O155  1  0.56859914  0.67832765  0.76595382  1
  O2-  O156  1  0.17975462  0.43029992  0.23335066  1
  O2-  O157  1  0.17809203  0.42699913  0.57832405  1
  O2-  O158  1  0.17534847  0.43329478  0.90845350  1
  O2-  O159  1  0.17693356  0.93428234  0.23736573  1
  O2-  O160  1  0.17979130  0.92986309  0.56844243  1
  O2-  O161  1  0.17918390  0.92424438  0.90348647  1
  O2-  O162  1  0.67984177  0.42629255  0.24214147  1
  O2-  O163  1  0.67876318  0.42926660  0.56786715  1
  O2-  O164  1  0.67909638  0.42763165  0.91231551  1
  O2-  O165  1  0.68268217  0.92745574  0.24318836  1
  O2-  O166  1  0.67884338  0.92959988  0.57413771  1
  O2-  O167  1  0.68398361  0.92461378  0.90083784  1
  O2-  O168  1  0.42452083  0.32413467  0.08718143  1
  O2-  O169  1  0.43069112  0.31805956  0.43288569  1
  O2-  O170  1  0.42389333  0.32425425  0.75635509  1
  O2-  O171  1  0.42540775  0.81377005  0.09257577  1
  O2-  O172  1  0.42946506  0.82232965  0.42115518  1
  O2-  O173  1  0.42983408  0.81957738  0.76682549  1
  O2-  O174  1  0.93331671  0.32672671  0.09093078  1
  O2-  O175  1  0.92687922  0.32206622  0.42138967  1
  O2-  O176  1  0.93068619  0.31789637  0.76590734  1
  O2-  O177  1  0.93023034  0.81922162  0.09068183  1
  O2-  O178  1  0.92971185  0.82361265  0.42896051  1
  O2-  O179  1  0.93150380  0.82455882  0.76722662  1
  O2-  O180  1  0.31857167  0.07223639  0.23654071  1
  O2-  O181  1  0.32073257  0.07390092  0.57010128  1
  O2-  O182  1  0.31932028  0.07185893  0.90280852  1
  O2-  O183  1  0.32427849  0.56657939  0.24293784  1
  O2-  O184  1  0.32320978  0.56603212  0.57644431  1
  O2-  O185  1  0.32122232  0.56939402  0.91020653  1
  O2-  O186  1  0.81986583  0.07481732  0.24223502  1
  O2-  O187  1  0.81799655  0.07224377  0.56320792  1
  O2-  O188  1  0.81996204  0.07438275  0.90199409  1
  O2-  O189  1  0.81770406  0.57014646  0.23307753  1
  O2-  O190  1  0.82110046  0.57074855  0.57015206  1
  O2-  O191  1  0.82549701  0.56696714  0.91128617  1
  O2-  O192  1  0.03895640  0.09228772  0.26859879  1
  O2-  O193  1  0.05134859  0.08517133  0.60550867  1
  O2-  O194  1  0.04654529  0.08651281  0.93896018  1
  O2-  O195  1  0.04058046  0.58316914  0.26689938  1
  O2-  O196  1  0.04282794  0.57876899  0.60064069  1
  O2-  O197  1  0.03796432  0.58783470  0.93669173  1
  O2-  O198  1  0.55509235  0.07939126  0.27143811  1
  O2-  O199  1  0.54515912  0.08382921  0.59614296  1
  O2-  O200  1  0.54483746  0.07944188  0.93578814  1
  O2-  O201  1  0.54165668  0.58365535  0.26416370  1
  O2-  O202  1  0.54003303  0.57826469  0.60132590  1
  O2-  O203  1  0.54056530  0.58243318  0.93184029  1
  O2-  O204  1  0.15979014  0.21240333  0.27113447  1
  O2-  O205  1  0.16662706  0.20972888  0.60452243  1
  O2-  O206  1  0.15883603  0.21351633  0.93479383  1
  O2-  O207  1  0.16948089  0.69216860  0.27225075  1
  O2-  O208  1  0.17157653  0.69630684  0.59857574  1
  O2-  O209  1  0.16671232  0.69644578  0.94421223  1
  O2-  O210  1  0.66636086  0.20647478  0.26474890  1
  O2-  O211  1  0.66351228  0.21556529  0.59639878  1
  O2-  O212  1  0.66586521  0.21560661  0.93426202  1
  O2-  O213  1  0.66487153  0.71537655  0.26519849  1
  O2-  O214  1  0.67126629  0.70217494  0.60049570  1
  O2-  O215  1  0.67139639  0.70671259  0.93240664  1
  O2-  O216  1  0.08722296  0.46217813  0.06286632  1
  O2-  O217  1  0.08253543  0.45822079  0.40152494  1
  O2-  O218  1  0.08580830  0.45508405  0.73148178  1
  O2-  O219  1  0.08143379  0.95813054  0.06880650  1
  O2-  O220  1  0.08036992  0.96582151  0.40097629  1
  O2-  O221  1  0.08416929  0.95908903  0.73651982  1
  O2-  O222  1  0.58333431  0.45421339  0.06196168  1
  O2-  O223  1  0.58176592  0.44994060  0.39070317  1
  O2-  O224  1  0.57699678  0.45079933  0.73582477  1
  O2-  O225  1  0.58182850  0.95130840  0.06873862  1
  O2-  O226  1  0.58776904  0.94952320  0.39521741  1
  O2-  O227  1  0.58602525  0.95485296  0.72616836  1
  O2-  O228  1  0.20114493  0.33842322  0.06072182  1
  O2-  O229  1  0.21053695  0.33511396  0.40301724  1
  O2-  O230  1  0.20599029  0.33821593  0.73384003  1
  O2-  O231  1  0.20314207  0.82635529  0.07111251  1
  O2-  O232  1  0.19269166  0.82402135  0.39672471  1
  O2-  O233  1  0.20518058  0.82539963  0.73141427  1
  O2-  O234  1  0.70872762  0.34138536  0.06801632  1
  O2-  O235  1  0.70418953  0.33335571  0.39311650  1
  O2-  O236  1  0.71359869  0.33404093  0.73519329  1
  O2-  O237  1  0.71441757  0.82932582  0.06858590  1
  O2-  O238  1  0.71553632  0.83999027  0.39594142  1
  O2-  O239  1  0.70128478  0.83314222  0.72519912  1
  O2-  O240  1  0.45935148  0.41145040  0.26056127  1
  O2-  O241  1  0.45115660  0.41430394  0.60309845  1
  O2-  O242  1  0.45239745  0.41460816  0.93507543  1
  O2-  O243  1  0.45442899  0.91667434  0.27039992  1
  O2-  O244  1  0.45709820  0.91832980  0.59672613  1
  O2-  O245  1  0.44679893  0.91599340  0.94531500  1
  O2-  O246  1  0.95703581  0.41587921  0.27009053  1
  O2-  O247  1  0.96101429  0.41428442  0.59835180  1
  O2-  O248  1  0.96361596  0.41185705  0.93638379  1
  O2-  O249  1  0.96019699  0.91990029  0.26174890  1
  O2-  O250  1  0.95942443  0.92306653  0.59984798  1
  O2-  O251  1  0.95507599  0.91625626  0.94131297  1
  O2-  O252  1  0.33074049  0.28897927  0.26628752  1
  O2-  O253  1  0.33013187  0.29850840  0.60592168  1
  O2-  O254  1  0.32895705  0.30185025  0.93684303  1
  O2-  O255  1  0.33084594  0.80017358  0.27212124  1
  O2-  O256  1  0.33325019  0.78947803  0.59827007  1
  O2-  O257  1  0.33455990  0.78795797  0.94075615  1
  O2-  O258  1  0.83631895  0.29649611  0.26767541  1
  O2-  O259  1  0.83407353  0.28845684  0.59524712  1
  O2-  O260  1  0.83492239  0.30129935  0.94129257  1
  O2-  O261  1  0.83727296  0.78734669  0.26031648  1
  O2-  O262  1  0.83217231  0.79759405  0.59919489  1
  O2-  O263  1  0.84303802  0.78958428  0.93675544  1
  O2-  O264  1  0.42026220  0.04875725  0.06993661  1
  O2-  O265  1  0.42550446  0.05052417  0.39804745  1
  O2-  O266  1  0.42429492  0.04337645  0.73238112  1
  O2-  O267  1  0.41432935  0.53988359  0.06257494  1
  O2-  O268  1  0.41660172  0.53770855  0.39405715  1
  O2-  O269  1  0.41018473  0.53862559  0.73246460  1
  O2-  O270  1  0.91917502  0.04846818  0.06819460  1
  O2-  O271  1  0.91138758  0.04492657  0.39329884  1
  O2-  O272  1  0.91820122  0.04698142  0.73167051  1
  O2-  O273  1  0.91062576  0.53562953  0.06521128  1
  O2-  O274  1  0.91390463  0.54148683  0.40104402  1
  O2-  O275  1  0.91779193  0.53718382  0.73695473  1
  O2-  O276  1  0.28862127  0.17158098  0.06622297  1
  O2-  O277  1  0.28824767  0.16629980  0.40291106  1
  O2-  O278  1  0.29471981  0.16936062  0.73756229  1
  O2-  O279  1  0.29514530  0.65831460  0.06680692  1
  O2-  O280  1  0.30619130  0.66610728  0.39265635  1
  O2-  O281  1  0.29426937  0.66064955  0.73013287  1
  O2-  O282  1  0.79264568  0.17347722  0.06898346  1
  O2-  O283  1  0.79469665  0.16717643  0.39280936  1
  O2-  O284  1  0.78759890  0.16700605  0.72998472  1
  O2-  O285  1  0.79818002  0.66306768  0.06152957  1
  O2-  O286  1  0.78815980  0.66961224  0.39866444  1
  O2-  O287  1  0.79794103  0.67305903  0.73555028  1
