# generated using pymatgen
data_Ca2Al2SiO7
_symmetry_space_group_name_H-M   'P 1'
_cell_length_a   15.46121602
_cell_length_b   15.46192115
_cell_length_c   15.28584023
_cell_angle_alpha   90.00237472
_cell_angle_beta   90.02212141
_cell_angle_gamma   89.98920639
_symmetry_Int_Tables_number   1
_chemical_formula_structural   Ca2Al2SiO7
_chemical_formula_sum   'Ca48 Al48 Si24 O168'
_cell_volume   3654.23419861
_cell_formula_units_Z   24
loop_
 _symmetry_equiv_pos_site_id
 _symmetry_equiv_pos_as_xyz
  1  'x, y, z'
loop_
 _atom_type_symbol
 _atom_type_oxidation_number
  Ca2+  2.0
  Al0+  0.0
  Si0+  0.0
  O2-  -2.0
loop_
 _atom_site_type_symbol
 _atom_site_label
 _atom_site_symmetry_multiplicity
 _atom_site_fract_x
 _atom_site_fract_y
 _atom_site_fract_z
 _atom_site_occupancy
  Ca2+  Ca0  1  0.16961024  0.07434619  0.17521271  1
  Ca2+  Ca1  1  0.16320176  0.07113951  0.50783351  1
  Ca2+  Ca2  1  0.15905478  0.07761661  0.83314594  1
  Ca2+  Ca3  1  0.16780024  0.58972649  0.16633254  1
  Ca2+  Ca4  1  0.17373142  0.59090063  0.50772846  1
  Ca2+  Ca5  1  0.17437999  0.58897021  0.84165130  1
  Ca2+  Ca6  1  0.66826968  0.07491447  0.17588869  1
  Ca2+  Ca7  1  0.65937089  0.07413495  0.50519143  1
  Ca2+  Ca8  1  0.66085907  0.07695932  0.83351067  1
  Ca2+  Ca9  1  0.66976782  0.59041315  0.16716547  1
  Ca2+  Ca10  1  0.66341193  0.58166108  0.50843447  1
  Ca2+  Ca11  1  0.66556688  0.57571594  0.84224017  1
  Ca2+  Ca12  1  0.07923516  0.33444907  0.15544152  1
  Ca2+  Ca13  1  0.08687582  0.32467189  0.49762188  1
  Ca2+  Ca14  1  0.07820164  0.33834180  0.83182079  1
  Ca2+  Ca15  1  0.07660126  0.82675868  0.16182623  1
  Ca2+  Ca16  1  0.08452167  0.82727615  0.49279588  1
  Ca2+  Ca17  1  0.08007440  0.82335419  0.82911980  1
  Ca2+  Ca18  1  0.58393948  0.33014513  0.16522495  1
  Ca2+  Ca19  1  0.58093128  0.32599696  0.49444429  1
  Ca2+  Ca20  1  0.59027518  0.33221865  0.82504097  1
  Ca2+  Ca21  1  0.58311456  0.82444796  0.15961118  1
  Ca2+  Ca22  1  0.59056353  0.82493863  0.49479135  1
  Ca2+  Ca23  1  0.57979644  0.82034588  0.82952260  1
  Ca2+  Ca24  1  0.33223043  0.42196168  0.16669011  1
  Ca2+  Ca25  1  0.33690058  0.42240230  0.50445675  1
  Ca2+  Ca26  1  0.32810658  0.43176043  0.84072833  1
  Ca2+  Ca27  1  0.32943819  0.90999383  0.17004860  1
  Ca2+  Ca28  1  0.32047070  0.91128987  0.50502500  1
  Ca2+  Ca29  1  0.32933219  0.91243431  0.83698068  1
  Ca2+  Ca30  1  0.83368452  0.42379019  0.16117306  1
  Ca2+  Ca31  1  0.82414526  0.42098440  0.50703155  1
  Ca2+  Ca32  1  0.82451712  0.42131772  0.84391948  1
  Ca2+  Ca33  1  0.83178730  0.90895801  0.17337581  1
  Ca2+  Ca34  1  0.82359596  0.91061270  0.50133503  1
  Ca2+  Ca35  1  0.82966714  0.91342425  0.83523315  1
  Ca2+  Ca36  1  0.42020255  0.17085892  0.16719890  1
  Ca2+  Ca37  1  0.42704360  0.17292850  0.49354400  1
  Ca2+  Ca38  1  0.42270933  0.17315927  0.82602239  1
  Ca2+  Ca39  1  0.42669899  0.66966586  0.15889748  1
  Ca2+  Ca40  1  0.42657018  0.66295690  0.49978359  1
  Ca2+  Ca41  1  0.42139942  0.66029174  0.83192098  1
  Ca2+  Ca42  1  0.91669703  0.17376595  0.15995599  1
  Ca2+  Ca43  1  0.92025535  0.16509240  0.50193488  1
  Ca2+  Ca44  1  0.91988591  0.17581943  0.82990118  1
  Ca2+  Ca45  1  0.92230524  0.67583029  0.15782300  1
  Ca2+  Ca46  1  0.92927733  0.67305241  0.49249216  1
  Ca2+  Ca47  1  0.92641909  0.65956343  0.83408392  1
  Al0+  Al48  1  -0.00072484  -0.00008535  -0.00208459  1
  Al0+  Al49  1  -0.00043817  0.00094311  0.33510220  1
  Al0+  Al50  1  -0.00180871  0.00171786  0.66793734  1
  Al0+  Al51  1  -0.00268679  0.49847378  -0.00158780  1
  Al0+  Al52  1  0.00151844  0.49893437  0.33358517  1
  Al0+  Al53  1  -0.00059658  0.50109488  0.65915425  1
  Al0+  Al54  1  0.49954748  0.00014469  -0.00225232  1
  Al0+  Al55  1  0.50015673  0.00087302  0.33501018  1
  Al0+  Al56  1  0.49783988  0.00042804  0.66734586  1
  Al0+  Al57  1  0.49745586  0.49646617  0.00571159  1
  Al0+  Al58  1  0.49954835  0.49955810  0.32620011  1
  Al0+  Al59  1  0.49930575  0.50086264  0.67076194  1
  Al0+  Al60  1  0.25248470  0.24739211  0.00308273  1
  Al0+  Al61  1  0.25090821  0.25105530  0.33085480  1
  Al0+  Al62  1  0.24851640  0.25019618  0.66196177  1
  Al0+  Al63  1  0.24990399  0.75205193  0.00005623  1
  Al0+  Al64  1  0.25214290  0.74809018  0.33562983  1
  Al0+  Al65  1  0.24988126  0.75082315  0.67222369  1
  Al0+  Al66  1  0.75187893  0.24828056  -0.00010524  1
  Al0+  Al67  1  0.75077856  0.25000352  0.33124474  1
  Al0+  Al68  1  0.74964744  0.24914282  0.66449553  1
  Al0+  Al69  1  0.74865611  0.74978266  -0.00451380  1
  Al0+  Al70  1  0.75305430  0.74934839  0.33243308  1
  Al0+  Al71  1  0.75035224  0.75037019  0.66854440  1
  Al0+  Al72  1  0.68018525  0.42958036  0.67753051  1
  Al0+  Al73  1  0.57230934  0.17730967  0.31704077  1
  Al0+  Al74  1  0.06973603  0.67891884  0.98469503  1
  Al0+  Al75  1  0.57106703  0.17793432  0.65309339  1
  Al0+  Al76  1  0.57213700  0.67988943  0.32095793  1
  Al0+  Al77  1  0.67691392  0.92787829  0.68201745  1
  Al0+  Al78  1  0.42923797  0.82286829  0.98518556  1
  Al0+  Al79  1  0.17782399  0.93019802  0.68267752  1
  Al0+  Al80  1  0.31986749  0.57367990  0.01887738  1
  Al0+  Al81  1  0.31960406  0.57007134  0.67980481  1
  Al0+  Al82  1  0.17872282  0.42802714  0.01382402  1
  Al0+  Al83  1  0.57076007  0.67912065  0.65376207  1
  Al0+  Al84  1  0.92954154  0.32016233  0.98638730  1
  Al0+  Al85  1  0.07221206  0.68025708  0.65220537  1
  Al0+  Al86  1  0.42856398  0.32142850  0.31635815  1
  Al0+  Al87  1  0.18044652  0.92937262  0.34664656  1
  Al0+  Al88  1  0.56945271  0.67577408  0.98423062  1
  Al0+  Al89  1  0.67779138  0.42552841  0.01705052  1
  Al0+  Al90  1  0.07437967  0.67791258  0.31789826  1
  Al0+  Al91  1  0.07040911  0.17948112  0.65285992  1
  Al0+  Al92  1  0.81923735  0.57247535  0.01524468  1
  Al0+  Al93  1  0.92715783  0.82371564  0.98256592  1
  Al0+  Al94  1  0.93072623  0.82166192  0.31970424  1
  Al0+  Al95  1  0.67974184  0.92811544  0.34567056  1
  Si0+  Si96  1  0.17789960  0.93105471  0.01555653  1
  Si0+  Si97  1  0.42823726  0.32267709  0.65168443  1
  Si0+  Si98  1  0.42781954  0.82213261  0.64985447  1
  Si0+  Si99  1  0.92791151  0.82319279  0.64936461  1
  Si0+  Si100  1  0.42805149  0.82221724  0.32045305  1
  Si0+  Si101  1  0.17608341  0.42631221  0.68035506  1
  Si0+  Si102  1  0.82195909  0.07519193  0.35114872  1
  Si0+  Si103  1  0.57137964  0.17986935  0.98474551  1
  Si0+  Si104  1  0.07440543  0.17774055  0.98497580  1
  Si0+  Si105  1  0.32174966  0.07473197  0.35174702  1
  Si0+  Si106  1  0.92727479  0.32240023  0.64777455  1
  Si0+  Si107  1  0.32044223  0.07401646  0.68324856  1
  Si0+  Si108  1  0.82188979  0.06991505  0.01439709  1
  Si0+  Si109  1  0.07049303  0.17931428  0.31859952  1
  Si0+  Si110  1  0.82382353  0.57230395  0.68174800  1
  Si0+  Si111  1  0.17766841  0.42734461  0.34958784  1
  Si0+  Si112  1  0.82265116  0.57050524  0.34942808  1
  Si0+  Si113  1  0.42724039  0.31892565  0.98395085  1
  Si0+  Si114  1  0.67859455  0.93057421  0.01382325  1
  Si0+  Si115  1  0.82067936  0.07208563  0.68477381  1
  Si0+  Si116  1  0.32176974  0.56893157  0.34965621  1
  Si0+  Si117  1  0.92916582  0.32146130  0.31833007  1
  Si0+  Si118  1  0.32352866  0.07030999  0.01620436  1
  Si0+  Si119  1  0.67910324  0.42967296  0.34809507  1
  O2-  O120  1  0.25149773  0.00001300  0.05765115  1
  O2-  O121  1  0.25499498  0.00402207  0.39535287  1
  O2-  O122  1  0.25190902  0.00629101  0.72930885  1
  O2-  O123  1  0.24558064  0.50251790  0.06795399  1
  O2-  O124  1  0.24792052  0.49944206  0.39127461  1
  O2-  O125  1  0.24176128  0.49705045  0.72413485  1
  O2-  O126  1  0.75422740  -0.00361785  0.05680750  1
  O2-  O127  1  0.75239670  0.00599721  0.39269283  1
  O2-  O128  1  0.75082260  0.00426633  0.72851378  1
  O2-  O129  1  0.74425391  0.50321309  0.06689470  1
  O2-  O130  1  0.74865058  0.50173220  0.39150369  1
  O2-  O131  1  0.75408592  0.50415421  0.72445934  1
  O2-  O132  1  0.00090421  0.25083498  0.27609976  1
  O2-  O133  1  -0.00142488  0.25593822  0.60371021  1
  O2-  O134  1  0.00964992  0.25007876  0.94130059  1
  O2-  O135  1  0.00312845  0.75082594  0.26956474  1
  O2-  O136  1  -0.00220377  0.75534879  0.60582436  1
  O2-  O137  1  -0.00314123  0.74965164  0.93327048  1
  O2-  O138  1  0.50054912  0.24885290  0.26644332  1
  O2-  O139  1  0.49692799  0.25369238  0.60783352  1
  O2-  O140  1  0.50435484  0.25430605  0.94186763  1
  O2-  O141  1  0.50192472  0.75965169  0.27661562  1
  O2-  O142  1  0.49978704  0.75701818  0.60540301  1
  O2-  O143  1  0.49548172  0.74630640  0.93466157  1
  O2-  O144  1  0.07210452  0.17572381  0.09100897  1
  O2-  O145  1  0.06970519  0.18016206  0.42361623  1
  O2-  O146  1  0.06807744  0.18061531  0.76576868  1
  O2-  O147  1  0.06992030  0.68294480  0.09816460  1
  O2-  O148  1  0.07366128  0.67909722  0.43194904  1
  O2-  O149  1  0.07122976  0.67897098  0.76462589  1
  O2-  O150  1  0.56958808  0.17730809  0.08951059  1
  O2-  O151  1  0.57160843  0.17986865  0.43069874  1
  O2-  O152  1  0.56924164  0.17971474  0.76670314  1
  O2-  O153  1  0.57089067  0.68210783  0.09812694  1
  O2-  O154  1  0.56991121  0.67751220  0.43446527  1
  O2-  O155  1  0.56881802  0.67677558  0.76599172  1
  O2-  O156  1  0.17609347  0.42443203  0.24528010  1
  O2-  O157  1  0.17864308  0.42433186  0.57443738  1
  O2-  O158  1  0.18340090  0.42415989  0.90005369  1
  O2-  O159  1  0.18224180  0.93265901  0.23337624  1
  O2-  O160  1  0.17934036  0.93076316  0.56923967  1
  O2-  O161  1  0.17657452  0.93492921  0.91061905  1
  O2-  O162  1  0.68165566  0.42801235  0.24366122  1
  O2-  O163  1  0.68091749  0.42996894  0.56364899  1
  O2-  O164  1  0.68194547  0.42212893  0.90320309  1
  O2-  O165  1  0.68180131  0.92943155  0.23229996  1
  O2-  O166  1  0.67974827  0.92814435  0.56870755  1
  O2-  O167  1  0.67647816  0.93548429  0.90879125  1
  O2-  O168  1  0.42405177  0.31346211  0.08856830  1
  O2-  O169  1  0.43021635  0.32176315  0.43056563  1
  O2-  O170  1  0.42699869  0.32050667  0.75729566  1
  O2-  O171  1  0.43419288  0.82754360  0.09916476  1
  O2-  O172  1  0.42488632  0.81897438  0.42597198  1
  O2-  O173  1  0.42814411  0.82174400  0.75521412  1
  O2-  O174  1  0.92881125  0.31479644  0.09995788  1
  O2-  O175  1  0.92958730  0.32072262  0.42353878  1
  O2-  O176  1  0.92689109  0.32144686  0.75302677  1
  O2-  O177  1  0.93174737  0.82764702  0.09599801  1
  O2-  O178  1  0.93002198  0.81954097  0.43342726  1
  O2-  O179  1  0.92877796  0.82333213  0.75471279  1
  O2-  O180  1  0.31881987  0.07641075  0.24583789  1
  O2-  O181  1  0.31917328  0.07363060  0.57779896  1
  O2-  O182  1  0.32467654  0.07250432  0.91134120  1
  O2-  O183  1  0.32168460  0.56919664  0.24520301  1
  O2-  O184  1  0.32106550  0.56751401  0.56602072  1
  O2-  O185  1  0.32004305  0.57017241  0.90511868  1
  O2-  O186  1  0.82275879  0.07825704  0.24536897  1
  O2-  O187  1  0.82193664  0.07255733  0.57921239  1
  O2-  O188  1  0.82057995  0.07230286  0.90962071  1
  O2-  O189  1  0.82394872  0.56918158  0.24503187  1
  O2-  O190  1  0.82408777  0.56993706  0.57544367  1
  O2-  O191  1  0.82000510  0.56806695  0.90144106  1
  O2-  O192  1  0.04220400  0.08834260  0.27033852  1
  O2-  O193  1  0.03576097  0.08423745  0.59777375  1
  O2-  O194  1  0.04307299  0.08701915  0.93712010  1
  O2-  O195  1  0.04694709  0.57781802  0.26883719  1
  O2-  O196  1  0.04384269  0.58340370  0.59583080  1
  O2-  O197  1  0.04348971  0.57965240  0.93293565  1
  O2-  O198  1  0.54372873  0.07851164  0.26437373  1
  O2-  O199  1  0.53802981  0.08205275  0.59895408  1
  O2-  O200  1  0.53855075  0.09015068  0.93625111  1
  O2-  O201  1  0.53935021  0.58575647  0.26538106  1
  O2-  O202  1  0.53628204  0.58300325  0.59972041  1
  O2-  O203  1  0.54262516  0.57450712  0.93660290  1
  O2-  O204  1  0.16287361  0.20500713  0.27176386  1
  O2-  O205  1  0.16671551  0.20731898  0.59561042  1
  O2-  O206  1  0.16986420  0.19710728  0.94068099  1
  O2-  O207  1  0.17354195  0.70555280  0.26739301  1
  O2-  O208  1  0.16935479  0.71288466  0.60029357  1
  O2-  O209  1  0.16810545  0.71012622  0.93380396  1
  O2-  O210  1  0.67128353  0.20573420  0.26495148  1
  O2-  O211  1  0.66794374  0.20619442  0.59877704  1
  O2-  O212  1  0.66438919  0.20305722  0.93817121  1
  O2-  O213  1  0.66951540  0.70733705  0.26840029  1
  O2-  O214  1  0.66927824  0.70687695  0.60113527  1
  O2-  O215  1  0.66684825  0.70519396  0.93091405  1
  O2-  O216  1  0.07716460  0.44801272  0.06288921  1
  O2-  O217  1  0.08524616  0.45106142  0.39866258  1
  O2-  O218  1  0.07995485  0.44901912  0.72191273  1
  O2-  O219  1  0.08723363  0.96281020  0.06353446  1
  O2-  O220  1  0.08406582  0.96205913  0.40049951  1
  O2-  O221  1  0.08150161  0.96354647  0.73548053  1
  O2-  O222  1  0.57645920  0.44306285  0.06695539  1
  O2-  O223  1  0.58582344  0.45645498  0.39280001  1
  O2-  O224  1  0.58392209  0.45715372  0.73257005  1
  O2-  O225  1  0.58894089  0.96452539  0.06195323  1
  O2-  O226  1  0.58179772  0.95549426  0.39985968  1
  O2-  O227  1  0.58004607  0.95977443  0.73490024  1
  O2-  O228  1  0.20991807  0.32917270  0.06754101  1
  O2-  O229  1  0.20741438  0.33541876  0.39744750  1
  O2-  O230  1  0.20113574  0.33255309  0.72637463  1
  O2-  O231  1  0.20418291  0.83978082  0.06336781  1
  O2-  O232  1  0.21273842  0.83295550  0.40115228  1
  O2-  O233  1  0.21049034  0.83564016  0.73796331  1
  O2-  O234  1  0.71356092  0.32839292  0.06987090  1
  O2-  O235  1  0.70956011  0.33775678  0.39517663  1
  O2-  O236  1  0.71069760  0.33228109  0.73042366  1
  O2-  O237  1  0.70142535  0.83702954  0.05866184  1
  O2-  O238  1  0.71399185  0.83254249  0.40098052  1
  O2-  O239  1  0.70924604  0.83213624  0.73662218  1
  O2-  O240  1  0.45752729  0.41767237  0.26125658  1
  O2-  O241  1  0.45572818  0.41509630  0.60520471  1
  O2-  O242  1  0.44768083  0.41306587  0.93969005  1
  O2-  O243  1  0.44467014  0.91870161  0.27724652  1
  O2-  O244  1  0.44729903  0.91753092  0.60511023  1
  O2-  O245  1  0.46022862  0.92010119  0.92977737  1
  O2-  O246  1  0.95724575  0.41270053  0.27118162  1
  O2-  O247  1  0.94937145  0.41575794  0.59962166  1
  O2-  O248  1  0.95469967  0.41581563  0.92957612  1
  O2-  O249  1  0.95465723  0.92229494  0.26860937  1
  O2-  O250  1  0.95087762  0.91788819  0.60498113  1
  O2-  O251  1  0.95731515  0.92202276  0.92907656  1
  O2-  O252  1  0.33000619  0.29251273  0.26309107  1
  O2-  O253  1  0.33498234  0.29808742  0.60373702  1
  O2-  O254  1  0.33878419  0.28336619  0.93446496  1
  O2-  O255  1  0.33771822  0.79056762  0.27150349  1
  O2-  O256  1  0.33526313  0.79211639  0.60433328  1
  O2-  O257  1  0.32807548  0.80281106  0.93583614  1
  O2-  O258  1  0.83841196  0.29302417  0.27004351  1
  O2-  O259  1  0.83587923  0.29188803  0.59961251  1
  O2-  O260  1  0.83593842  0.28181008  0.93071783  1
  O2-  O261  1  0.83402585  0.79074773  0.26558286  1
  O2-  O262  1  0.83459660  0.79580910  0.60372232  1
  O2-  O263  1  0.82718914  0.80090589  0.93194608  1
  O2-  O264  1  0.41455335  0.04147658  0.06517374  1
  O2-  O265  1  0.41658153  0.05260623  0.39618964  1
  O2-  O266  1  0.41377302  0.04938113  0.73028618  1
  O2-  O267  1  0.41676905  0.54121716  0.07244288  1
  O2-  O268  1  0.41330523  0.53706838  0.39636508  1
  O2-  O269  1  0.41355046  0.53614264  0.73636051  1
  O2-  O270  1  0.91509263  0.04668944  0.06232588  1
  O2-  O271  1  0.91559772  0.05005797  0.39767638  1
  O2-  O272  1  0.91340143  0.04671969  0.73262179  1
  O2-  O273  1  0.91606136  0.53911456  0.06878616  1
  O2-  O274  1  0.91334863  0.53865745  0.39818724  1
  O2-  O275  1  0.91755571  0.54407558  0.72643444  1
  O2-  O276  1  0.29574577  0.16056479  0.06673969  1
  O2-  O277  1  0.29381754  0.16791191  0.39787548  1
  O2-  O278  1  0.29481935  0.16845660  0.72857759  1
  O2-  O279  1  0.29474733  0.67397338  0.07020188  1
  O2-  O280  1  0.29640895  0.66063818  0.39871896  1
  O2-  O281  1  0.29157892  0.66611058  0.73485852  1
  O2-  O282  1  0.79128199  0.15950896  0.06448910  1
  O2-  O283  1  0.79739780  0.16883477  0.39875014  1
  O2-  O284  1  0.79558397  0.16611128  0.73029199  1
  O2-  O285  1  0.79338749  0.67285216  0.06707001  1
  O2-  O286  1  0.79707061  0.66231525  0.39748439  1
  O2-  O287  1  0.80187526  0.66614420  0.72684762  1
