# generated using pymatgen
data_Ca2Al2SiO7
_symmetry_space_group_name_H-M   'P 1'
_cell_length_a   15.45384635
_cell_length_b   15.45364351
_cell_length_c   15.28040496
_cell_angle_alpha   89.99684753
_cell_angle_beta   89.99104521
_cell_angle_gamma   89.99404286
_symmetry_Int_Tables_number   1
_chemical_formula_structural   Ca2Al2SiO7
_chemical_formula_sum   'Ca48 Al48 Si24 O168'
_cell_volume   3649.23923430
_cell_formula_units_Z   24
loop_
 _symmetry_equiv_pos_site_id
 _symmetry_equiv_pos_as_xyz
  1  'x, y, z'
loop_
 _atom_type_symbol
 _atom_type_oxidation_number
  Ca2+  2.0
  Al0+  0.0
  Si0+  0.0
  O2-  -2.0
loop_
 _atom_site_type_symbol
 _atom_site_label
 _atom_site_symmetry_multiplicity
 _atom_site_fract_x
 _atom_site_fract_y
 _atom_site_fract_z
 _atom_site_occupancy
  Ca2+  Ca0  1  0.17617476  0.07614422  0.16935006  1
  Ca2+  Ca1  1  0.17213082  0.08853323  0.50310595  1
  Ca2+  Ca2  1  0.16858566  0.08044653  0.84320432  1
  Ca2+  Ca3  1  0.17111190  0.58871702  0.16909779  1
  Ca2+  Ca4  1  0.16997771  0.58693395  0.50755318  1
  Ca2+  Ca5  1  0.17743068  0.59296734  0.83474382  1
  Ca2+  Ca6  1  0.67584617  0.08777906  0.17249889  1
  Ca2+  Ca7  1  0.66718371  0.08123894  0.50098297  1
  Ca2+  Ca8  1  0.67192627  0.07422656  0.83770198  1
  Ca2+  Ca9  1  0.66312691  0.58000265  0.16416803  1
  Ca2+  Ca10  1  0.67327009  0.57639763  0.51575603  1
  Ca2+  Ca11  1  0.66264255  0.57477537  0.83664454  1
  Ca2+  Ca12  1  0.06955837  0.33131295  0.16077054  1
  Ca2+  Ca13  1  0.07149724  0.33134487  0.49790737  1
  Ca2+  Ca14  1  0.07227139  0.32662339  0.82495754  1
  Ca2+  Ca15  1  0.08290218  0.83302275  0.16158654  1
  Ca2+  Ca16  1  0.08479659  0.82015981  0.49815258  1
  Ca2+  Ca17  1  0.07904586  0.83500056  0.83271030  1
  Ca2+  Ca18  1  0.58234165  0.32851260  0.16569497  1
  Ca2+  Ca19  1  0.58030937  0.33088491  0.49327820  1
  Ca2+  Ca20  1  0.58799501  0.33714687  0.83177001  1
  Ca2+  Ca21  1  0.57156095  0.82969865  0.15778337  1
  Ca2+  Ca22  1  0.58307519  0.82936990  0.49773433  1
  Ca2+  Ca23  1  0.58185139  0.82278439  0.82802714  1
  Ca2+  Ca24  1  0.33528398  0.42274069  0.17009787  1
  Ca2+  Ca25  1  0.33366355  0.42121238  0.50695667  1
  Ca2+  Ca26  1  0.33413221  0.43125344  0.83841347  1
  Ca2+  Ca27  1  0.33646722  0.91926017  0.16885055  1
  Ca2+  Ca28  1  0.33970123  0.92074628  0.49860199  1
  Ca2+  Ca29  1  0.32481655  0.91996237  0.84560495  1
  Ca2+  Ca30  1  0.82860212  0.40814016  0.16852250  1
  Ca2+  Ca31  1  0.83108660  0.41717489  0.50832306  1
  Ca2+  Ca32  1  0.82879155  0.41664433  0.83564102  1
  Ca2+  Ca33  1  0.83974195  0.92872084  0.16976908  1
  Ca2+  Ca34  1  0.82670642  0.92348953  0.50586217  1
  Ca2+  Ca35  1  0.83092762  0.91759491  0.84145027  1
  Ca2+  Ca36  1  0.41705749  0.16405923  0.16610714  1
  Ca2+  Ca37  1  0.42360079  0.17323577  0.48627094  1
  Ca2+  Ca38  1  0.41435910  0.16669518  0.83071722  1
  Ca2+  Ca39  1  0.41793324  0.67713467  0.15668851  1
  Ca2+  Ca40  1  0.42198795  0.66944892  0.49705444  1
  Ca2+  Ca41  1  0.42286332  0.66407246  0.83195038  1
  Ca2+  Ca42  1  0.90688354  0.17290353  0.15997421  1
  Ca2+  Ca43  1  0.91316732  0.17719121  0.49612363  1
  Ca2+  Ca44  1  0.91508769  0.17430744  0.82947921  1
  Ca2+  Ca45  1  0.92458665  0.67412678  0.16033654  1
  Ca2+  Ca46  1  0.92713486  0.65649936  0.49831508  1
  Ca2+  Ca47  1  0.91895895  0.67015639  0.82630106  1
  Al0+  Al48  1  0.00101970  -0.00018478  0.00507314  1
  Al0+  Al49  1  0.00082887  -0.00024787  0.34309408  1
  Al0+  Al50  1  0.00210398  0.00062185  0.66100370  1
  Al0+  Al51  1  -0.00110030  0.49990085  -0.00561066  1
  Al0+  Al52  1  0.00113994  0.49891914  0.32321332  1
  Al0+  Al53  1  0.00029635  0.49955081  0.66415626  1
  Al0+  Al54  1  0.50035143  0.00007746  -0.00223608  1
  Al0+  Al55  1  0.50055786  -0.00083661  0.33003582  1
  Al0+  Al56  1  0.50007887  0.00058027  0.67170386  1
  Al0+  Al57  1  0.50003623  0.49827277  0.00721393  1
  Al0+  Al58  1  0.50017994  0.49963062  0.33193595  1
  Al0+  Al59  1  0.49984415  0.50145710  0.66939591  1
  Al0+  Al60  1  0.24987309  0.25123925  0.00354554  1
  Al0+  Al61  1  0.24828083  0.25130927  0.33415059  1
  Al0+  Al62  1  0.24986568  0.25100045  0.66381033  1
  Al0+  Al63  1  0.25058006  0.75075041  0.00484380  1
  Al0+  Al64  1  0.25076888  0.74949367  0.32742390  1
  Al0+  Al65  1  0.24971150  0.75333630  0.66695207  1
  Al0+  Al66  1  0.74790321  0.25062145  0.00157059  1
  Al0+  Al67  1  0.74908257  0.25000367  0.33262590  1
  Al0+  Al68  1  0.74858693  0.24878971  0.66609992  1
  Al0+  Al69  1  0.75046198  0.74739082  -0.00599828  1
  Al0+  Al70  1  0.75262974  0.74916448  0.33398171  1
  Al0+  Al71  1  0.74856445  0.75057434  0.66875068  1
  Al0+  Al72  1  0.31971656  0.56965059  0.01564720  1
  Al0+  Al73  1  0.32362109  0.07348022  0.01548725  1
  Al0+  Al74  1  0.42619759  0.32309995  0.31780092  1
  Al0+  Al75  1  0.67807439  0.92914968  0.68098572  1
  Al0+  Al76  1  0.81848818  0.06891135  0.01182013  1
  Al0+  Al77  1  0.82074795  0.07246913  0.34950553  1
  Al0+  Al78  1  0.07307166  0.17730534  0.65066243  1
  Al0+  Al79  1  0.56961333  0.67645359  0.98414715  1
  Al0+  Al80  1  0.93006532  0.31810039  0.31773811  1
  Al0+  Al81  1  0.07113189  0.68143650  0.65487818  1
  Al0+  Al82  1  0.42773261  0.82273829  0.98210010  1
  Al0+  Al83  1  0.32102144  0.07066591  0.34845278  1
  Al0+  Al84  1  0.92709897  0.31978308  0.65095609  1
  Al0+  Al85  1  0.92638524  0.32013616  0.98415592  1
  Al0+  Al86  1  0.82447446  0.57096826  0.68144372  1
  Al0+  Al87  1  0.17883997  0.92913035  0.01619774  1
  Al0+  Al88  1  0.68103308  0.43008702  0.01685962  1
  Al0+  Al89  1  0.57049462  0.67843907  0.65218834  1
  Al0+  Al90  1  0.07028818  0.67940724  0.31837959  1
  Al0+  Al91  1  0.57022139  0.17960407  0.31788652  1
  Al0+  Al92  1  0.43155575  0.81928717  0.32014725  1
  Al0+  Al93  1  0.31957079  0.57224929  0.67873808  1
  Al0+  Al94  1  0.67898304  0.42764297  0.68119214  1
  Al0+  Al95  1  0.93034340  0.82268452  0.98786655  1
  Si0+  Si96  1  0.57100296  0.17981070  0.98348355  1
  Si0+  Si97  1  0.17901805  0.92989053  0.68045307  1
  Si0+  Si98  1  0.67829050  0.92629184  0.34851132  1
  Si0+  Si99  1  0.32043199  0.07254289  0.68020042  1
  Si0+  Si100  1  0.07223076  0.67804624  0.98231771  1
  Si0+  Si101  1  0.17695200  0.43039939  0.34808787  1
  Si0+  Si102  1  0.42770699  0.32045993  0.98491635  1
  Si0+  Si103  1  0.82288144  0.07050804  0.68269598  1
  Si0+  Si104  1  0.92745522  0.82364495  0.31908383  1
  Si0+  Si105  1  0.67837464  0.92426586  0.01623901  1
  Si0+  Si106  1  0.42852366  0.82340843  0.65008838  1
  Si0+  Si107  1  0.56895367  0.17694579  0.65325610  1
  Si0+  Si108  1  0.32031174  0.57125873  0.34876563  1
  Si0+  Si109  1  0.67952307  0.43087258  0.34861974  1
  Si0+  Si110  1  0.17916325  0.92593394  0.35395671  1
  Si0+  Si111  1  0.92589098  0.82336174  0.64904272  1
  Si0+  Si112  1  0.42957451  0.32164426  0.65402604  1
  Si0+  Si113  1  0.07259878  0.17952483  0.98612065  1
  Si0+  Si114  1  0.82453893  0.57340956  0.01771644  1
  Si0+  Si115  1  0.17556232  0.42806119  0.01638201  1
  Si0+  Si116  1  0.82315708  0.57095530  0.34579955  1
  Si0+  Si117  1  0.07262855  0.17542516  0.31597793  1
  Si0+  Si118  1  0.17831578  0.42671060  0.68280151  1
  Si0+  Si119  1  0.57557213  0.67665376  0.31777066  1
  O2-  O120  1  0.25473867  -0.00182196  0.06461533  1
  O2-  O121  1  0.24610865  -0.00300589  0.39804140  1
  O2-  O122  1  0.24663324  0.00469754  0.72139402  1
  O2-  O123  1  0.24211617  0.49776822  0.06256253  1
  O2-  O124  1  0.25130179  0.49828241  0.39115230  1
  O2-  O125  1  0.24391380  0.49855543  0.72654394  1
  O2-  O126  1  0.74744393  -0.00821018  0.06143701  1
  O2-  O127  1  0.74723400  -0.00507180  0.39337218  1
  O2-  O128  1  0.75742769  -0.00075995  0.72734245  1
  O2-  O129  1  0.75686095  0.50420437  0.06332901  1
  O2-  O130  1  0.74858920  0.50427691  0.38905071  1
  O2-  O131  1  0.75167358  0.49923623  0.73093941  1
  O2-  O132  1  0.00037837  0.23927707  0.27046916  1
  O2-  O133  1  -0.00106919  0.24718084  0.60094359  1
  O2-  O134  1  0.00361879  0.24686199  0.94031133  1
  O2-  O135  1  -0.00315403  0.75620151  0.27443903  1
  O2-  O136  1  -0.00837603  0.75058935  0.60615706  1
  O2-  O137  1  0.00269931  0.74642057  0.93960696  1
  O2-  O138  1  0.49545112  0.24882328  0.26735287  1
  O2-  O139  1  0.50048285  0.25071521  0.61182500  1
  O2-  O140  1  0.49485783  0.24613218  0.94172587  1
  O2-  O141  1  0.50760700  0.74569703  0.27432548  1
  O2-  O142  1  0.49683486  0.75442034  0.60550374  1
  O2-  O143  1  0.50006209  0.75071908  0.93315581  1
  O2-  O144  1  0.07311093  0.18183228  0.09169391  1
  O2-  O145  1  0.07324955  0.18024085  0.42150651  1
  O2-  O146  1  0.07470203  0.17803273  0.76444553  1
  O2-  O147  1  0.07001794  0.67701363  0.08824799  1
  O2-  O148  1  0.07024467  0.67837874  0.43177203  1
  O2-  O149  1  0.07474840  0.68769875  0.76734850  1
  O2-  O150  1  0.57348065  0.18206807  0.08827685  1
  O2-  O151  1  0.56978907  0.18242443  0.43235672  1
  O2-  O152  1  0.56657321  0.17466788  0.75838142  1
  O2-  O153  1  0.56755490  0.67821460  0.09851115  1
  O2-  O154  1  0.57491971  0.67601196  0.42350652  1
  O2-  O155  1  0.56716344  0.67655475  0.76449679  1
  O2-  O156  1  0.17564320  0.43327007  0.24305194  1
  O2-  O157  1  0.18174112  0.42556745  0.57680280  1
  O2-  O158  1  0.17845969  0.42662597  0.91085561  1
  O2-  O159  1  0.17827060  0.92619549  0.24875873  1
  O2-  O160  1  0.18181738  0.92653635  0.57553574  1
  O2-  O161  1  0.17722648  0.93255786  0.90183931  1
  O2-  O162  1  0.67958193  0.43074821  0.24355618  1
  O2-  O163  1  0.67723986  0.42823850  0.56702633  1
  O2-  O164  1  0.68090316  0.42879792  0.90411298  1
  O2-  O165  1  0.68052544  0.92436882  0.24320833  1
  O2-  O166  1  0.67602362  0.93341133  0.56749171  1
  O2-  O167  1  0.67967306  0.92751370  0.91043236  1
  O2-  O168  1  0.42876907  0.32089602  0.08975410  1
  O2-  O169  1  0.43010071  0.32534103  0.43220365  1
  O2-  O170  1  0.42715716  0.31926296  0.75923770  1
  O2-  O171  1  0.43010142  0.82146218  0.09595131  1
  O2-  O172  1  0.43176118  0.81704275  0.43386199  1
  O2-  O173  1  0.42800209  0.82454472  0.75504640  1
  O2-  O174  1  0.92705160  0.31744758  0.09750748  1
  O2-  O175  1  0.93080481  0.32099810  0.43047739  1
  O2-  O176  1  0.92741344  0.31663592  0.76449256  1
  O2-  O177  1  0.93244240  0.82180031  0.10136013  1
  O2-  O178  1  0.92546274  0.82126597  0.42460722  1
  O2-  O179  1  0.92965724  0.82719253  0.75458068  1
  O2-  O180  1  0.31953991  0.06850443  0.23609357  1
  O2-  O181  1  0.32288966  0.07163682  0.57520087  1
  O2-  O182  1  0.31881731  0.07644368  0.90106924  1
  O2-  O183  1  0.31902008  0.57093885  0.24384003  1
  O2-  O184  1  0.31925103  0.57017511  0.56505649  1
  O2-  O185  1  0.31921489  0.56815816  0.90222076  1
  O2-  O186  1  0.81973698  0.07170799  0.23631682  1
  O2-  O187  1  0.81930188  0.07067424  0.57694155  1
  O2-  O188  1  0.81649784  0.06859580  0.89854050  1
  O2-  O189  1  0.82214319  0.57214032  0.24087160  1
  O2-  O190  1  0.82317401  0.56836219  0.56667274  1
  O2-  O191  1  0.82588184  0.57275268  0.91259017  1
  O2-  O192  1  0.05212000  0.07814770  0.27636756  1
  O2-  O193  1  0.05066330  0.07819031  0.59579922  1
  O2-  O194  1  0.04790753  0.08527670  0.94208794  1
  O2-  O195  1  0.03876715  0.58561638  0.26036641  1
  O2-  O196  1  0.04715202  0.58285980  0.60086067  1
  O2-  O197  1  0.04917846  0.58443025  0.93517536  1
  O2-  O198  1  0.54716708  0.08027184  0.26583824  1
  O2-  O199  1  0.53756302  0.08694985  0.60415728  1
  O2-  O200  1  0.54843759  0.08668627  0.93598785  1
  O2-  O201  1  0.54909438  0.58349962  0.27205367  1
  O2-  O202  1  0.53748408  0.58231692  0.59736061  1
  O2-  O203  1  0.53651189  0.57761180  0.93464263  1
  O2-  O204  1  0.16471523  0.20454402  0.26955177  1
  O2-  O205  1  0.17083953  0.20886807  0.59611177  1
  O2-  O206  1  0.16594919  0.20635112  0.93898474  1
  O2-  O207  1  0.16606054  0.70964703  0.26355186  1
  O2-  O208  1  0.16590982  0.71716672  0.59824708  1
  O2-  O209  1  0.16613567  0.70524851  0.93921769  1
  O2-  O210  1  0.66642738  0.21288771  0.26416004  1
  O2-  O211  1  0.66139843  0.20120125  0.60598806  1
  O2-  O212  1  0.65948508  0.21365291  0.93387222  1
  O2-  O213  1  0.67018855  0.69980969  0.27225380  1
  O2-  O214  1  0.66785235  0.70839443  0.59860547  1
  O2-  O215  1  0.66959199  0.69890016  0.93218661  1
  O2-  O216  1  0.08066283  0.45276530  0.06081321  1
  O2-  O217  1  0.08611383  0.46296516  0.39511864  1
  O2-  O218  1  0.08361104  0.44837642  0.72653605  1
  O2-  O219  1  0.08303351  0.96002319  0.07329400  1
  O2-  O220  1  0.08516707  0.94702145  0.40176613  1
  O2-  O221  1  0.08552582  0.95451026  0.72645993  1
  O2-  O222  1  0.58527579  0.45990588  0.07312021  1
  O2-  O223  1  0.58647074  0.45624555  0.39575282  1
  O2-  O224  1  0.58096283  0.45687355  0.73477186  1
  O2-  O225  1  0.58456699  0.95183341  0.06011943  1
  O2-  O226  1  0.58525430  0.95230886  0.39512230  1
  O2-  O227  1  0.58407197  0.96470534  0.73795162  1
  O2-  O228  1  0.20208398  0.33585025  0.06480580  1
  O2-  O229  1  0.20019881  0.33783134  0.39616105  1
  O2-  O230  1  0.20776891  0.33453334  0.73034316  1
  O2-  O231  1  0.20316503  0.83043769  0.06989553  1
  O2-  O232  1  0.20992876  0.83241326  0.39806106  1
  O2-  O233  1  0.20990522  0.84109364  0.73128629  1
  O2-  O234  1  0.71259104  0.33402621  0.07149721  1
  O2-  O235  1  0.70869161  0.33965624  0.39563489  1
  O2-  O236  1  0.70371761  0.32756972  0.73337463  1
  O2-  O237  1  0.70121783  0.82933830  0.06000502  1
  O2-  O238  1  0.70469040  0.83262357  0.39647121  1
  O2-  O239  1  0.70379002  0.83195212  0.73480775  1
  O2-  O240  1  0.45750539  0.42068180  0.26442461  1
  O2-  O241  1  0.45687574  0.41298533  0.60613713  1
  O2-  O242  1  0.46020552  0.41091260  0.93838728  1
  O2-  O243  1  0.46030012  0.91518398  0.26511315  1
  O2-  O244  1  0.45685448  0.91734229  0.60482494  1
  O2-  O245  1  0.45322981  0.92263535  0.93005177  1
  O2-  O246  1  0.96375923  0.41213709  0.26068948  1
  O2-  O247  1  0.95621314  0.41805504  0.59794636  1
  O2-  O248  1  0.95477768  0.41762988  0.93103209  1
  O2-  O249  1  0.95373328  0.91853045  0.27624805  1
  O2-  O250  1  0.95554341  0.91485160  0.60027903  1
  O2-  O251  1  0.96252299  0.91884634  0.93319284  1
  O2-  O252  1  0.32573834  0.29994986  0.26757170  1
  O2-  O253  1  0.33842398  0.29483392  0.60453673  1
  O2-  O254  1  0.33448409  0.29676265  0.93744370  1
  O2-  O255  1  0.33636638  0.78759533  0.26499411  1
  O2-  O256  1  0.33515774  0.79856468  0.60333638  1
  O2-  O257  1  0.32772425  0.79392767  0.93310268  1
  O2-  O258  1  0.83246520  0.28929283  0.26584216  1
  O2-  O259  1  0.82848754  0.29017924  0.59743204  1
  O2-  O260  1  0.83075496  0.28553187  0.93150522  1
  O2-  O261  1  0.83472274  0.79794452  0.27104753  1
  O2-  O262  1  0.83075198  0.80308464  0.60474191  1
  O2-  O263  1  0.83390703  0.79425261  0.93264312  1
  O2-  O264  1  0.42417459  0.04867342  0.06554103  1
  O2-  O265  1  0.41869431  0.03901393  0.40125690  1
  O2-  O266  1  0.41053236  0.04380186  0.73009999  1
  O2-  O267  1  0.41333463  0.53478547  0.07210862  1
  O2-  O268  1  0.41386069  0.54542460  0.39476584  1
  O2-  O269  1  0.41369599  0.53825482  0.73434966  1
  O2-  O270  1  0.91533173  0.04253335  0.06727814  1
  O2-  O271  1  0.91750689  0.04483799  0.40549825  1
  O2-  O272  1  0.91897407  0.04835423  0.72482178  1
  O2-  O273  1  0.91939112  0.54870053  0.06244989  1
  O2-  O274  1  0.91460089  0.53791326  0.39077947  1
  O2-  O275  1  0.92357091  0.54479910  0.73440903  1
  O2-  O276  1  0.29409334  0.17146738  0.06925998  1
  O2-  O277  1  0.29164348  0.16917796  0.40146064  1
  O2-  O278  1  0.29544001  0.16569187  0.72678217  1
  O2-  O279  1  0.29060648  0.66600054  0.07033612  1
  O2-  O280  1  0.29005027  0.66262677  0.39540480  1
  O2-  O281  1  0.28882053  0.66911342  0.73217010  1
  O2-  O282  1  0.78246241  0.16342934  0.06630561  1
  O2-  O283  1  0.78534050  0.16780273  0.40364505  1
  O2-  O284  1  0.79335053  0.16269894  0.72865733  1
  O2-  O285  1  0.79785851  0.66704506  0.06406454  1
  O2-  O286  1  0.80197836  0.66425548  0.39429504  1
  O2-  O287  1  0.79959883  0.67123989  0.73095199  1
