# generated using pymatgen
data_Ca2Al2SiO7
_symmetry_space_group_name_H-M   'P 1'
_cell_length_a   15.45295891
_cell_length_b   15.45277755
_cell_length_c   15.28013202
_cell_angle_alpha   89.99342863
_cell_angle_beta   89.99268916
_cell_angle_gamma   90.00241335
_symmetry_Int_Tables_number   1
_chemical_formula_structural   Ca2Al2SiO7
_chemical_formula_sum   'Ca48 Al48 Si24 O168'
_cell_volume   3648.76003288
_cell_formula_units_Z   24
loop_
 _symmetry_equiv_pos_site_id
 _symmetry_equiv_pos_as_xyz
  1  'x, y, z'
loop_
 _atom_type_symbol
 _atom_type_oxidation_number
  Ca2+  2.0
  Al0+  0.0
  Si0+  0.0
  O2-  -2.0
loop_
 _atom_site_type_symbol
 _atom_site_label
 _atom_site_symmetry_multiplicity
 _atom_site_fract_x
 _atom_site_fract_y
 _atom_site_fract_z
 _atom_site_occupancy
  Ca2+  Ca0  1  0.17216043  0.08505447  0.17400269  1
  Ca2+  Ca1  1  0.18077117  0.07592632  0.50659438  1
  Ca2+  Ca2  1  0.16390758  0.07985129  0.83394446  1
  Ca2+  Ca3  1  0.16890467  0.57810894  0.17484106  1
  Ca2+  Ca4  1  0.17727823  0.58422214  0.50153781  1
  Ca2+  Ca5  1  0.17135557  0.58840192  0.83623243  1
  Ca2+  Ca6  1  0.67559542  0.09034658  0.17253678  1
  Ca2+  Ca7  1  0.66924521  0.08343917  0.49768612  1
  Ca2+  Ca8  1  0.67386406  0.08279050  0.84309990  1
  Ca2+  Ca9  1  0.66637872  0.57202319  0.17602647  1
  Ca2+  Ca10  1  0.67081972  0.58906680  0.50246127  1
  Ca2+  Ca11  1  0.67144076  0.58118816  0.83591988  1
  Ca2+  Ca12  1  0.08441232  0.32844115  0.16119758  1
  Ca2+  Ca13  1  0.07850521  0.34008314  0.49806622  1
  Ca2+  Ca14  1  0.07786939  0.32582534  0.82841393  1
  Ca2+  Ca15  1  0.07327742  0.82583509  0.15988635  1
  Ca2+  Ca16  1  0.07581905  0.83851499  0.49703950  1
  Ca2+  Ca17  1  0.07353651  0.83321586  0.83053464  1
  Ca2+  Ca18  1  0.58609615  0.32826590  0.16138483  1
  Ca2+  Ca19  1  0.58397048  0.32772260  0.49128046  1
  Ca2+  Ca20  1  0.58518250  0.33190561  0.83748001  1
  Ca2+  Ca21  1  0.57849435  0.82869155  0.17149744  1
  Ca2+  Ca22  1  0.57844760  0.81927230  0.49094186  1
  Ca2+  Ca23  1  0.58355560  0.82600930  0.82546595  1
  Ca2+  Ca24  1  0.32778481  0.41755837  0.17488931  1
  Ca2+  Ca25  1  0.33032640  0.42615440  0.49990626  1
  Ca2+  Ca26  1  0.33997169  0.42196825  0.83661053  1
  Ca2+  Ca27  1  0.33338067  0.92182687  0.17714426  1
  Ca2+  Ca28  1  0.33627110  0.92372628  0.50626902  1
  Ca2+  Ca29  1  0.32640831  0.92013564  0.83362681  1
  Ca2+  Ca30  1  0.82134306  0.42097017  0.17639979  1
  Ca2+  Ca31  1  0.82906310  0.42892864  0.50358373  1
  Ca2+  Ca32  1  0.83134158  0.42024713  0.83707371  1
  Ca2+  Ca33  1  0.84132408  0.92465174  0.17026504  1
  Ca2+  Ca34  1  0.83961744  0.91851404  0.50136070  1
  Ca2+  Ca35  1  0.83793713  0.91794327  0.83876295  1
  Ca2+  Ca36  1  0.42810430  0.17107221  0.16075782  1
  Ca2+  Ca37  1  0.42059819  0.16095016  0.49013748  1
  Ca2+  Ca38  1  0.41843836  0.17197183  0.83175999  1
  Ca2+  Ca39  1  0.41671388  0.66444851  0.16954595  1
  Ca2+  Ca40  1  0.42205046  0.66453177  0.49184018  1
  Ca2+  Ca41  1  0.42401040  0.66411405  0.82430714  1
  Ca2+  Ca42  1  0.91929757  0.16300449  0.15959343  1
  Ca2+  Ca43  1  0.91521398  0.17332836  0.49480083  1
  Ca2+  Ca44  1  0.91865979  0.16891093  0.83157644  1
  Ca2+  Ca45  1  0.91427473  0.67523012  0.16308013  1
  Ca2+  Ca46  1  0.90832420  0.67567740  0.49298895  1
  Ca2+  Ca47  1  0.91740456  0.67500156  0.82466271  1
  Al0+  Al48  1  0.00103581  -0.00058665  -0.00314422  1
  Al0+  Al49  1  0.00008535  0.00151730  0.33409406  1
  Al0+  Al50  1  0.00136156  0.00079243  0.66532385  1
  Al0+  Al51  1  0.00272022  0.50153326  -0.00251175  1
  Al0+  Al52  1  -0.00243712  0.49988131  0.33924412  1
  Al0+  Al53  1  -0.00044597  0.50058090  0.66729170  1
  Al0+  Al54  1  0.50068351  -0.00043509  -0.00399620  1
  Al0+  Al55  1  0.50229298  -0.00034465  0.32821092  1
  Al0+  Al56  1  0.50129293  0.00044002  0.67280949  1
  Al0+  Al57  1  0.50042802  0.50045565  0.00131071  1
  Al0+  Al58  1  0.49822203  0.49732685  0.33621921  1
  Al0+  Al59  1  0.50045328  0.49674203  0.66600154  1
  Al0+  Al60  1  0.25068900  0.25094800  -0.00957236  1
  Al0+  Al61  1  0.24894604  0.24845173  0.34349182  1
  Al0+  Al62  1  0.25116390  0.25004038  0.66947710  1
  Al0+  Al63  1  0.24958310  0.75099039  -0.00195507  1
  Al0+  Al64  1  0.24735691  0.75020187  0.33274586  1
  Al0+  Al65  1  0.24930354  0.75115876  0.67632048  1
  Al0+  Al66  1  0.74997303  0.24986042  0.00367535  1
  Al0+  Al67  1  0.75106523  0.25015586  0.33796835  1
  Al0+  Al68  1  0.75006879  0.25029200  0.66242910  1
  Al0+  Al69  1  0.74786392  0.75194994  -0.00228082  1
  Al0+  Al70  1  0.74820563  0.75151958  0.32413403  1
  Al0+  Al71  1  0.75020037  0.74959338  0.66323020  1
  Al0+  Al72  1  0.32421521  0.07240166  0.68556076  1
  Al0+  Al73  1  0.81997402  0.57225361  0.68136837  1
  Al0+  Al74  1  0.17741145  0.92987817  0.68385797  1
  Al0+  Al75  1  0.17669716  0.42653334  0.34842881  1
  Al0+  Al76  1  0.92825293  0.81960596  0.98380450  1
  Al0+  Al77  1  0.56964688  0.67547768  0.31627901  1
  Al0+  Al78  1  0.32179818  0.56912745  0.68161174  1
  Al0+  Al79  1  0.42630535  0.82091965  0.32007911  1
  Al0+  Al80  1  0.07173644  0.17930628  0.98698612  1
  Al0+  Al81  1  0.57237390  0.17990773  0.31986690  1
  Al0+  Al82  1  0.81837487  0.57407353  0.34692482  1
  Al0+  Al83  1  0.42972828  0.32198122  0.98517776  1
  Al0+  Al84  1  0.93047313  0.82059986  0.65060997  1
  Al0+  Al85  1  0.82072472  0.06797128  0.01238293  1
  Al0+  Al86  1  0.68035902  0.43122792  0.01362696  1
  Al0+  Al87  1  0.32318183  0.06859355  0.34378706  1
  Al0+  Al88  1  0.82248747  0.07002512  0.34832247  1
  Al0+  Al89  1  0.67764149  0.42774248  0.34998374  1
  Al0+  Al90  1  0.92875426  0.32154890  0.65225940  1
  Al0+  Al91  1  0.57355838  0.17859888  0.98394669  1
  Al0+  Al92  1  0.07246555  0.67728541  0.98414143  1
  Al0+  Al93  1  0.56950048  0.67796998  0.65385967  1
  Al0+  Al94  1  0.31986194  0.57264841  0.34716990  1
  Al0+  Al95  1  0.92950708  0.82241778  0.31827028  1
  Si0+  Si96  1  0.32139480  0.07211344  0.01478433  1
  Si0+  Si97  1  0.92756045  0.32275061  0.98617761  1
  Si0+  Si98  1  0.82378851  0.57418456  0.01510159  1
  Si0+  Si99  1  0.57076992  0.17754594  0.65112404  1
  Si0+  Si100  1  0.42524543  0.31966446  0.31926794  1
  Si0+  Si101  1  0.17729920  0.92843308  0.34770564  1
  Si0+  Si102  1  0.07417161  0.67795633  0.64889972  1
  Si0+  Si103  1  0.07103488  0.67584646  0.31815523  1
  Si0+  Si104  1  0.68067063  0.92881393  0.68018371  1
  Si0+  Si105  1  0.42757589  0.82224854  0.98321222  1
  Si0+  Si106  1  0.42749451  0.82221663  0.65336401  1
  Si0+  Si107  1  0.18044494  0.92992939  0.01701135  1
  Si0+  Si108  1  0.67446844  0.92570241  0.01816303  1
  Si0+  Si109  1  0.07082072  0.18052988  0.32079087  1
  Si0+  Si110  1  0.67828147  0.92851288  0.34921004  1
  Si0+  Si111  1  0.67896459  0.42572525  0.68463155  1
  Si0+  Si112  1  0.56835515  0.67913421  0.98473555  1
  Si0+  Si113  1  0.07270224  0.17877941  0.64738187  1
  Si0+  Si114  1  0.32084553  0.57169679  0.01481002  1
  Si0+  Si115  1  0.82000802  0.07236326  0.68061479  1
  Si0+  Si116  1  0.42845970  0.31982207  0.64938463  1
  Si0+  Si117  1  0.17926636  0.42763248  0.01223173  1
  Si0+  Si118  1  0.92951672  0.32183934  0.31838294  1
  Si0+  Si119  1  0.17708394  0.42851664  0.68640062  1
  O2-  O120  1  0.25148436  0.00109053  0.05917875  1
  O2-  O121  1  0.25304317  -0.01022095  0.39087795  1
  O2-  O122  1  0.24988199  0.00200957  0.73441324  1
  O2-  O123  1  0.24847919  0.50062904  0.05443806  1
  O2-  O124  1  0.24737387  0.50073495  0.39676785  1
  O2-  O125  1  0.24592618  0.49680145  0.73134601  1
  O2-  O126  1  0.74413903  -0.00504834  0.05962917  1
  O2-  O127  1  0.74901332  -0.00560432  0.39531431  1
  O2-  O128  1  0.75142710  -0.00025129  0.72329082  1
  O2-  O129  1  0.75744504  0.50385862  0.05954533  1
  O2-  O130  1  0.74427418  0.50509640  0.39895889  1
  O2-  O131  1  0.74702321  0.49552539  0.72820263  1
  O2-  O132  1  0.00198758  0.25233341  0.27615452  1
  O2-  O133  1  0.00532539  0.24896207  0.60373864  1
  O2-  O134  1  -0.00397360  0.25386780  0.94155067  1
  O2-  O135  1  0.00140407  0.74380303  0.27393972  1
  O2-  O136  1  0.00489820  0.74548502  0.60378454  1
  O2-  O137  1  -0.00393490  0.74396410  0.93348105  1
  O2-  O138  1  0.49669706  0.25434723  0.27453545  1
  O2-  O139  1  0.49668683  0.24523150  0.60891841  1
  O2-  O140  1  0.50099303  0.24967131  0.93341747  1
  O2-  O141  1  0.49391039  0.74548102  0.26778237  1
  O2-  O142  1  0.49151431  0.75016400  0.60880589  1
  O2-  O143  1  0.49953322  0.75198761  0.94168613  1
  O2-  O144  1  0.07424507  0.18119937  0.10050058  1
  O2-  O145  1  0.06892732  0.17976856  0.42560078  1
  O2-  O146  1  0.06979850  0.17888982  0.75336565  1
  O2-  O147  1  0.07533745  0.67882517  0.09782311  1
  O2-  O148  1  0.07311735  0.67757310  0.42356435  1
  O2-  O149  1  0.07204705  0.67895572  0.75458072  1
  O2-  O150  1  0.57245633  0.17964914  0.09730021  1
  O2-  O151  1  0.57032114  0.17912192  0.43372085  1
  O2-  O152  1  0.57360832  0.17876952  0.75604802  1
  O2-  O153  1  0.56592446  0.67799062  0.08929039  1
  O2-  O154  1  0.56997665  0.67931530  0.42997556  1
  O2-  O155  1  0.56948540  0.68070261  0.76787929  1
  O2-  O156  1  0.17829425  0.42385946  0.23403812  1
  O2-  O157  1  0.17866252  0.42888843  0.58100087  1
  O2-  O158  1  0.17953069  0.42715937  0.90739937  1
  O2-  O159  1  0.17567076  0.93267099  0.24175979  1
  O2-  O160  1  0.17827991  0.93215759  0.56999891  1
  O2-  O161  1  0.18159032  0.93048853  0.91214201  1
  O2-  O162  1  0.68163931  0.42629398  0.23605357  1
  O2-  O163  1  0.67953260  0.42326178  0.57954122  1
  O2-  O164  1  0.68089380  0.43380382  0.90010033  1
  O2-  O165  1  0.67786167  0.93093370  0.24360471  1
  O2-  O166  1  0.67848751  0.93090788  0.57544611  1
  O2-  O167  1  0.67363764  0.92429115  0.91200019  1
  O2-  O168  1  0.42638621  0.32049324  0.09855428  1
  O2-  O169  1  0.42471774  0.31627787  0.42512345  1
  O2-  O170  1  0.43078293  0.32157085  0.75450825  1
  O2-  O171  1  0.42531698  0.82259820  0.08799419  1
  O2-  O172  1  0.42979605  0.82298952  0.43374963  1
  O2-  O173  1  0.43184559  0.82211672  0.75957043  1
  O2-  O174  1  0.93004555  0.32294287  0.09187372  1
  O2-  O175  1  0.93012145  0.32010888  0.42356278  1
  O2-  O176  1  0.92823546  0.31712907  0.76590581  1
  O2-  O177  1  0.93195791  0.82062501  0.09738810  1
  O2-  O178  1  0.93307234  0.82439435  0.43145323  1
  O2-  O179  1  0.92932349  0.82057605  0.76349032  1
  O2-  O180  1  0.31916871  0.07152116  0.23028806  1
  O2-  O181  1  0.32667998  0.06916295  0.57171380  1
  O2-  O182  1  0.32056655  0.06935307  0.90988950  1
  O2-  O183  1  0.31681395  0.57051511  0.23284907  1
  O2-  O184  1  0.32162247  0.56757120  0.56912622  1
  O2-  O185  1  0.32233990  0.57127783  0.90956956  1
  O2-  O186  1  0.82447083  0.07018405  0.23525253  1
  O2-  O187  1  0.81798092  0.07306691  0.57560967  1
  O2-  O188  1  0.81980684  0.06742428  0.89852872  1
  O2-  O189  1  0.82059792  0.56965915  0.23290286  1
  O2-  O190  1  0.81680828  0.57397330  0.56885521  1
  O2-  O191  1  0.82133049  0.57353078  0.90926462  1
  O2-  O192  1  0.04223965  0.08990573  0.27145378  1
  O2-  O193  1  0.04556929  0.08622636  0.60111049  1
  O2-  O194  1  0.04004596  0.08428984  0.93132072  1
  O2-  O195  1  0.04619610  0.58124576  0.27311727  1
  O2-  O196  1  0.05205390  0.58283451  0.60543051  1
  O2-  O197  1  0.05270129  0.57682075  0.93080580  1
  O2-  O198  1  0.54424872  0.08400510  0.26414544  1
  O2-  O199  1  0.54545835  0.08386773  0.60587569  1
  O2-  O200  1  0.54703714  0.07918917  0.93121416  1
  O2-  O201  1  0.54198898  0.57556774  0.26536529  1
  O2-  O202  1  0.54232977  0.57990037  0.60197657  1
  O2-  O203  1  0.53826761  0.58900548  0.93579009  1
  O2-  O204  1  0.16380317  0.20736740  0.27475262  1
  O2-  O205  1  0.16830732  0.20288849  0.60458944  1
  O2-  O206  1  0.16508624  0.21059605  0.92760863  1
  O2-  O207  1  0.16357234  0.70168693  0.26959973  1
  O2-  O208  1  0.16907876  0.70537844  0.60623236  1
  O2-  O209  1  0.16961431  0.71064821  0.93038533  1
  O2-  O210  1  0.66972073  0.21190991  0.26777465  1
  O2-  O211  1  0.66135534  0.20718058  0.60228455  1
  O2-  O212  1  0.67174072  0.20915394  0.93093907  1
  O2-  O213  1  0.66504645  0.70797532  0.25934828  1
  O2-  O214  1  0.66339104  0.71371647  0.59907009  1
  O2-  O215  1  0.66078643  0.70546413  0.93736835  1
  O2-  O216  1  0.08683860  0.45245523  0.06095234  1
  O2-  O217  1  0.07885662  0.45366737  0.40240633  1
  O2-  O218  1  0.08317413  0.45259806  0.73228701  1
  O2-  O219  1  0.08868336  0.95832239  0.06323571  1
  O2-  O220  1  0.08828674  0.96307342  0.39696439  1
  O2-  O221  1  0.07971184  0.96250990  0.73760451  1
  O2-  O222  1  0.58427821  0.46385295  0.06787245  1
  O2-  O223  1  0.57652958  0.44635414  0.40008318  1
  O2-  O224  1  0.58503662  0.45043041  0.72996012  1
  O2-  O225  1  0.58007224  0.95063145  0.06322936  1
  O2-  O226  1  0.58628383  0.95704723  0.39673167  1
  O2-  O227  1  0.59008525  0.95564390  0.73139980  1
  O2-  O228  1  0.20905913  0.33585773  0.05906558  1
  O2-  O229  1  0.20539199  0.33088044  0.40704615  1
  O2-  O230  1  0.20231997  0.33396074  0.73077177  1
  O2-  O231  1  0.20948577  0.83792596  0.06376939  1
  O2-  O232  1  0.19296314  0.83264332  0.39181910  1
  O2-  O233  1  0.20371814  0.83262182  0.74054806  1
  O2-  O234  1  0.70860591  0.33416025  0.06763499  1
  O2-  O235  1  0.71184920  0.33233077  0.40519053  1
  O2-  O236  1  0.70747923  0.33239213  0.73091112  1
  O2-  O237  1  0.69884991  0.83172908  0.06432773  1
  O2-  O238  1  0.70168834  0.83368992  0.39247139  1
  O2-  O239  1  0.70912840  0.83788272  0.72867582  1
  O2-  O240  1  0.44526118  0.41455613  0.27441221  1
  O2-  O241  1  0.45937360  0.40973355  0.60072598  1
  O2-  O242  1  0.46064681  0.42027785  0.93173561  1
  O2-  O243  1  0.46014832  0.91631483  0.26282610  1
  O2-  O244  1  0.45729390  0.91564829  0.60917721  1
  O2-  O245  1  0.45449814  0.91344507  0.93415050  1
  O2-  O246  1  0.95520787  0.41425299  0.27122379  1
  O2-  O247  1  0.95849266  0.41887350  0.59900180  1
  O2-  O248  1  0.95312324  0.41600223  0.93910572  1
  O2-  O249  1  0.96488822  0.91853167  0.26503863  1
  O2-  O250  1  0.96089557  0.91862313  0.59821871  1
  O2-  O251  1  0.96217888  0.91611616  0.93044721  1
  O2-  O252  1  0.33161092  0.29062255  0.27446895  1
  O2-  O253  1  0.33456300  0.29625879  0.60425880  1
  O2-  O254  1  0.33336425  0.29462737  0.92707310  1
  O2-  O255  1  0.32604322  0.79827324  0.26651665  1
  O2-  O256  1  0.33109158  0.80228460  0.61229459  1
  O2-  O257  1  0.33671780  0.79330790  0.93495831  1
  O2-  O258  1  0.83878416  0.29070586  0.27170689  1
  O2-  O259  1  0.83365472  0.28811099  0.59662246  1
  O2-  O260  1  0.83487575  0.29637458  0.93969311  1
  O2-  O261  1  0.83273689  0.79716787  0.26245509  1
  O2-  O262  1  0.83340628  0.79117147  0.59730340  1
  O2-  O263  1  0.82694693  0.79822971  0.93246627  1
  O2-  O264  1  0.41452605  0.04415997  0.05958321  1
  O2-  O265  1  0.42062085  0.04021807  0.39702394  1
  O2-  O266  1  0.42199167  0.04323590  0.74050184  1
  O2-  O267  1  0.41167454  0.54310912  0.06276791  1
  O2-  O268  1  0.41706667  0.54340442  0.40080149  1
  O2-  O269  1  0.41784329  0.53424587  0.73597349  1
  O2-  O270  1  0.91812898  0.03716938  0.06590467  1
  O2-  O271  1  0.91881317  0.04037223  0.40370679  1
  O2-  O272  1  0.91330719  0.04734793  0.72551551  1
  O2-  O273  1  0.91954825  0.55236155  0.05853104  1
  O2-  O274  1  0.91548389  0.54495920  0.40175961  1
  O2-  O275  1  0.91766591  0.54293522  0.73430634  1
  O2-  O276  1  0.29223778  0.16517317  0.05808387  1
  O2-  O277  1  0.28930077  0.16107342  0.40318962  1
  O2-  O278  1  0.29635195  0.17184253  0.73671940  1
  O2-  O279  1  0.29362617  0.66431100  0.06083981  1
  O2-  O280  1  0.29218012  0.67139631  0.40060699  1
  O2-  O281  1  0.29561674  0.66639951  0.73717832  1
  O2-  O282  1  0.79357643  0.16547993  0.06667526  1
  O2-  O283  1  0.79042257  0.16517477  0.40363141  1
  O2-  O284  1  0.78931543  0.16320101  0.72838510  1
  O2-  O285  1  0.79565632  0.66794863  0.05932812  1
  O2-  O286  1  0.79158600  0.67471331  0.39588601  1
  O2-  O287  1  0.78585916  0.66812444  0.73562119  1
