# generated using pymatgen
data_Ca2Al2SiO7
_symmetry_space_group_name_H-M   'P 1'
_cell_length_a   15.45854311
_cell_length_b   15.45835884
_cell_length_c   15.28410858
_cell_angle_alpha   89.99792863
_cell_angle_beta   90.00324637
_cell_angle_gamma   89.99855747
_symmetry_Int_Tables_number   1
_chemical_formula_structural   Ca2Al2SiO7
_chemical_formula_sum   'Ca48 Al48 Si24 O168'
_cell_volume   3652.34722762
_cell_formula_units_Z   24
loop_
 _symmetry_equiv_pos_site_id
 _symmetry_equiv_pos_as_xyz
  1  'x, y, z'
loop_
 _atom_type_symbol
 _atom_type_oxidation_number
  Ca2+  2.0
  Al0+  0.0
  Si0+  0.0
  O2-  -2.0
loop_
 _atom_site_type_symbol
 _atom_site_label
 _atom_site_symmetry_multiplicity
 _atom_site_fract_x
 _atom_site_fract_y
 _atom_site_fract_z
 _atom_site_occupancy
  Ca2+  Ca0  1  0.17590395  0.08899842  0.17105425  1
  Ca2+  Ca1  1  0.17814095  0.07720439  0.50857101  1
  Ca2+  Ca2  1  0.17168393  0.09153416  0.83599040  1
  Ca2+  Ca3  1  0.16056311  0.57504095  0.17715145  1
  Ca2+  Ca4  1  0.15934380  0.58110460  0.50143910  1
  Ca2+  Ca5  1  0.16521940  0.58652481  0.83490219  1
  Ca2+  Ca6  1  0.67028421  0.08112318  0.16803604  1
  Ca2+  Ca7  1  0.66515810  0.07870895  0.50514599  1
  Ca2+  Ca8  1  0.67316405  0.06998535  0.84270598  1
  Ca2+  Ca9  1  0.67361798  0.58787718  0.16770639  1
  Ca2+  Ca10  1  0.67095012  0.58538111  0.50193705  1
  Ca2+  Ca11  1  0.66985450  0.57359291  0.84588678  1
  Ca2+  Ca12  1  0.07870460  0.33099123  0.15906407  1
  Ca2+  Ca13  1  0.08882352  0.32687351  0.49609735  1
  Ca2+  Ca14  1  0.07524590  0.32227767  0.83382995  1
  Ca2+  Ca15  1  0.07099043  0.83022804  0.16335006  1
  Ca2+  Ca16  1  0.08397271  0.82478941  0.49352100  1
  Ca2+  Ca17  1  0.07663570  0.83384178  0.82600789  1
  Ca2+  Ca18  1  0.58091557  0.33168396  0.16423300  1
  Ca2+  Ca19  1  0.57777603  0.32707875  0.49102234  1
  Ca2+  Ca20  1  0.58762232  0.33550620  0.82946641  1
  Ca2+  Ca21  1  0.58513270  0.82475989  0.16412209  1
  Ca2+  Ca22  1  0.57829879  0.83365105  0.48936660  1
  Ca2+  Ca23  1  0.59355934  0.83072067  0.83382289  1
  Ca2+  Ca24  1  0.32631957  0.41414022  0.17570457  1
  Ca2+  Ca25  1  0.33054229  0.41373368  0.49639785  1
  Ca2+  Ca26  1  0.33018540  0.41868808  0.83763543  1
  Ca2+  Ca27  1  0.33804014  0.92671110  0.17217409  1
  Ca2+  Ca28  1  0.33454463  0.92463196  0.50646835  1
  Ca2+  Ca29  1  0.32344053  0.92735613  0.83729936  1
  Ca2+  Ca30  1  0.83641280  0.42807989  0.16993930  1
  Ca2+  Ca31  1  0.82668707  0.42548577  0.50392543  1
  Ca2+  Ca32  1  0.82518339  0.41990523  0.84408153  1
  Ca2+  Ca33  1  0.83457609  0.91360064  0.16581902  1
  Ca2+  Ca34  1  0.82794537  0.91235462  0.50111905  1
  Ca2+  Ca35  1  0.82697120  0.91636614  0.84308889  1
  Ca2+  Ca36  1  0.41745623  0.16556229  0.16807676  1
  Ca2+  Ca37  1  0.42020682  0.16516265  0.48965648  1
  Ca2+  Ca38  1  0.41350595  0.16278134  0.83203306  1
  Ca2+  Ca39  1  0.42747900  0.66980101  0.16323570  1
  Ca2+  Ca40  1  0.42496591  0.67732178  0.48758981  1
  Ca2+  Ca41  1  0.42490066  0.66793006  0.83147399  1
  Ca2+  Ca42  1  0.92230387  0.17252827  0.15131578  1
  Ca2+  Ca43  1  0.92407039  0.16613494  0.49757108  1
  Ca2+  Ca44  1  0.92113763  0.16352932  0.83346717  1
  Ca2+  Ca45  1  0.90950232  0.67333435  0.16428101  1
  Ca2+  Ca46  1  0.92343722  0.67206735  0.49063365  1
  Ca2+  Ca47  1  0.91603918  0.66994202  0.83425233  1
  Al0+  Al48  1  0.00175212  -0.00231107  -0.00580441  1
  Al0+  Al49  1  0.00102463  -0.00026744  0.33159339  1
  Al0+  Al50  1  -0.00020753  0.00060779  0.66170835  1
  Al0+  Al51  1  -0.00088055  0.49860671  -0.00224171  1
  Al0+  Al52  1  -0.00094923  0.49855186  0.34303780  1
  Al0+  Al53  1  -0.00043687  0.50062350  0.66442019  1
  Al0+  Al54  1  0.49750057  0.00016157  0.00669907  1
  Al0+  Al55  1  0.50183052  0.00109823  0.32949841  1
  Al0+  Al56  1  0.50068817  0.00061548  0.67601374  1
  Al0+  Al57  1  0.49880702  0.50019470  -0.00100976  1
  Al0+  Al58  1  0.49850256  0.49822482  0.32692450  1
  Al0+  Al59  1  0.49950961  0.50015040  0.66797245  1
  Al0+  Al60  1  0.25087066  0.25104122  -0.00034566  1
  Al0+  Al61  1  0.25134833  0.24953215  0.33952149  1
  Al0+  Al62  1  0.24922742  0.25258552  0.66654245  1
  Al0+  Al63  1  0.25204131  0.75143345  0.00054440  1
  Al0+  Al64  1  0.24955842  0.74945934  0.32400595  1
  Al0+  Al65  1  0.25092847  0.75086331  0.66649735  1
  Al0+  Al66  1  0.74753238  0.24904889  0.00199012  1
  Al0+  Al67  1  0.75110251  0.24948784  0.33212114  1
  Al0+  Al68  1  0.74898982  0.25153058  0.66782438  1
  Al0+  Al69  1  0.74956029  0.74765479  -0.00287083  1
  Al0+  Al70  1  0.75098050  0.75058123  0.33333364  1
  Al0+  Al71  1  0.75134206  0.74861607  0.66950313  1
  Al0+  Al72  1  0.07264179  0.17901972  0.98599431  1
  Al0+  Al73  1  0.17902145  0.42987561  0.34825921  1
  Al0+  Al74  1  0.32006724  0.07300331  0.68288420  1
  Al0+  Al75  1  0.82356386  0.06966444  0.01417832  1
  Al0+  Al76  1  0.56921202  0.68016810  0.98408137  1
  Al0+  Al77  1  0.92963678  0.82185635  0.31819915  1
  Al0+  Al78  1  0.42760534  0.82348597  0.31828656  1
  Al0+  Al79  1  0.92969121  0.81918427  0.98411534  1
  Al0+  Al80  1  0.57214060  0.67835746  0.31934858  1
  Al0+  Al81  1  0.07131477  0.17953957  0.65006804  1
  Al0+  Al82  1  0.92578260  0.32190937  0.98549429  1
  Al0+  Al83  1  0.68008109  0.92856501  0.67922134  1
  Al0+  Al84  1  0.07040966  0.67550081  0.31848324  1
  Al0+  Al85  1  0.57390589  0.17840925  0.31759098  1
  Al0+  Al86  1  0.07190217  0.68002199  0.65256853  1
  Al0+  Al87  1  0.31751143  0.07188314  0.01666607  1
  Al0+  Al88  1  0.81870107  0.57190639  0.34979635  1
  Al0+  Al89  1  0.67943388  0.92755252  0.01799032  1
  Al0+  Al90  1  0.32160926  0.06815757  0.34814306  1
  Al0+  Al91  1  0.17788319  0.92722487  0.68031271  1
  Al0+  Al92  1  0.82154429  0.56885041  0.01537298  1
  Al0+  Al93  1  0.67556135  0.42684929  0.01747796  1
  Al0+  Al94  1  0.42758488  0.31898336  0.31823044  1
  Al0+  Al95  1  0.67798382  0.43043866  0.67881640  1
  Si0+  Si96  1  0.42933968  0.32038624  0.98321211  1
  Si0+  Si97  1  0.82280808  0.57082175  0.68468350  1
  Si0+  Si98  1  0.18087763  0.43156773  0.01215962  1
  Si0+  Si99  1  0.42721845  0.82427916  0.98021442  1
  Si0+  Si100  1  0.82431702  0.07371326  0.34871508  1
  Si0+  Si101  1  0.07462851  0.67696063  0.98396842  1
  Si0+  Si102  1  0.07092501  0.18006699  0.32032298  1
  Si0+  Si103  1  0.68168065  0.93125979  0.34742304  1
  Si0+  Si104  1  0.56984054  0.17696127  0.98369951  1
  Si0+  Si105  1  0.82236679  0.07353623  0.68100223  1
  Si0+  Si106  1  0.43162814  0.82162960  0.65453715  1
  Si0+  Si107  1  0.67665441  0.42617950  0.34972532  1
  Si0+  Si108  1  0.92663251  0.32173340  0.64809001  1
  Si0+  Si109  1  0.92903535  0.32032855  0.32096279  1
  Si0+  Si110  1  0.42876535  0.32334834  0.65205378  1
  Si0+  Si111  1  0.32125471  0.57148561  0.68053784  1
  Si0+  Si112  1  0.32318072  0.57355043  0.34840576  1
  Si0+  Si113  1  0.17796403  0.42984152  0.68339151  1
  Si0+  Si114  1  0.56975313  0.17888592  0.65506822  1
  Si0+  Si115  1  0.92597414  0.82188799  0.64920820  1
  Si0+  Si116  1  0.32140893  0.57294472  0.01438218  1
  Si0+  Si117  1  0.17732484  0.92481529  0.01819627  1
  Si0+  Si118  1  0.57103719  0.67791251  0.65265635  1
  Si0+  Si119  1  0.17641181  0.92702657  0.34824778  1
  O2-  O120  1  0.24301665  -0.00341697  0.06208806  1
  O2-  O121  1  0.24987996  -0.00984162  0.39349234  1
  O2-  O122  1  0.24394281  0.00435474  0.73156382  1
  O2-  O123  1  0.24552368  0.50737920  0.05522567  1
  O2-  O124  1  0.25218741  0.50767442  0.39431300  1
  O2-  O125  1  0.24796532  0.50283290  0.72427510  1
  O2-  O126  1  0.75243010  -0.00108939  0.06781611  1
  O2-  O127  1  0.75228097  0.00305726  0.39012127  1
  O2-  O128  1  0.75716073  0.00136223  0.72406758  1
  O2-  O129  1  0.75079871  0.49571119  0.06621692  1
  O2-  O130  1  0.74081797  0.49869512  0.39507759  1
  O2-  O131  1  0.75268323  0.50328656  0.72725086  1
  O2-  O132  1  -0.00137821  0.24879315  0.27777189  1
  O2-  O133  1  -0.00452326  0.25344780  0.60276324  1
  O2-  O134  1  -0.00607126  0.24493807  0.93668569  1
  O2-  O135  1  -0.00001223  0.74803298  0.26826502  1
  O2-  O136  1  -0.00140419  0.75640686  0.60668444  1
  O2-  O137  1  0.00743517  0.74619609  0.93893487  1
  O2-  O138  1  0.50221205  0.25082281  0.26744735  1
  O2-  O139  1  0.49818288  0.24951013  0.61243285  1
  O2-  O140  1  0.50162348  0.25107846  0.94052658  1
  O2-  O141  1  0.49684791  0.74769112  0.27040693  1
  O2-  O142  1  0.50471270  0.75312412  0.61078450  1
  O2-  O143  1  0.49711753  0.75700580  0.93517372  1
  O2-  O144  1  0.07599112  0.18543713  0.09995269  1
  O2-  O145  1  0.06919521  0.18085176  0.42559473  1
  O2-  O146  1  0.07186737  0.18361373  0.76265348  1
  O2-  O147  1  0.07601782  0.67610741  0.08892166  1
  O2-  O148  1  0.06877000  0.67787859  0.43248755  1
  O2-  O149  1  0.07043504  0.67882381  0.76577687  1
  O2-  O150  1  0.56751164  0.17655199  0.08837604  1
  O2-  O151  1  0.57384889  0.17836205  0.43242330  1
  O2-  O152  1  0.56985926  0.18007717  0.75994890  1
  O2-  O153  1  0.56591771  0.67936063  0.09658240  1
  O2-  O154  1  0.57160677  0.68207447  0.43428059  1
  O2-  O155  1  0.56778421  0.67577961  0.75740592  1
  O2-  O156  1  0.17918890  0.42830698  0.23476693  1
  O2-  O157  1  0.17986694  0.42846630  0.57855472  1
  O2-  O158  1  0.18425001  0.43162972  0.90664356  1
  O2-  O159  1  0.17222984  0.93320170  0.24300935  1
  O2-  O160  1  0.18425026  0.92525401  0.56669800  1
  O2-  O161  1  0.18103778  0.92032023  0.91267408  1
  O2-  O162  1  0.68093373  0.42329979  0.24493319  1
  O2-  O163  1  0.67713397  0.43211834  0.56568777  1
  O2-  O164  1  0.67432475  0.43098433  0.90314965  1
  O2-  O165  1  0.68267647  0.93091664  0.24302700  1
  O2-  O166  1  0.67777808  0.93020271  0.56558730  1
  O2-  O167  1  0.68103265  0.92983811  0.90370264  1
  O2-  O168  1  0.42573188  0.32004793  0.08764322  1
  O2-  O169  1  0.42861107  0.31739525  0.43263863  1
  O2-  O170  1  0.42896256  0.32659874  0.75724759  1
  O2-  O171  1  0.42535580  0.82101449  0.08540143  1
  O2-  O172  1  0.43141081  0.82415039  0.43322551  1
  O2-  O173  1  0.43116816  0.81851643  0.75932028  1
  O2-  O174  1  0.93313063  0.32513794  0.09946522  1
  O2-  O175  1  0.92841632  0.31718837  0.42634641  1
  O2-  O176  1  0.92687851  0.32131438  0.75318256  1
  O2-  O177  1  0.93069121  0.81831439  0.09682495  1
  O2-  O178  1  0.92960232  0.82248069  0.43223974  1
  O2-  O179  1  0.92349639  0.81931374  0.75452290  1
  O2-  O180  1  0.31761337  0.07061106  0.23528937  1
  O2-  O181  1  0.32372653  0.07063952  0.56939561  1
  O2-  O182  1  0.31644384  0.07293841  0.90350048  1
  O2-  O183  1  0.32286075  0.57005949  0.24277190  1
  O2-  O184  1  0.32443782  0.56969493  0.57602557  1
  O2-  O185  1  0.32190092  0.57095842  0.90846688  1
  O2-  O186  1  0.82648374  0.07593073  0.24440084  1
  O2-  O187  1  0.81916369  0.07581821  0.57485778  1
  O2-  O188  1  0.82031557  0.06812572  0.89996132  1
  O2-  O189  1  0.82039087  0.57039512  0.23741959  1
  O2-  O190  1  0.82113644  0.57142010  0.57894814  1
  O2-  O191  1  0.82088317  0.56775914  0.90124450  1
  O2-  O192  1  0.04609919  0.08806721  0.27319096  1
  O2-  O193  1  0.04320345  0.08256938  0.59455874  1
  O2-  O194  1  0.05340166  0.07885669  0.93346302  1
  O2-  O195  1  0.04149029  0.57498630  0.27085834  1
  O2-  O196  1  0.04143314  0.58251360  0.59920016  1
  O2-  O197  1  0.04915886  0.58356749  0.93687646  1
  O2-  O198  1  0.54560989  0.08174432  0.26342677  1
  O2-  O199  1  0.54214300  0.08638590  0.60840581  1
  O2-  O200  1  0.53728961  0.08590449  0.93691540  1
  O2-  O201  1  0.54804248  0.57931516  0.26708049  1
  O2-  O202  1  0.53838932  0.58812060  0.60407850  1
  O2-  O203  1  0.53290056  0.58434600  0.92956870  1
  O2-  O204  1  0.16227555  0.21089404  0.27550658  1
  O2-  O205  1  0.16762337  0.21463354  0.59681220  1
  O2-  O206  1  0.16735363  0.21829314  0.93094000  1
  O2-  O207  1  0.16976865  0.69638708  0.26487010  1
  O2-  O208  1  0.17046932  0.70686255  0.59930860  1
  O2-  O209  1  0.16984123  0.70087463  0.93859903  1
  O2-  O210  1  0.67282225  0.20535438  0.26508342  1
  O2-  O211  1  0.66150598  0.20612879  0.60643832  1
  O2-  O212  1  0.66235628  0.20065599  0.93601335  1
  O2-  O213  1  0.66831370  0.71116886  0.26681769  1
  O2-  O214  1  0.66546725  0.70096551  0.60854249  1
  O2-  O215  1  0.66547804  0.70773804  0.92830732  1
  O2-  O216  1  0.08775840  0.45377218  0.05862674  1
  O2-  O217  1  0.08385905  0.45625321  0.40771617  1
  O2-  O218  1  0.08540692  0.45677783  0.72938432  1
  O2-  O219  1  0.08223898  0.94691228  0.06066236  1
  O2-  O220  1  0.08513197  0.95716711  0.39771394  1
  O2-  O221  1  0.07574699  0.94956428  0.72764606  1
  O2-  O222  1  0.57679361  0.45802174  0.06806981  1
  O2-  O223  1  0.57989185  0.44655379  0.39191250  1
  O2-  O224  1  0.58146241  0.46060523  0.73396635  1
  O2-  O225  1  0.58051446  0.95579359  0.06867762  1
  O2-  O226  1  0.59003459  0.95973260  0.39509906  1
  O2-  O227  1  0.58637511  0.96004703  0.73756626  1
  O2-  O228  1  0.21469407  0.34269349  0.06074876  1
  O2-  O229  1  0.21442869  0.33575406  0.40555372  1
  O2-  O230  1  0.20910097  0.34024114  0.73250418  1
  O2-  O231  1  0.20573147  0.83235213  0.06604159  1
  O2-  O232  1  0.19692233  0.82977248  0.38867057  1
  O2-  O233  1  0.21040864  0.83070214  0.73554658  1
  O2-  O234  1  0.69554698  0.32589825  0.06662768  1
  O2-  O235  1  0.70702603  0.33386213  0.39780570  1
  O2-  O236  1  0.70633857  0.33302390  0.73281159  1
  O2-  O237  1  0.70700600  0.82799500  0.06661099  1
  O2-  O238  1  0.70964562  0.84047918  0.39711974  1
  O2-  O239  1  0.70880055  0.83111690  0.73296625  1
  O2-  O240  1  0.44865202  0.41834646  0.26463453  1
  O2-  O241  1  0.45874697  0.41399557  0.60289578  1
  O2-  O242  1  0.45410938  0.41287585  0.93473664  1
  O2-  O243  1  0.46013021  0.91906310  0.26408307  1
  O2-  O244  1  0.45934666  0.91467539  0.60933395  1
  O2-  O245  1  0.45067732  0.91946189  0.93698754  1
  O2-  O246  1  0.95915985  0.41194998  0.27652881  1
  O2-  O247  1  0.95284261  0.41556567  0.60273310  1
  O2-  O248  1  0.96046958  0.41721426  0.92870664  1
  O2-  O249  1  0.95857300  0.92022772  0.26464586  1
  O2-  O250  1  0.94395446  0.91739944  0.60414674  1
  O2-  O251  1  0.95846211  0.91514939  0.92747393  1
  O2-  O252  1  0.32949480  0.28742545  0.26614528  1
  O2-  O253  1  0.33585709  0.29948014  0.60562575  1
  O2-  O254  1  0.33876828  0.29079899  0.93343678  1
  O2-  O255  1  0.32910945  0.80109783  0.26345067  1
  O2-  O256  1  0.34129730  0.79189040  0.60587252  1
  O2-  O257  1  0.33427143  0.79534537  0.93319685  1
  O2-  O258  1  0.83771928  0.29525808  0.27274859  1
  O2-  O259  1  0.83274782  0.29578098  0.60139732  1
  O2-  O260  1  0.82518827  0.29832520  0.93468796  1
  O2-  O261  1  0.83135809  0.79413848  0.26674210  1
  O2-  O262  1  0.83371623  0.79093778  0.60151651  1
  O2-  O263  1  0.83448143  0.78576053  0.92897193  1
  O2-  O264  1  0.41369510  0.04187810  0.07075995  1
  O2-  O265  1  0.42070974  0.04093859  0.39995647  1
  O2-  O266  1  0.41654350  0.04238265  0.73833410  1
  O2-  O267  1  0.40999375  0.53914031  0.06247490  1
  O2-  O268  1  0.41625007  0.54532987  0.39564593  1
  O2-  O269  1  0.41086895  0.53980675  0.73104887  1
  O2-  O270  1  0.92426917  0.04421132  0.06366440  1
  O2-  O271  1  0.91549756  0.04404034  0.39754261  1
  O2-  O272  1  0.91787911  0.05257660  0.72372545  1
  O2-  O273  1  0.92143902  0.54214591  0.06718718  1
  O2-  O274  1  0.91244811  0.53683339  0.40732428  1
  O2-  O275  1  0.91630813  0.54407058  0.72989184  1
  O2-  O276  1  0.28681060  0.16935671  0.06942610  1
  O2-  O277  1  0.28851967  0.16317407  0.40375906  1
  O2-  O278  1  0.29400938  0.17355155  0.73354306  1
  O2-  O279  1  0.30082110  0.66659069  0.06056560  1
  O2-  O280  1  0.30152379  0.66949129  0.39190525  1
  O2-  O281  1  0.29591772  0.66299398  0.72953861  1
  O2-  O282  1  0.79594147  0.16867447  0.06591772  1
  O2-  O283  1  0.79677329  0.16497348  0.39846480  1
  O2-  O284  1  0.79434632  0.16576506  0.72803869  1
  O2-  O285  1  0.78978901  0.66639273  0.06624121  1
  O2-  O286  1  0.78887997  0.66884457  0.40498092  1
  O2-  O287  1  0.79872403  0.66466539  0.73029561  1
