# generated using pymatgen
data_Ca2Al2SiO7
_symmetry_space_group_name_H-M   'P 1'
_cell_length_a   15.45589452
_cell_length_b   15.45581772
_cell_length_c   15.28249943
_cell_angle_alpha   90.00386629
_cell_angle_beta   90.00035338
_cell_angle_gamma   90.00288766
_symmetry_Int_Tables_number   1
_chemical_formula_structural   Ca2Al2SiO7
_chemical_formula_sum   'Ca48 Al48 Si24 O168'
_cell_volume   3650.73676304
_cell_formula_units_Z   24
loop_
 _symmetry_equiv_pos_site_id
 _symmetry_equiv_pos_as_xyz
  1  'x, y, z'
loop_
 _atom_type_symbol
 _atom_type_oxidation_number
  Ca2+  2.0
  Al0+  0.0
  Si0+  0.0
  O2-  -2.0
loop_
 _atom_site_type_symbol
 _atom_site_label
 _atom_site_symmetry_multiplicity
 _atom_site_fract_x
 _atom_site_fract_y
 _atom_site_fract_z
 _atom_site_occupancy
  Ca2+  Ca0  1  0.16376020  0.07955595  0.16490289  1
  Ca2+  Ca1  1  0.17212135  0.08768791  0.50426050  1
  Ca2+  Ca2  1  0.15833650  0.07863919  0.83955964  1
  Ca2+  Ca3  1  0.17541977  0.58078097  0.17132225  1
  Ca2+  Ca4  1  0.17211144  0.58353060  0.50960018  1
  Ca2+  Ca5  1  0.17390599  0.58115237  0.83920515  1
  Ca2+  Ca6  1  0.67037324  0.07391505  0.16858456  1
  Ca2+  Ca7  1  0.67275580  0.07532131  0.50700963  1
  Ca2+  Ca8  1  0.68114525  0.07506574  0.84261704  1
  Ca2+  Ca9  1  0.66938330  0.57161572  0.16820481  1
  Ca2+  Ca10  1  0.66032078  0.57769973  0.50248350  1
  Ca2+  Ca11  1  0.66502438  0.58278764  0.83850792  1
  Ca2+  Ca12  1  0.07929324  0.32572849  0.15197639  1
  Ca2+  Ca13  1  0.08852025  0.33129847  0.50036338  1
  Ca2+  Ca14  1  0.09037610  0.32579245  0.83172136  1
  Ca2+  Ca15  1  0.08275364  0.82926519  0.15918633  1
  Ca2+  Ca16  1  0.08152315  0.82106432  0.49955139  1
  Ca2+  Ca17  1  0.07637661  0.83194261  0.82762486  1
  Ca2+  Ca18  1  0.57422725  0.34292623  0.16076087  1
  Ca2+  Ca19  1  0.57657321  0.33315991  0.49050602  1
  Ca2+  Ca20  1  0.57783630  0.34009151  0.83497046  1
  Ca2+  Ca21  1  0.58634975  0.83642737  0.16159050  1
  Ca2+  Ca22  1  0.58109511  0.82924715  0.49904498  1
  Ca2+  Ca23  1  0.57741969  0.82849158  0.82483231  1
  Ca2+  Ca24  1  0.33468686  0.42277432  0.16836234  1
  Ca2+  Ca25  1  0.33093448  0.42856287  0.50635906  1
  Ca2+  Ca26  1  0.32392900  0.42630851  0.83969835  1
  Ca2+  Ca27  1  0.32544529  0.92451694  0.17086087  1
  Ca2+  Ca28  1  0.33602109  0.92206963  0.50343010  1
  Ca2+  Ca29  1  0.32609222  0.91282071  0.83944790  1
  Ca2+  Ca30  1  0.82193280  0.40367176  0.16694023  1
  Ca2+  Ca31  1  0.82591426  0.41571817  0.50223245  1
  Ca2+  Ca32  1  0.82830273  0.41716991  0.84250662  1
  Ca2+  Ca33  1  0.82828324  0.91660843  0.16429671  1
  Ca2+  Ca34  1  0.83187590  0.91684448  0.50603356  1
  Ca2+  Ca35  1  0.84054683  0.92264177  0.84222156  1
  Ca2+  Ca36  1  0.41179264  0.17912735  0.16221460  1
  Ca2+  Ca37  1  0.41373045  0.17555617  0.48849240  1
  Ca2+  Ca38  1  0.41480655  0.17602528  0.83257460  1
  Ca2+  Ca39  1  0.41575371  0.66013726  0.16407512  1
  Ca2+  Ca40  1  0.41277040  0.66766047  0.50093930  1
  Ca2+  Ca41  1  0.41779642  0.66734789  0.82582408  1
  Ca2+  Ca42  1  0.92040564  0.16957538  0.15387357  1
  Ca2+  Ca43  1  0.92175241  0.16172249  0.50364476  1
  Ca2+  Ca44  1  0.92437617  0.16334912  0.83163184  1
  Ca2+  Ca45  1  0.92393323  0.67138744  0.16126603  1
  Ca2+  Ca46  1  0.92992312  0.66472328  0.49713420  1
  Ca2+  Ca47  1  0.91950224  0.68117701  0.82435672  1
  Al0+  Al48  1  0.00063050  -0.00108461  0.00385076  1
  Al0+  Al49  1  -0.00082535  -0.00157574  0.33325068  1
  Al0+  Al50  1  0.00079629  0.00252265  0.65927403  1
  Al0+  Al51  1  0.00152461  0.50024760  -0.00030134  1
  Al0+  Al52  1  -0.00058443  0.49925257  0.32643608  1
  Al0+  Al53  1  -0.00338231  0.49746991  0.66749543  1
  Al0+  Al54  1  0.50033428  0.00051805  0.00157219  1
  Al0+  Al55  1  0.50073880  0.00005530  0.34129829  1
  Al0+  Al56  1  0.50166778  0.00129539  0.66489065  1
  Al0+  Al57  1  0.50141306  0.50115462  0.00151116  1
  Al0+  Al58  1  0.49917341  0.50074468  0.33787002  1
  Al0+  Al59  1  0.49817967  0.49982873  0.66654357  1
  Al0+  Al60  1  0.25114131  0.25199428  -0.00712091  1
  Al0+  Al61  1  0.24938202  0.25025125  0.33062181  1
  Al0+  Al62  1  0.24998976  0.25079944  0.66500309  1
  Al0+  Al63  1  0.25217102  0.75126667  0.00917424  1
  Al0+  Al64  1  0.25040238  0.75013802  0.33209728  1
  Al0+  Al65  1  0.25101424  0.75261162  0.66263596  1
  Al0+  Al66  1  0.74926456  0.24898311  0.00443348  1
  Al0+  Al67  1  0.74974161  0.24736928  0.33975974  1
  Al0+  Al68  1  0.75019498  0.24806260  0.67101366  1
  Al0+  Al69  1  0.75045579  0.74897037  -0.00031950  1
  Al0+  Al70  1  0.75018595  0.74961358  0.33710683  1
  Al0+  Al71  1  0.74691362  0.74831601  0.65746482  1
  Al0+  Al72  1  0.31982412  0.57336765  0.68252344  1
  Al0+  Al73  1  0.67966674  0.42924254  0.34778772  1
  Al0+  Al74  1  0.07049211  0.67657007  0.65434333  1
  Al0+  Al75  1  0.17783527  0.42727643  0.01619365  1
  Al0+  Al76  1  0.82188733  0.06828559  0.68179874  1
  Al0+  Al77  1  0.43106363  0.32286942  0.98430897  1
  Al0+  Al78  1  0.17646628  0.42771756  0.68179713  1
  Al0+  Al79  1  0.07093489  0.18126403  0.65095919  1
  Al0+  Al80  1  0.07036338  0.17947458  0.98468654  1
  Al0+  Al81  1  0.56938208  0.67657930  0.65009685  1
  Al0+  Al82  1  0.82212311  0.06985628  0.01625522  1
  Al0+  Al83  1  0.67770437  0.92643627  0.01295183  1
  Al0+  Al84  1  0.67938491  0.92765499  0.35012521  1
  Al0+  Al85  1  0.92993317  0.81794267  0.98810780  1
  Al0+  Al86  1  0.43051008  0.32149559  0.31920192  1
  Al0+  Al87  1  0.68118885  0.42994702  0.01196463  1
  Al0+  Al88  1  0.42815427  0.82379553  0.65105106  1
  Al0+  Al89  1  0.07260118  0.67851750  0.31715120  1
  Al0+  Al90  1  0.92568340  0.32303606  0.98492945  1
  Al0+  Al91  1  0.92860036  0.82300373  0.65031741  1
  Al0+  Al92  1  0.31805679  0.07180746  0.34546232  1
  Al0+  Al93  1  0.32115712  0.57061957  0.01654249  1
  Al0+  Al94  1  0.31940113  0.57086450  0.34952143  1
  Al0+  Al95  1  0.17925027  0.92990552  0.01246915  1
  Si0+  Si96  1  0.43049501  0.82324122  0.31665895  1
  Si0+  Si97  1  0.18112808  0.93221051  0.67852441  1
  Si0+  Si98  1  0.82344063  0.07118169  0.35285173  1
  Si0+  Si99  1  0.17689816  0.92809022  0.35187025  1
  Si0+  Si100  1  0.17546369  0.42796445  0.34848774  1
  Si0+  Si101  1  0.67859026  0.42854457  0.68153063  1
  Si0+  Si102  1  0.92373063  0.32156288  0.64908233  1
  Si0+  Si103  1  0.07606528  0.67877540  0.98431889  1
  Si0+  Si104  1  0.92738274  0.82133762  0.31503102  1
  Si0+  Si105  1  0.57157336  0.17551656  0.98316844  1
  Si0+  Si106  1  0.67805625  0.92612684  0.68371242  1
  Si0+  Si107  1  0.07050190  0.17864499  0.31799479  1
  Si0+  Si108  1  0.57302240  0.17662450  0.31745150  1
  Si0+  Si109  1  0.57007332  0.68045613  0.98787037  1
  Si0+  Si110  1  0.57315810  0.18031897  0.65232775  1
  Si0+  Si111  1  0.81986489  0.57159244  0.68022144  1
  Si0+  Si112  1  0.32367125  0.07349438  0.01398801  1
  Si0+  Si113  1  0.82366093  0.57389560  0.01499174  1
  Si0+  Si114  1  0.32399185  0.07311491  0.68131435  1
  Si0+  Si115  1  0.82320804  0.57132234  0.34982926  1
  Si0+  Si116  1  0.92674894  0.31951539  0.31949458  1
  Si0+  Si117  1  0.42855394  0.82329851  0.98873795  1
  Si0+  Si118  1  0.43007077  0.31897684  0.65068132  1
  Si0+  Si119  1  0.57109008  0.67971005  0.31672829  1
  O2-  O120  1  0.25321274  0.00644109  0.05762921  1
  O2-  O121  1  0.24394104  -0.00146193  0.39585701  1
  O2-  O122  1  0.25454687  0.00050706  0.72236128  1
  O2-  O123  1  0.24849123  0.49969931  0.06720477  1
  O2-  O124  1  0.24198538  0.49788363  0.39385753  1
  O2-  O125  1  0.24403706  0.50460836  0.73066064  1
  O2-  O126  1  0.74841971  -0.00147542  0.06463091  1
  O2-  O127  1  0.75533973  0.00140580  0.39593468  1
  O2-  O128  1  0.75171836  -0.01111168  0.72777395  1
  O2-  O129  1  0.76247526  0.49773240  0.05875960  1
  O2-  O130  1  0.75487259  0.50264124  0.39535664  1
  O2-  O131  1  0.74790718  0.50136259  0.72268385  1
  O2-  O132  1  -0.00148286  0.24918411  0.27774976  1
  O2-  O133  1  -0.00298005  0.25743293  0.60460953  1
  O2-  O134  1  -0.00013395  0.25339535  0.93451494  1
  O2-  O135  1  -0.00222749  0.75411181  0.27162598  1
  O2-  O136  1  -0.00228325  0.74721611  0.60197868  1
  O2-  O137  1  0.00373583  0.74330079  0.94008553  1
  O2-  O138  1  0.50591460  0.24643442  0.27255217  1
  O2-  O139  1  0.50068894  0.24818054  0.60753991  1
  O2-  O140  1  0.50489286  0.24620640  0.93803309  1
  O2-  O141  1  0.50109504  0.75168181  0.27373243  1
  O2-  O142  1  0.49808009  0.74974751  0.60047139  1
  O2-  O143  1  0.50097481  0.75382675  0.94730132  1
  O2-  O144  1  0.06922236  0.17879464  0.09904778  1
  O2-  O145  1  0.07098108  0.17931331  0.42317778  1
  O2-  O146  1  0.07086907  0.17779743  0.76306140  1
  O2-  O147  1  0.07545467  0.68217420  0.09023353  1
  O2-  O148  1  0.07073062  0.67845652  0.43022907  1
  O2-  O149  1  0.06895930  0.68028919  0.76783372  1
  O2-  O150  1  0.56849388  0.17282165  0.08871174  1
  O2-  O151  1  0.57207971  0.17892463  0.42364088  1
  O2-  O152  1  0.57250311  0.18195795  0.75716371  1
  O2-  O153  1  0.57024025  0.67927720  0.09322748  1
  O2-  O154  1  0.56999799  0.67972533  0.42145444  1
  O2-  O155  1  0.57024823  0.67728670  0.76421054  1
  O2-  O156  1  0.17614971  0.42746467  0.24332839  1
  O2-  O157  1  0.18185673  0.42565329  0.56750514  1
  O2-  O158  1  0.18106187  0.42843198  0.90286731  1
  O2-  O159  1  0.17717343  0.92962357  0.24615790  1
  O2-  O160  1  0.18222437  0.93475993  0.57325115  1
  O2-  O161  1  0.18114541  0.92779679  0.89896697  1
  O2-  O162  1  0.68039914  0.43072712  0.23495614  1
  O2-  O163  1  0.67973682  0.42718311  0.57618588  1
  O2-  O164  1  0.67800948  0.43582918  0.89859227  1
  O2-  O165  1  0.67986850  0.92876403  0.23720593  1
  O2-  O166  1  0.67648734  0.93094334  0.57792181  1
  O2-  O167  1  0.67566708  0.92674386  0.89971308  1
  O2-  O168  1  0.43283027  0.32233627  0.09762420  1
  O2-  O169  1  0.43186374  0.31929444  0.43278912  1
  O2-  O170  1  0.43201143  0.31843885  0.75569863  1
  O2-  O171  1  0.42896295  0.82473815  0.09389504  1
  O2-  O172  1  0.43130568  0.82357217  0.42150605  1
  O2-  O173  1  0.43010280  0.82647943  0.76518914  1
  O2-  O174  1  0.92550298  0.31754871  0.09933933  1
  O2-  O175  1  0.92641204  0.32000872  0.42471004  1
  O2-  O176  1  0.91770084  0.31943667  0.75366358  1
  O2-  O177  1  0.92953483  0.81512123  0.10140752  1
  O2-  O178  1  0.92825163  0.82142251  0.42049243  1
  O2-  O179  1  0.93103880  0.82343928  0.76413896  1
  O2-  O180  1  0.31642095  0.07076360  0.23251568  1
  O2-  O181  1  0.32254765  0.07441090  0.57597159  1
  O2-  O182  1  0.32675051  0.06945923  0.90813107  1
  O2-  O183  1  0.32117688  0.56905499  0.23682170  1
  O2-  O184  1  0.32093034  0.56942335  0.56875971  1
  O2-  O185  1  0.32182848  0.57318628  0.90320974  1
  O2-  O186  1  0.82419090  0.07322352  0.24784654  1
  O2-  O187  1  0.81759668  0.06993649  0.56836563  1
  O2-  O188  1  0.82238923  0.06719479  0.90255542  1
  O2-  O189  1  0.82133803  0.57214109  0.24434214  1
  O2-  O190  1  0.82082900  0.56805482  0.57498933  1
  O2-  O191  1  0.81747730  0.57850852  0.90941805  1
  O2-  O192  1  0.04378825  0.08530105  0.27249708  1
  O2-  O193  1  0.03925369  0.08734621  0.59214085  1
  O2-  O194  1  0.04035069  0.08039740  0.93419073  1
  O2-  O195  1  0.04095252  0.58248070  0.26172984  1
  O2-  O196  1  0.04123213  0.57786619  0.60087679  1
  O2-  O197  1  0.05680846  0.58313517  0.94154363  1
  O2-  O198  1  0.54624450  0.08248823  0.27391376  1
  O2-  O199  1  0.54864281  0.08776482  0.60474065  1
  O2-  O200  1  0.54369398  0.08333952  0.93414954  1
  O2-  O201  1  0.54118514  0.58791666  0.27060354  1
  O2-  O202  1  0.54077182  0.57778280  0.59668477  1
  O2-  O203  1  0.54003455  0.59079175  0.93818513  1
  O2-  O204  1  0.16147935  0.20569467  0.26934915  1
  O2-  O205  1  0.16823399  0.21132631  0.59584126  1
  O2-  O206  1  0.16963234  0.20317194  0.93072028  1
  O2-  O207  1  0.16872611  0.71126428  0.26325909  1
  O2-  O208  1  0.16739813  0.70804935  0.60014468  1
  O2-  O209  1  0.16885286  0.71065853  0.94054483  1
  O2-  O210  1  0.66830092  0.20006290  0.27420733  1
  O2-  O211  1  0.66356406  0.21052257  0.60340262  1
  O2-  O212  1  0.66591788  0.20027503  0.93943943  1
  O2-  O213  1  0.66450849  0.70572492  0.27118311  1
  O2-  O214  1  0.66678469  0.70143460  0.59285772  1
  O2-  O215  1  0.66180140  0.70524638  0.93886326  1
  O2-  O216  1  0.07741206  0.45112748  0.06798095  1
  O2-  O217  1  0.08000794  0.45051855  0.39260963  1
  O2-  O218  1  0.07399293  0.44514633  0.73027549  1
  O2-  O219  1  0.08543810  0.96008090  0.07126625  1
  O2-  O220  1  0.08225118  0.95165027  0.39655564  1
  O2-  O221  1  0.08988554  0.96350404  0.72418501  1
  O2-  O222  1  0.58852093  0.46862267  0.06816759  1
  O2-  O223  1  0.58503084  0.46249798  0.40357606  1
  O2-  O224  1  0.58621037  0.45529995  0.72783280  1
  O2-  O225  1  0.57953998  0.95551752  0.06764196  1
  O2-  O226  1  0.58420248  0.95906590  0.40650029  1
  O2-  O227  1  0.58576499  0.95748949  0.72964162  1
  O2-  O228  1  0.20804785  0.32769536  0.06600581  1
  O2-  O229  1  0.20221651  0.33412227  0.39353240  1
  O2-  O230  1  0.21215353  0.33081013  0.73386805  1
  O2-  O231  1  0.21305044  0.83732306  0.07230762  1
  O2-  O232  1  0.20608917  0.83549633  0.39679726  1
  O2-  O233  1  0.20598164  0.84008825  0.72608410  1
  O2-  O234  1  0.70268518  0.33216992  0.06789268  1
  O2-  O235  1  0.70874516  0.33224552  0.40309958  1
  O2-  O236  1  0.70685128  0.33766203  0.72979829  1
  O2-  O237  1  0.70704012  0.82869255  0.06735996  1
  O2-  O238  1  0.70877711  0.83057779  0.40430172  1
  O2-  O239  1  0.69557855  0.82847938  0.72323897  1
  O2-  O240  1  0.46384910  0.41817510  0.26725439  1
  O2-  O241  1  0.45867168  0.41055147  0.60397364  1
  O2-  O242  1  0.46782872  0.41782645  0.93048753  1
  O2-  O243  1  0.45948887  0.91574091  0.27119234  1
  O2-  O244  1  0.45838430  0.92245312  0.59718297  1
  O2-  O245  1  0.45298292  0.91517564  0.93950349  1
  O2-  O246  1  0.94923411  0.41157150  0.27063896  1
  O2-  O247  1  0.94356845  0.41637344  0.60288702  1
  O2-  O248  1  0.94715826  0.42479632  0.93520165  1
  O2-  O249  1  0.95179886  0.91599520  0.26991716  1
  O2-  O250  1  0.96058012  0.91854740  0.59429578  1
  O2-  O251  1  0.96269793  0.91426691  0.93653974  1
  O2-  O252  1  0.33388549  0.28933571  0.26561325  1
  O2-  O253  1  0.33947228  0.29000159  0.60237541  1
  O2-  O254  1  0.33637113  0.29219058  0.92731602  1
  O2-  O255  1  0.33786171  0.79685241  0.27032701  1
  O2-  O256  1  0.33013303  0.79967669  0.59545722  1
  O2-  O257  1  0.33725605  0.79324504  0.94158087  1
  O2-  O258  1  0.83458392  0.28902493  0.27374365  1
  O2-  O259  1  0.83198436  0.28983940  0.60059515  1
  O2-  O260  1  0.82553024  0.29584706  0.93432612  1
  O2-  O261  1  0.83351974  0.79342499  0.27062544  1
  O2-  O262  1  0.82924467  0.79739518  0.59850516  1
  O2-  O263  1  0.83330801  0.78806741  0.93270496  1
  O2-  O264  1  0.41535875  0.04686697  0.06316937  1
  O2-  O265  1  0.41435810  0.04302715  0.40142081  1
  O2-  O266  1  0.41719211  0.04918529  0.72780354  1
  O2-  O267  1  0.41914633  0.53964603  0.06910229  1
  O2-  O268  1  0.41505396  0.53864831  0.40415542  1
  O2-  O269  1  0.41793270  0.54042362  0.73431856  1
  O2-  O270  1  0.91818278  0.03917056  0.07169351  1
  O2-  O271  1  0.91749065  0.04465820  0.39865877  1
  O2-  O272  1  0.92121149  0.04121647  0.73130000  1
  O2-  O273  1  0.92003502  0.55817163  0.05811843  1
  O2-  O274  1  0.91677546  0.54292123  0.39476267  1
  O2-  O275  1  0.91025527  0.54487555  0.73021517  1
  O2-  O276  1  0.29937705  0.16799970  0.05711294  1
  O2-  O277  1  0.28645513  0.16812409  0.40092988  1
  O2-  O278  1  0.29470174  0.16419185  0.72828157  1
  O2-  O279  1  0.29589656  0.66878662  0.07207005  1
  O2-  O280  1  0.29175511  0.66982553  0.40036015  1
  O2-  O281  1  0.29755925  0.67503163  0.73152274  1
  O2-  O282  1  0.79333153  0.16757225  0.07014447  1
  O2-  O283  1  0.79752797  0.16353615  0.40182304  1
  O2-  O284  1  0.78706719  0.16358810  0.73583524  1
  O2-  O285  1  0.78928798  0.66235209  0.06617247  1
  O2-  O286  1  0.79819893  0.66418859  0.39698436  1
  O2-  O287  1  0.79090762  0.66427133  0.72550049  1
