# generated using pymatgen
data_Ca2Al2SiO7
_symmetry_space_group_name_H-M   'P 1'
_cell_length_a   15.46514661
_cell_length_b   15.46280035
_cell_length_c   15.28777506
_cell_angle_alpha   89.99495169
_cell_angle_beta   90.00103630
_cell_angle_gamma   90.02458455
_symmetry_Int_Tables_number   1
_chemical_formula_structural   Ca2Al2SiO7
_chemical_formula_sum   'Ca48 Al48 Si24 O168'
_cell_volume   3655.83370329
_cell_formula_units_Z   24
loop_
 _symmetry_equiv_pos_site_id
 _symmetry_equiv_pos_as_xyz
  1  'x, y, z'
loop_
 _atom_type_symbol
 _atom_type_oxidation_number
  Ca2+  2.0
  Al0+  0.0
  Si0+  0.0
  O2-  -2.0
loop_
 _atom_site_type_symbol
 _atom_site_label
 _atom_site_symmetry_multiplicity
 _atom_site_fract_x
 _atom_site_fract_y
 _atom_site_fract_z
 _atom_site_occupancy
  Ca2+  Ca0  1  0.16459745  0.07765608  0.17618323  1
  Ca2+  Ca1  1  0.16213459  0.07448092  0.49627902  1
  Ca2+  Ca2  1  0.15857697  0.07204284  0.83986538  1
  Ca2+  Ca3  1  0.16827406  0.57004335  0.17763855  1
  Ca2+  Ca4  1  0.17283507  0.59104701  0.50200428  1
  Ca2+  Ca5  1  0.16796083  0.57871386  0.83534236  1
  Ca2+  Ca6  1  0.67003488  0.07389191  0.17782100  1
  Ca2+  Ca7  1  0.67836977  0.08031880  0.49921801  1
  Ca2+  Ca8  1  0.67533659  0.07974958  0.83729365  1
  Ca2+  Ca9  1  0.67121817  0.57995889  0.17407582  1
  Ca2+  Ca10  1  0.66956671  0.58024415  0.49989547  1
  Ca2+  Ca11  1  0.68344271  0.58607305  0.83822525  1
  Ca2+  Ca12  1  0.09184675  0.32243380  0.16456731  1
  Ca2+  Ca13  1  0.07056561  0.33028785  0.48770118  1
  Ca2+  Ca14  1  0.08229717  0.32827548  0.83071235  1
  Ca2+  Ca15  1  0.09265239  0.82843816  0.16633296  1
  Ca2+  Ca16  1  0.09188199  0.82576514  0.49390907  1
  Ca2+  Ca17  1  0.08774183  0.82914475  0.82586740  1
  Ca2+  Ca18  1  0.57677273  0.33599047  0.16497350  1
  Ca2+  Ca19  1  0.58402630  0.33457831  0.49129743  1
  Ca2+  Ca20  1  0.57461541  0.33818372  0.83190491  1
  Ca2+  Ca21  1  0.58212708  0.83639257  0.16663622  1
  Ca2+  Ca22  1  0.57685215  0.82588602  0.48429415  1
  Ca2+  Ca23  1  0.58367100  0.83553467  0.83098539  1
  Ca2+  Ca24  1  0.32433475  0.41646130  0.17438195  1
  Ca2+  Ca25  1  0.32490171  0.42893532  0.49898167  1
  Ca2+  Ca26  1  0.32900710  0.42182502  0.84111895  1
  Ca2+  Ca27  1  0.32532126  0.92175825  0.17766753  1
  Ca2+  Ca28  1  0.32505937  0.91425492  0.49535779  1
  Ca2+  Ca29  1  0.32014128  0.91724405  0.83647855  1
  Ca2+  Ca30  1  0.83036985  0.41838276  0.17410335  1
  Ca2+  Ca31  1  0.83356810  0.41472429  0.50282697  1
  Ca2+  Ca32  1  0.84630411  0.42817312  0.83231817  1
  Ca2+  Ca33  1  0.82311178  0.92195528  0.17451649  1
  Ca2+  Ca34  1  0.83920368  0.93002963  0.49920555  1
  Ca2+  Ca35  1  0.83175769  0.92343393  0.83944934  1
  Ca2+  Ca36  1  0.41049279  0.17177816  0.16164853  1
  Ca2+  Ca37  1  0.41674717  0.16524752  0.49211264  1
  Ca2+  Ca38  1  0.41565107  0.17450111  0.83397651  1
  Ca2+  Ca39  1  0.41813565  0.66748372  0.17303488  1
  Ca2+  Ca40  1  0.41607148  0.66914158  0.48622074  1
  Ca2+  Ca41  1  0.41624118  0.66736329  0.82627883  1
  Ca2+  Ca42  1  0.92448098  0.16808413  0.16889770  1
  Ca2+  Ca43  1  0.91480895  0.17288543  0.49028889  1
  Ca2+  Ca44  1  0.92168445  0.16987330  0.82586678  1
  Ca2+  Ca45  1  0.92136962  0.66421074  0.16556424  1
  Ca2+  Ca46  1  0.92853747  0.66298614  0.49545683  1
  Ca2+  Ca47  1  0.92109615  0.66536565  0.82465673  1
  Al0+  Al48  1  -0.00077063  -0.00145340  0.00051419  1
  Al0+  Al49  1  -0.00110332  0.00013315  0.33672652  1
  Al0+  Al50  1  -0.00107217  -0.00075624  0.67547881  1
  Al0+  Al51  1  0.00283890  0.50013893  0.00829168  1
  Al0+  Al52  1  -0.00236201  0.49963065  0.32740104  1
  Al0+  Al53  1  0.00032545  0.49890693  0.66189009  1
  Al0+  Al54  1  0.50004954  -0.00047868  -0.00131413  1
  Al0+  Al55  1  0.49917822  -0.00081732  0.33665940  1
  Al0+  Al56  1  0.49779142  0.00110958  0.66696585  1
  Al0+  Al57  1  0.50267580  0.50227371  -0.00712702  1
  Al0+  Al58  1  0.50091932  0.50027212  0.33600344  1
  Al0+  Al59  1  0.49865145  0.50062931  0.67000891  1
  Al0+  Al60  1  0.25006138  0.25023816  -0.00980157  1
  Al0+  Al61  1  0.24850672  0.25032980  0.33999166  1
  Al0+  Al62  1  0.25088508  0.24915270  0.66434302  1
  Al0+  Al63  1  0.25230290  0.75007986  0.00122631  1
  Al0+  Al64  1  0.25152684  0.75011116  0.32813525  1
  Al0+  Al65  1  0.25111275  0.75002231  0.67204875  1
  Al0+  Al66  1  0.75084252  0.25241972  -0.00245653  1
  Al0+  Al67  1  0.74836137  0.25105049  0.33451055  1
  Al0+  Al68  1  0.74782833  0.24855979  0.67037338  1
  Al0+  Al69  1  0.75169764  0.75092325  0.00656963  1
  Al0+  Al70  1  0.75002347  0.74785286  0.33275339  1
  Al0+  Al71  1  0.74922678  0.74936127  0.66784395  1
  Al0+  Al72  1  0.32036425  0.57043713  0.68149965  1
  Al0+  Al73  1  0.57245544  0.67692684  0.31729351  1
  Al0+  Al74  1  0.18219293  0.42835934  0.01260278  1
  Al0+  Al75  1  0.43004239  0.32154546  0.98649235  1
  Al0+  Al76  1  0.07090402  0.68092513  0.65451266  1
  Al0+  Al77  1  0.67884505  0.93106616  0.01336686  1
  Al0+  Al78  1  0.17492677  0.42746310  0.34942792  1
  Al0+  Al79  1  0.67767716  0.92576471  0.34921740  1
  Al0+  Al80  1  0.81970066  0.07135671  0.68260888  1
  Al0+  Al81  1  0.17832853  0.92833113  0.01501098  1
  Al0+  Al82  1  0.42965735  0.82243392  0.31631358  1
  Al0+  Al83  1  0.06913278  0.17777502  0.98502950  1
  Al0+  Al84  1  0.31901910  0.56943006  0.34575475  1
  Al0+  Al85  1  0.82001199  0.07083723  0.34681752  1
  Al0+  Al86  1  0.92555730  0.32116366  0.31628055  1
  Al0+  Al87  1  0.67940247  0.43005626  0.34539671  1
  Al0+  Al88  1  0.82133127  0.56979534  0.67810364  1
  Al0+  Al89  1  0.07129195  0.17886450  0.31956672  1
  Al0+  Al90  1  0.07162197  0.68004510  0.31809607  1
  Al0+  Al91  1  0.18091347  0.93062330  0.68066142  1
  Al0+  Al92  1  0.82243980  0.57017289  0.01477629  1
  Al0+  Al93  1  0.32146520  0.07327648  0.34693682  1
  Al0+  Al94  1  0.17811788  0.92797212  0.34738785  1
  Al0+  Al95  1  0.92963339  0.31913270  0.65381814  1
  Si0+  Si96  1  0.67599381  0.92848433  0.68231949  1
  Si0+  Si97  1  0.32412632  0.07393093  0.68624366  1
  Si0+  Si98  1  0.92739038  0.82260420  0.31671790  1
  Si0+  Si99  1  0.82225461  0.07452246  0.01679737  1
  Si0+  Si100  1  0.42970922  0.82024245  0.65285257  1
  Si0+  Si101  1  0.42861158  0.32316006  0.64900750  1
  Si0+  Si102  1  0.57025195  0.17897256  0.31998452  1
  Si0+  Si103  1  0.17808281  0.42693762  0.68272602  1
  Si0+  Si104  1  0.92583575  0.82315380  0.65153465  1
  Si0+  Si105  1  0.57340722  0.17637621  0.98307577  1
  Si0+  Si106  1  0.92848868  0.81862090  0.98540956  1
  Si0+  Si107  1  0.07221088  0.17468428  0.64973779  1
  Si0+  Si108  1  0.07217644  0.67850471  0.98506935  1
  Si0+  Si109  1  0.32571448  0.57243462  0.01662169  1
  Si0+  Si110  1  0.57350580  0.68141870  0.98266308  1
  Si0+  Si111  1  0.57214726  0.67892198  0.65260192  1
  Si0+  Si112  1  0.42897571  0.32067422  0.32139106  1
  Si0+  Si113  1  0.32078487  0.07160188  0.01293796  1
  Si0+  Si114  1  0.67641718  0.42918083  0.01492628  1
  Si0+  Si115  1  0.92765993  0.32415853  0.98283475  1
  Si0+  Si116  1  0.67691361  0.42732886  0.68521508  1
  Si0+  Si117  1  0.56889923  0.17963115  0.65136097  1
  Si0+  Si118  1  0.82308916  0.57227549  0.35064124  1
  Si0+  Si119  1  0.42935986  0.82177014  0.98200163  1
  O2-  O120  1  0.25165695  0.00520207  0.05834274  1
  O2-  O121  1  0.24920729  0.00141113  0.39659915  1
  O2-  O122  1  0.25119361  0.00935978  0.72903971  1
  O2-  O123  1  0.25824857  0.50221198  0.05833822  1
  O2-  O124  1  0.24222630  0.50443839  0.39845200  1
  O2-  O125  1  0.24780473  0.49412410  0.72855743  1
  O2-  O126  1  0.74850714  0.01045639  0.05883835  1
  O2-  O127  1  0.75147380  -0.00421565  0.39825607  1
  O2-  O128  1  0.74694111  -0.00630094  0.72826710  1
  O2-  O129  1  0.74873771  0.49330117  0.05865633  1
  O2-  O130  1  0.75465030  0.50272500  0.39348135  1
  O2-  O131  1  0.74748144  0.49497501  0.72791689  1
  O2-  O132  1  0.00199061  0.25290550  0.26785789  1
  O2-  O133  1  0.00397417  0.24414894  0.60733995  1
  O2-  O134  1  -0.00708071  0.25201762  0.93875407  1
  O2-  O135  1  -0.00251710  0.75580254  0.27118091  1
  O2-  O136  1  -0.00481588  0.75513501  0.60816221  1
  O2-  O137  1  0.00163540  0.74988576  0.94203087  1
  O2-  O138  1  0.49538530  0.24577191  0.27787410  1
  O2-  O139  1  0.49926300  0.25145699  0.60759197  1
  O2-  O140  1  0.50660331  0.24761406  0.93897198  1
  O2-  O141  1  0.50444654  0.75248042  0.26645924  1
  O2-  O142  1  0.50245628  0.75102506  0.61139372  1
  O2-  O143  1  0.50091670  0.75081272  0.93932793  1
  O2-  O144  1  0.07049021  0.17710718  0.09735641  1
  O2-  O145  1  0.06884787  0.17855103  0.43333197  1
  O2-  O146  1  0.07135424  0.17550752  0.75593632  1
  O2-  O147  1  0.07166809  0.67945861  0.08971383  1
  O2-  O148  1  0.07086443  0.68145715  0.43159088  1
  O2-  O149  1  0.06974820  0.68136163  0.76845982  1
  O2-  O150  1  0.57231138  0.17491479  0.08828077  1
  O2-  O151  1  0.57095855  0.18212071  0.42546367  1
  O2-  O152  1  0.56674951  0.17984733  0.75672253  1
  O2-  O153  1  0.57304633  0.67986201  0.08691391  1
  O2-  O154  1  0.56931929  0.67563442  0.43154892  1
  O2-  O155  1  0.57291059  0.68069364  0.75826067  1
  O2-  O156  1  0.18209530  0.42546193  0.23556579  1
  O2-  O157  1  0.17988258  0.42740930  0.57794284  1
  O2-  O158  1  0.18161088  0.43134236  0.89882981  1
  O2-  O159  1  0.18034595  0.92947730  0.23371741  1
  O2-  O160  1  0.18354145  0.92863190  0.56853221  1
  O2-  O161  1  0.18079532  0.92695947  0.90145653  1
  O2-  O162  1  0.67786077  0.43047170  0.23204667  1
  O2-  O163  1  0.67421244  0.42758985  0.57993505  1
  O2-  O164  1  0.67325886  0.43227662  0.90927610  1
  O2-  O165  1  0.67899931  0.93052866  0.23524879  1
  O2-  O166  1  0.67371382  0.93042833  0.57771755  1
  O2-  O167  1  0.68143978  0.93086576  0.89950701  1
  O2-  O168  1  0.43113226  0.32077571  0.09949923  1
  O2-  O169  1  0.43286811  0.32110147  0.42670918  1
  O2-  O170  1  0.43001936  0.32288889  0.75444655  1
  O2-  O171  1  0.42897892  0.82354773  0.08594165  1
  O2-  O172  1  0.42956946  0.81985506  0.43066286  1
  O2-  O173  1  0.43164205  0.81950662  0.75868630  1
  O2-  O174  1  0.92489354  0.32318174  0.08756313  1
  O2-  O175  1  0.92343354  0.31757037  0.43024831  1
  O2-  O176  1  0.93352340  0.31958894  0.76754269  1
  O2-  O177  1  0.92665059  0.81730658  0.09000746  1
  O2-  O178  1  0.92671060  0.82083694  0.42248489  1
  O2-  O179  1  0.92463453  0.82157168  0.75772418  1
  O2-  O180  1  0.32175548  0.07462914  0.23291677  1
  O2-  O181  1  0.32968315  0.07301357  0.58163765  1
  O2-  O182  1  0.32170340  0.06876609  0.90697470  1
  O2-  O183  1  0.32124774  0.56459175  0.23201753  1
  O2-  O184  1  0.32223954  0.57132028  0.56930504  1
  O2-  O185  1  0.32435650  0.57278843  0.91039197  1
  O2-  O186  1  0.81689247  0.07083639  0.23300471  1
  O2-  O187  1  0.81813876  0.07214351  0.57033088  1
  O2-  O188  1  0.82161886  0.07213311  0.91067737  1
  O2-  O189  1  0.82115218  0.57243312  0.24474671  1
  O2-  O190  1  0.81869881  0.57035513  0.56601564  1
  O2-  O191  1  0.82238999  0.57068596  0.90098624  1
  O2-  O192  1  0.04127933  0.08003517  0.26750407  1
  O2-  O193  1  0.04517428  0.08008142  0.60779054  1
  O2-  O194  1  0.03696789  0.08064427  0.93077728  1
  O2-  O195  1  0.03954698  0.58433119  0.26294314  1
  O2-  O196  1  0.04181984  0.58473631  0.60004523  1
  O2-  O197  1  0.04363000  0.58600429  0.93931050  1
  O2-  O198  1  0.54690124  0.08593224  0.27400975  1
  O2-  O199  1  0.54001118  0.08791967  0.60435875  1
  O2-  O200  1  0.54517628  0.08441647  0.93364112  1
  O2-  O201  1  0.53911306  0.57975841  0.26349146  1
  O2-  O202  1  0.54422263  0.58595956  0.60828417  1
  O2-  O203  1  0.54857254  0.59000273  0.93218024  1
  O2-  O204  1  0.17130967  0.20682968  0.26832901  1
  O2-  O205  1  0.16793413  0.19673277  0.60657313  1
  O2-  O206  1  0.16456851  0.20791420  0.92729091  1
  O2-  O207  1  0.16719912  0.70895099  0.26172451  1
  O2-  O208  1  0.16811984  0.71397068  0.60327494  1
  O2-  O209  1  0.16524002  0.70556852  0.93843927  1
  O2-  O210  1  0.65872242  0.21127835  0.26979965  1
  O2-  O211  1  0.66103238  0.20636681  0.60500812  1
  O2-  O212  1  0.66780989  0.20051321  0.93649311  1
  O2-  O213  1  0.67244100  0.70032483  0.26508477  1
  O2-  O214  1  0.66400047  0.70433729  0.60440939  1
  O2-  O215  1  0.66515478  0.71316799  0.93605113  1
  O2-  O216  1  0.08778173  0.45843537  0.06926005  1
  O2-  O217  1  0.07356836  0.45146432  0.39606434  1
  O2-  O218  1  0.08517851  0.45449687  0.72855034  1
  O2-  O219  1  0.08002040  0.95462085  0.06614106  1
  O2-  O220  1  0.07966910  0.95266736  0.40121353  1
  O2-  O221  1  0.08353149  0.95540656  0.73720433  1
  O2-  O222  1  0.58415828  0.45893401  0.06116278  1
  O2-  O223  1  0.58481885  0.46107509  0.40318228  1
  O2-  O224  1  0.58412510  0.45567497  0.73213785  1
  O2-  O225  1  0.58030095  0.95750474  0.06511211  1
  O2-  O226  1  0.58070975  0.95556337  0.40240271  1
  O2-  O227  1  0.58329649  0.95759046  0.73016759  1
  O2-  O228  1  0.21442194  0.33056316  0.06238840  1
  O2-  O229  1  0.20688550  0.33271733  0.40588675  1
  O2-  O230  1  0.20392236  0.33213297  0.72775022  1
  O2-  O231  1  0.21198984  0.83186703  0.06661672  1
  O2-  O232  1  0.21112671  0.83054310  0.39870883  1
  O2-  O233  1  0.21658275  0.83671516  0.73788520  1
  O2-  O234  1  0.69575140  0.33272028  0.05772745  1
  O2-  O235  1  0.70688764  0.33389824  0.40153725  1
  O2-  O236  1  0.69837513  0.33333518  0.73183966  1
  O2-  O237  1  0.71229758  0.83677560  0.06821457  1
  O2-  O238  1  0.70222961  0.82558612  0.39918895  1
  O2-  O239  1  0.69819646  0.83353955  0.72775878  1
  O2-  O240  1  0.46201703  0.40961809  0.27254246  1
  O2-  O241  1  0.45781962  0.41524758  0.60335491  1
  O2-  O242  1  0.46184218  0.41750030  0.92887560  1
  O2-  O243  1  0.45658558  0.92212063  0.26439899  1
  O2-  O244  1  0.45375682  0.91379675  0.60753282  1
  O2-  O245  1  0.45710450  0.91334769  0.93249939  1
  O2-  O246  1  0.94622087  0.42122396  0.26448589  1
  O2-  O247  1  0.95827816  0.41498100  0.59808207  1
  O2-  O248  1  0.96015811  0.41726328  0.93867728  1
  O2-  O249  1  0.94918234  0.91723070  0.27167777  1
  O2-  O250  1  0.95194208  0.91779982  0.60864364  1
  O2-  O251  1  0.95353327  0.91134841  0.93780945  1
  O2-  O252  1  0.33611672  0.29573183  0.27568925  1
  O2-  O253  1  0.33635919  0.29622252  0.60260385  1
  O2-  O254  1  0.33696963  0.28969599  0.92566934  1
  O2-  O255  1  0.33381782  0.79138598  0.26021778  1
  O2-  O256  1  0.33900179  0.78940770  0.60715919  1
  O2-  O257  1  0.33811074  0.79123767  0.93332207  1
  O2-  O258  1  0.82779705  0.28918109  0.26285226  1
  O2-  O259  1  0.82984008  0.29051556  0.60509960  1
  O2-  O260  1  0.83198351  0.30546253  0.93588319  1
  O2-  O261  1  0.83468408  0.79459412  0.26948378  1
  O2-  O262  1  0.83184428  0.79892069  0.60595222  1
  O2-  O263  1  0.83731538  0.78917718  0.93656358  1
  O2-  O264  1  0.41497482  0.04717757  0.05773823  1
  O2-  O265  1  0.41900195  0.04529213  0.40197284  1
  O2-  O266  1  0.41581047  0.04419278  0.73537868  1
  O2-  O267  1  0.42125710  0.54874845  0.05803038  1
  O2-  O268  1  0.41521884  0.53689797  0.40049637  1
  O2-  O269  1  0.41724018  0.54073910  0.73743312  1
  O2-  O270  1  0.91307851  0.04256134  0.06267405  1
  O2-  O271  1  0.91719467  0.04418350  0.40251834  1
  O2-  O272  1  0.91513865  0.04183133  0.73970428  1
  O2-  O273  1  0.91826153  0.54263477  0.07008652  1
  O2-  O274  1  0.91651041  0.54687112  0.39557817  1
  O2-  O275  1  0.91816477  0.53822798  0.73271883  1
  O2-  O276  1  0.29815366  0.16709523  0.05441371  1
  O2-  O277  1  0.29586183  0.16994416  0.40434456  1
  O2-  O278  1  0.30242523  0.16994451  0.72994820  1
  O2-  O279  1  0.30038752  0.66598439  0.06120110  1
  O2-  O280  1  0.29529705  0.66956222  0.39588016  1
  O2-  O281  1  0.28975859  0.66545224  0.73876082  1
  O2-  O282  1  0.80217774  0.17088971  0.05855828  1
  O2-  O283  1  0.78498224  0.16641286  0.40066139  1
  O2-  O284  1  0.78446092  0.16550483  0.73964485  1
  O2-  O285  1  0.78946430  0.66495233  0.06925348  1
  O2-  O286  1  0.79828897  0.66534136  0.39714768  1
  O2-  O287  1  0.79015739  0.66654472  0.73418183  1
