# generated using pymatgen
data_Ca2Al2SiO7
_symmetry_space_group_name_H-M   'P 1'
_cell_length_a   15.45571700
_cell_length_b   15.45553677
_cell_length_c   15.28151454
_cell_angle_alpha   90.00465961
_cell_angle_beta   89.99743574
_cell_angle_gamma   90.00865406
_symmetry_Int_Tables_number   1
_chemical_formula_structural   Ca2Al2SiO7
_chemical_formula_sum   'Ca48 Al48 Si24 O168'
_cell_volume   3650.39315868
_cell_formula_units_Z   24
loop_
 _symmetry_equiv_pos_site_id
 _symmetry_equiv_pos_as_xyz
  1  'x, y, z'
loop_
 _atom_type_symbol
 _atom_type_oxidation_number
  Ca2+  2.0
  Al0+  0.0
  Si0+  0.0
  O2-  -2.0
loop_
 _atom_site_type_symbol
 _atom_site_label
 _atom_site_symmetry_multiplicity
 _atom_site_fract_x
 _atom_site_fract_y
 _atom_site_fract_z
 _atom_site_occupancy
  Ca2+  Ca0  1  0.16689705  0.07900698  0.17520505  1
  Ca2+  Ca1  1  0.17001098  0.08763546  0.50085556  1
  Ca2+  Ca2  1  0.16085280  0.06970214  0.83674524  1
  Ca2+  Ca3  1  0.16152892  0.57398638  0.17321133  1
  Ca2+  Ca4  1  0.16684186  0.58182395  0.49272185  1
  Ca2+  Ca5  1  0.16554942  0.57798080  0.84298276  1
  Ca2+  Ca6  1  0.67552390  0.08778914  0.17103583  1
  Ca2+  Ca7  1  0.67798712  0.08128221  0.49925633  1
  Ca2+  Ca8  1  0.67842210  0.09027774  0.83890383  1
  Ca2+  Ca9  1  0.67425529  0.57895779  0.16669425  1
  Ca2+  Ca10  1  0.66777404  0.57559436  0.50553721  1
  Ca2+  Ca11  1  0.67534341  0.57016155  0.84041109  1
  Ca2+  Ca12  1  0.07794989  0.33276164  0.16414314  1
  Ca2+  Ca13  1  0.07228438  0.32882567  0.48680080  1
  Ca2+  Ca14  1  0.06996574  0.33837294  0.83197242  1
  Ca2+  Ca15  1  0.09102364  0.82081749  0.16124537  1
  Ca2+  Ca16  1  0.08310186  0.83178820  0.49765288  1
  Ca2+  Ca17  1  0.08256285  0.83105452  0.82905892  1
  Ca2+  Ca18  1  0.57808248  0.33036047  0.15990867  1
  Ca2+  Ca19  1  0.57424794  0.33678599  0.49725579  1
  Ca2+  Ca20  1  0.58741594  0.33202659  0.82912796  1
  Ca2+  Ca21  1  0.57717168  0.84399234  0.16776266  1
  Ca2+  Ca22  1  0.57882282  0.83521293  0.48846368  1
  Ca2+  Ca23  1  0.58360227  0.82924371  0.83001095  1
  Ca2+  Ca24  1  0.32017131  0.41779877  0.17849689  1
  Ca2+  Ca25  1  0.33027052  0.41345549  0.49994202  1
  Ca2+  Ca26  1  0.32690803  0.41426304  0.83792757  1
  Ca2+  Ca27  1  0.33058251  0.92217568  0.17437553  1
  Ca2+  Ca28  1  0.32998222  0.92226848  0.49987483  1
  Ca2+  Ca29  1  0.31982803  0.91530722  0.83867277  1
  Ca2+  Ca30  1  0.83536932  0.41304898  0.16575171  1
  Ca2+  Ca31  1  0.83128235  0.41081830  0.50513183  1
  Ca2+  Ca32  1  0.82759146  0.41259810  0.84261028  1
  Ca2+  Ca33  1  0.82848676  0.93125881  0.17496405  1
  Ca2+  Ca34  1  0.84061768  0.92854755  0.50448853  1
  Ca2+  Ca35  1  0.84292193  0.92916059  0.83641927  1
  Ca2+  Ca36  1  0.42021867  0.16763367  0.16445989  1
  Ca2+  Ca37  1  0.41352746  0.17676439  0.49017886  1
  Ca2+  Ca38  1  0.42668125  0.17363618  0.82886282  1
  Ca2+  Ca39  1  0.41015628  0.67049710  0.16922085  1
  Ca2+  Ca40  1  0.41565473  0.67182317  0.48886557  1
  Ca2+  Ca41  1  0.41895756  0.66548178  0.83069286  1
  Ca2+  Ca42  1  0.91337734  0.17326888  0.16522974  1
  Ca2+  Ca43  1  0.91669481  0.17245276  0.49377021  1
  Ca2+  Ca44  1  0.90903038  0.17493066  0.83015753  1
  Ca2+  Ca45  1  0.92747458  0.66259128  0.16014705  1
  Ca2+  Ca46  1  0.92203127  0.67530562  0.49298187  1
  Ca2+  Ca47  1  0.91952735  0.66892663  0.83231441  1
  Al0+  Al48  1  0.00044777  -0.00105703  0.01148081  1
  Al0+  Al49  1  -0.00093214  0.00012337  0.33405153  1
  Al0+  Al50  1  0.00169480  -0.00106279  0.67113197  1
  Al0+  Al51  1  0.00096260  0.50047690  -0.00281893  1
  Al0+  Al52  1  -0.00167091  0.50102675  0.33221366  1
  Al0+  Al53  1  0.00138216  0.50099061  0.66132810  1
  Al0+  Al54  1  0.49932039  0.00125770  -0.00983545  1
  Al0+  Al55  1  0.49885567  -0.00010712  0.33737168  1
  Al0+  Al56  1  0.50146705  0.00000956  0.66695838  1
  Al0+  Al57  1  0.49970440  0.50209557  0.00249646  1
  Al0+  Al58  1  0.49952983  0.50149642  0.33087719  1
  Al0+  Al59  1  0.50059500  0.49973621  0.66784493  1
  Al0+  Al60  1  0.24971611  0.24846074  0.00088041  1
  Al0+  Al61  1  0.24743723  0.24939291  0.33345019  1
  Al0+  Al62  1  0.25184353  0.25077470  0.66722499  1
  Al0+  Al63  1  0.24936048  0.75018401  -0.00237777  1
  Al0+  Al64  1  0.25132595  0.74873930  0.32884554  1
  Al0+  Al65  1  0.25186997  0.74925667  0.67045116  1
  Al0+  Al66  1  0.74816966  0.24940441  0.00080968  1
  Al0+  Al67  1  0.74899683  0.25007218  0.33517915  1
  Al0+  Al68  1  0.74911778  0.24900728  0.66828638  1
  Al0+  Al69  1  0.74883194  0.75029787  0.00220612  1
  Al0+  Al70  1  0.74860025  0.74839517  0.33566233  1
  Al0+  Al71  1  0.75139627  0.74986689  0.66177067  1
  Al0+  Al72  1  0.42951374  0.32089906  0.65287953  1
  Al0+  Al73  1  0.82004249  0.07091933  0.01463935  1
  Al0+  Al74  1  0.92636155  0.32098325  0.31706452  1
  Al0+  Al75  1  0.17645642  0.42847831  0.35004464  1
  Al0+  Al76  1  0.93085896  0.82158442  0.65379458  1
  Al0+  Al77  1  0.07094758  0.17707205  0.31847689  1
  Al0+  Al78  1  0.82210547  0.07207288  0.35076828  1
  Al0+  Al79  1  0.68012500  0.43076981  0.67956640  1
  Al0+  Al80  1  0.67821395  0.42785838  0.01679996  1
  Al0+  Al81  1  0.67882497  0.92834898  0.34796592  1
  Al0+  Al82  1  0.17953762  0.42818420  0.01211697  1
  Al0+  Al83  1  0.81996238  0.06901442  0.68198753  1
  Al0+  Al84  1  0.92848628  0.32077300  0.65344908  1
  Al0+  Al85  1  0.82179469  0.57191564  0.01437678  1
  Al0+  Al86  1  0.06944800  0.68215565  0.31940923  1
  Al0+  Al87  1  0.17964225  0.92843632  0.01587488  1
  Al0+  Al88  1  0.18214490  0.92932347  0.67997657  1
  Al0+  Al89  1  0.32102028  0.57059875  0.34814471  1
  Al0+  Al90  1  0.56993686  0.18046340  0.98591314  1
  Al0+  Al91  1  0.43085399  0.82145602  0.31991217  1
  Al0+  Al92  1  0.31987106  0.07158382  0.34612026  1
  Al0+  Al93  1  0.93130188  0.31823782  0.98603552  1
  Al0+  Al94  1  0.42806860  0.32282429  0.31892918  1
  Al0+  Al95  1  0.07044844  0.67958003  0.98463933  1
  Si0+  Si96  1  0.57256315  0.67788779  0.98358286  1
  Si0+  Si97  1  0.42638452  0.32404461  0.98409929  1
  Si0+  Si98  1  0.32089166  0.57039723  0.68214164  1
  Si0+  Si99  1  0.32459931  0.07436316  0.68502711  1
  Si0+  Si100  1  0.92691615  0.82324555  0.98593866  1
  Si0+  Si101  1  0.82424401  0.57385017  0.68150075  1
  Si0+  Si102  1  0.57038536  0.67926994  0.65228708  1
  Si0+  Si103  1  0.82154958  0.57120202  0.34991958  1
  Si0+  Si104  1  0.67501810  0.92739610  0.01389377  1
  Si0+  Si105  1  0.07527454  0.67790569  0.64852003  1
  Si0+  Si106  1  0.56975520  0.17910670  0.31821822  1
  Si0+  Si107  1  0.42901447  0.82031995  0.65244988  1
  Si0+  Si108  1  0.42958212  0.82046658  0.98248421  1
  Si0+  Si109  1  0.92518962  0.82262743  0.31594901  1
  Si0+  Si110  1  0.57253196  0.17719055  0.64748626  1
  Si0+  Si111  1  0.67657129  0.92525338  0.68415780  1
  Si0+  Si112  1  0.32257145  0.57272805  0.01625203  1
  Si0+  Si113  1  0.07392500  0.17433475  0.98324457  1
  Si0+  Si114  1  0.17801846  0.42836948  0.68126307  1
  Si0+  Si115  1  0.57392450  0.67681572  0.31461986  1
  Si0+  Si116  1  0.32348742  0.07003381  0.01465760  1
  Si0+  Si117  1  0.17860848  0.92608665  0.34901735  1
  Si0+  Si118  1  0.67814862  0.42978379  0.34831674  1
  Si0+  Si119  1  0.07225865  0.17765443  0.65315803  1
  O2-  O120  1  0.25225745  0.00555091  0.06044233  1
  O2-  O121  1  0.24241773  -0.00069254  0.39333133  1
  O2-  O122  1  0.25643686  0.00458357  0.72816236  1
  O2-  O123  1  0.25739560  0.50037445  0.05774805  1
  O2-  O124  1  0.25214242  0.49734633  0.40071913  1
  O2-  O125  1  0.24894969  0.50023383  0.72354745  1
  O2-  O126  1  0.74496044  -0.00588183  0.05744284  1
  O2-  O127  1  0.75409401  -0.00485710  0.39974444  1
  O2-  O128  1  0.74532804  -0.00707272  0.72877114  1
  O2-  O129  1  0.75177866  0.49862603  0.06609412  1
  O2-  O130  1  0.75086094  0.49915371  0.39104341  1
  O2-  O131  1  0.75974975  0.50113626  0.72517552  1
  O2-  O132  1  -0.00103465  0.24891117  0.26839570  1
  O2-  O133  1  0.00538585  0.24770687  0.60877136  1
  O2-  O134  1  0.00592694  0.24311026  0.93792990  1
  O2-  O135  1  -0.00411004  0.75709450  0.27090537  1
  O2-  O136  1  0.00430687  0.74550152  0.60680291  1
  O2-  O137  1  -0.00514756  0.75447521  0.93976668  1
  O2-  O138  1  0.50158037  0.24737617  0.27245903  1
  O2-  O139  1  0.50040084  0.24311632  0.60494031  1
  O2-  O140  1  0.49736743  0.25806713  0.93936879  1
  O2-  O141  1  0.50709413  0.74847326  0.27192801  1
  O2-  O142  1  0.50408723  0.75436101  0.60988161  1
  O2-  O143  1  0.50118685  0.74919537  0.94097977  1
  O2-  O144  1  0.07537014  0.17501957  0.08823155  1
  O2-  O145  1  0.07023287  0.17833428  0.43284687  1
  O2-  O146  1  0.07221252  0.17797189  0.75897982  1
  O2-  O147  1  0.07236628  0.68107717  0.09734543  1
  O2-  O148  1  0.06804266  0.68443002  0.43311637  1
  O2-  O149  1  0.07688053  0.67699191  0.75406547  1
  O2-  O150  1  0.56599677  0.17754886  0.09881179  1
  O2-  O151  1  0.56934844  0.18119603  0.42402538  1
  O2-  O152  1  0.57202270  0.17799748  0.75335484  1
  O2-  O153  1  0.57275958  0.67751807  0.08805966  1
  O2-  O154  1  0.57310528  0.67543182  0.42075685  1
  O2-  O155  1  0.56787890  0.67944299  0.75766708  1
  O2-  O156  1  0.17618841  0.43110964  0.23644689  1
  O2-  O157  1  0.17826509  0.42810735  0.57685245  1
  O2-  O158  1  0.18120588  0.43071998  0.89784729  1
  O2-  O159  1  0.18301050  0.92515622  0.24343407  1
  O2-  O160  1  0.18564109  0.92707455  0.56725145  1
  O2-  O161  1  0.18129628  0.92768194  0.90219971  1
  O2-  O162  1  0.67706748  0.43110203  0.24360131  1
  O2-  O163  1  0.67718059  0.43467041  0.56624076  1
  O2-  O164  1  0.67816375  0.43036865  0.90274867  1
  O2-  O165  1  0.67865486  0.93142278  0.23395771  1
  O2-  O166  1  0.67359079  0.92532900  0.57918388  1
  O2-  O167  1  0.67448039  0.92599952  0.90812530  1
  O2-  O168  1  0.42597083  0.32217529  0.08933525  1
  O2-  O169  1  0.43216154  0.32252600  0.43246573  1
  O2-  O170  1  0.42951936  0.32070677  0.76618838  1
  O2-  O171  1  0.43023717  0.82231416  0.08718860  1
  O2-  O172  1  0.43110948  0.81939171  0.43363064  1
  O2-  O173  1  0.42873330  0.81687984  0.75792002  1
  O2-  O174  1  0.93186131  0.31764523  0.09836885  1
  O2-  O175  1  0.92554637  0.31997779  0.43126699  1
  O2-  O176  1  0.92902293  0.32153899  0.76664403  1
  O2-  O177  1  0.92677460  0.82179327  0.09115240  1
  O2-  O178  1  0.92617837  0.81980507  0.42205419  1
  O2-  O179  1  0.93214206  0.82053847  0.76704935  1
  O2-  O180  1  0.32318321  0.06743200  0.23298189  1
  O2-  O181  1  0.32454156  0.07441274  0.57961016  1
  O2-  O182  1  0.32429548  0.06653589  0.90878445  1
  O2-  O183  1  0.31915631  0.57081913  0.23472225  1
  O2-  O184  1  0.32216713  0.57386117  0.57781941  1
  O2-  O185  1  0.32320935  0.57346280  0.90969258  1
  O2-  O186  1  0.81799563  0.07359478  0.23730908  1
  O2-  O187  1  0.81919678  0.06883030  0.56951543  1
  O2-  O188  1  0.82000191  0.06988894  0.90107322  1
  O2-  O189  1  0.82058538  0.57376592  0.24517185  1
  O2-  O190  1  0.82093945  0.57600938  0.57578372  1
  O2-  O191  1  0.81847972  0.57366417  0.90030591  1
  O2-  O192  1  0.04567319  0.07701670  0.26638105  1
  O2-  O193  1  0.04758359  0.08396694  0.60785538  1
  O2-  O194  1  0.04650178  0.07918285  0.94060850  1
  O2-  O195  1  0.03634780  0.58621477  0.26659678  1
  O2-  O196  1  0.05160101  0.58473590  0.60096993  1
  O2-  O197  1  0.03997586  0.58446953  0.92773765  1
  O2-  O198  1  0.54350291  0.08555161  0.27345554  1
  O2-  O199  1  0.55057868  0.08140872  0.60373818  1
  O2-  O200  1  0.53856846  0.08584594  0.92595365  1
  O2-  O201  1  0.54558611  0.58555097  0.26615655  1
  O2-  O202  1  0.53792725  0.58966669  0.60400185  1
  O2-  O203  1  0.54254292  0.58702632  0.93411814  1
  O2-  O204  1  0.16952701  0.20268258  0.26500723  1
  O2-  O205  1  0.16734263  0.20128318  0.60887567  1
  O2-  O206  1  0.16867420  0.19684955  0.93659796  1
  O2-  O207  1  0.16583501  0.71061034  0.26437173  1
  O2-  O208  1  0.16874261  0.70693365  0.60379738  1
  O2-  O209  1  0.16721973  0.71111185  0.92935496  1
  O2-  O210  1  0.66271501  0.20629487  0.27247352  1
  O2-  O211  1  0.66422999  0.20654864  0.60101754  1
  O2-  O212  1  0.66551643  0.21105261  0.93013950  1
  O2-  O213  1  0.66838272  0.69963534  0.26909656  1
  O2-  O214  1  0.66336720  0.70093886  0.60438078  1
  O2-  O215  1  0.66330627  0.70693812  0.93393275  1
  O2-  O216  1  0.08479276  0.46259480  0.06497766  1
  O2-  O217  1  0.07933765  0.46287003  0.40315561  1
  O2-  O218  1  0.08601362  0.45794525  0.72806294  1
  O2-  O219  1  0.08409825  0.95344399  0.07289445  1
  O2-  O220  1  0.08259355  0.94514399  0.39220983  1
  O2-  O221  1  0.08681285  0.95921772  0.73683368  1
  O2-  O222  1  0.57962472  0.45878705  0.06833339  1
  O2-  O223  1  0.58758610  0.46155750  0.39620779  1
  O2-  O224  1  0.58535759  0.46616161  0.73531789  1
  O2-  O225  1  0.58068332  0.95567407  0.05700991  1
  O2-  O226  1  0.58197962  0.95878760  0.40303891  1
  O2-  O227  1  0.58199142  0.94924725  0.73089941  1
  O2-  O228  1  0.20632739  0.33011667  0.06509997  1
  O2-  O229  1  0.20235814  0.32948612  0.40183804  1
  O2-  O230  1  0.20657960  0.33724001  0.72993569  1
  O2-  O231  1  0.21584703  0.83269904  0.06753603  1
  O2-  O232  1  0.21044279  0.83493591  0.39567269  1
  O2-  O233  1  0.21510911  0.83342008  0.73622596  1
  O2-  O234  1  0.70357513  0.32944770  0.06883820  1
  O2-  O235  1  0.70299553  0.33789882  0.39657824  1
  O2-  O236  1  0.70607850  0.33286092  0.73227422  1
  O2-  O237  1  0.69518879  0.83320577  0.06067265  1
  O2-  O238  1  0.69903691  0.82664117  0.39904165  1
  O2-  O239  1  0.70091563  0.82985228  0.72796502  1
  O2-  O240  1  0.45925453  0.41886847  0.26461623  1
  O2-  O241  1  0.46245673  0.41750730  0.59998466  1
  O2-  O242  1  0.44832392  0.41993986  0.94011123  1
  O2-  O243  1  0.46188030  0.91787268  0.26510004  1
  O2-  O244  1  0.45143236  0.91470576  0.60767176  1
  O2-  O245  1  0.45634324  0.91055680  0.93080528  1
  O2-  O246  1  0.95287106  0.42058128  0.26689508  1
  O2-  O247  1  0.95588643  0.41870210  0.59950870  1
  O2-  O248  1  0.96188745  0.41479927  0.93101912  1
  O2-  O249  1  0.94636636  0.91782869  0.27281335  1
  O2-  O250  1  0.96542126  0.91698776  0.59974992  1
  O2-  O251  1  0.95624559  0.91698741  0.94163632  1
  O2-  O252  1  0.33098940  0.29271249  0.26763356  1
  O2-  O253  1  0.33170141  0.29298151  0.59936819  1
  O2-  O254  1  0.33384056  0.29531574  0.93613633  1
  O2-  O255  1  0.33641539  0.78895434  0.26321531  1
  O2-  O256  1  0.33908772  0.78765931  0.60509475  1
  O2-  O257  1  0.33923478  0.78947383  0.93355310  1
  O2-  O258  1  0.82707908  0.29272017  0.26564646  1
  O2-  O259  1  0.83163185  0.28910346  0.60089771  1
  O2-  O260  1  0.83348930  0.28747117  0.93392222  1
  O2-  O261  1  0.83155260  0.79470096  0.27165500  1
  O2-  O262  1  0.83381836  0.79366342  0.59801936  1
  O2-  O263  1  0.83225391  0.79996537  0.93959204  1
  O2-  O264  1  0.41615365  0.03931795  0.05950243  1
  O2-  O265  1  0.41393172  0.03827797  0.40359329  1
  O2-  O266  1  0.41902393  0.04834596  0.73008817  1
  O2-  O267  1  0.41755311  0.55450609  0.06180930  1
  O2-  O268  1  0.42172497  0.54714309  0.39976034  1
  O2-  O269  1  0.41205461  0.54191662  0.73116292  1
  O2-  O270  1  0.91505245  0.04195894  0.07150332  1
  O2-  O271  1  0.92133951  0.04494554  0.40354530  1
  O2-  O272  1  0.91649131  0.03846305  0.73627721  1
  O2-  O273  1  0.92060346  0.54470583  0.06490513  1
  O2-  O274  1  0.91234670  0.54501816  0.39917136  1
  O2-  O275  1  0.92065196  0.55360189  0.72399471  1
  O2-  O276  1  0.30385663  0.16547883  0.05848378  1
  O2-  O277  1  0.29060560  0.16730408  0.40227031  1
  O2-  O278  1  0.29961778  0.16775769  0.73212158  1
  O2-  O279  1  0.29465632  0.66596344  0.06055134  1
  O2-  O280  1  0.29015725  0.66909261  0.40103355  1
  O2-  O281  1  0.29452607  0.66150542  0.73280080  1
  O2-  O282  1  0.78481503  0.16507142  0.06853981  1
  O2-  O283  1  0.78772753  0.16882116  0.40431170  1
  O2-  O284  1  0.78604300  0.16468925  0.73597159  1
  O2-  O285  1  0.79086196  0.66960958  0.06850589  1
  O2-  O286  1  0.79235550  0.66216258  0.39932284  1
  O2-  O287  1  0.79445939  0.66621085  0.72829203  1
