# generated using pymatgen
data_Ca2Al2SiO7
_symmetry_space_group_name_H-M   'P 1'
_cell_length_a   15.46742917
_cell_length_b   15.47003234
_cell_length_c   15.29302233
_cell_angle_alpha   89.98757131
_cell_angle_beta   89.98964630
_cell_angle_gamma   89.98442388
_symmetry_Int_Tables_number   1
_chemical_formula_structural   Ca2Al2SiO7
_chemical_formula_sum   'Ca48 Al48 Si24 O168'
_cell_volume   3659.33902268
_cell_formula_units_Z   24
loop_
 _symmetry_equiv_pos_site_id
 _symmetry_equiv_pos_as_xyz
  1  'x, y, z'
loop_
 _atom_type_symbol
 _atom_type_oxidation_number
  Ca2+  2.0
  Al0+  0.0
  Si0+  0.0
  O2-  -2.0
loop_
 _atom_site_type_symbol
 _atom_site_label
 _atom_site_symmetry_multiplicity
 _atom_site_fract_x
 _atom_site_fract_y
 _atom_site_fract_z
 _atom_site_occupancy
  Ca2+  Ca0  1  0.15312626  0.07708656  0.16893742  1
  Ca2+  Ca1  1  0.16452576  0.08390216  0.50214104  1
  Ca2+  Ca2  1  0.16203044  0.07336971  0.84373938  1
  Ca2+  Ca3  1  0.17434881  0.58736955  0.17388320  1
  Ca2+  Ca4  1  0.16710203  0.58862935  0.49879424  1
  Ca2+  Ca5  1  0.16974078  0.59386122  0.84089605  1
  Ca2+  Ca6  1  0.67334906  0.07941144  0.16647828  1
  Ca2+  Ca7  1  0.66613920  0.07838164  0.50500112  1
  Ca2+  Ca8  1  0.67512133  0.07705815  0.84189712  1
  Ca2+  Ca9  1  0.68039630  0.58498762  0.17489635  1
  Ca2+  Ca10  1  0.67223896  0.58065866  0.50385977  1
  Ca2+  Ca11  1  0.67917720  0.58856315  0.83252690  1
  Ca2+  Ca12  1  0.08573526  0.32504005  0.16130267  1
  Ca2+  Ca13  1  0.07854683  0.33376284  0.49201375  1
  Ca2+  Ca14  1  0.06621758  0.33586060  0.83271101  1
  Ca2+  Ca15  1  0.08224526  0.82189373  0.15912082  1
  Ca2+  Ca16  1  0.07818278  0.81908087  0.50098099  1
  Ca2+  Ca17  1  0.07673749  0.82448903  0.83531491  1
  Ca2+  Ca18  1  0.57793563  0.34763289  0.16893208  1
  Ca2+  Ca19  1  0.58098194  0.34509306  0.49213845  1
  Ca2+  Ca20  1  0.58729590  0.33488129  0.82760116  1
  Ca2+  Ca21  1  0.57536482  0.82575164  0.16385853  1
  Ca2+  Ca22  1  0.58307203  0.81643392  0.49900028  1
  Ca2+  Ca23  1  0.57194056  0.82733242  0.82664007  1
  Ca2+  Ca24  1  0.32709715  0.42612149  0.17604151  1
  Ca2+  Ca25  1  0.32838728  0.41850207  0.49478023  1
  Ca2+  Ca26  1  0.32729316  0.42723927  0.84049960  1
  Ca2+  Ca27  1  0.32779754  0.91280792  0.16537127  1
  Ca2+  Ca28  1  0.33449049  0.91600745  0.50636610  1
  Ca2+  Ca29  1  0.32825656  0.90920677  0.84338033  1
  Ca2+  Ca30  1  0.83445328  0.42714497  0.17073857  1
  Ca2+  Ca31  1  0.82819079  0.42823775  0.50719191  1
  Ca2+  Ca32  1  0.83581854  0.42489010  0.83557995  1
  Ca2+  Ca33  1  0.84943402  0.92393067  0.16472819  1
  Ca2+  Ca34  1  0.83784388  0.91719148  0.50565205  1
  Ca2+  Ca35  1  0.84405364  0.91907760  0.84262043  1
  Ca2+  Ca36  1  0.41754160  0.17573216  0.16649571  1
  Ca2+  Ca37  1  0.41970562  0.17697582  0.49172816  1
  Ca2+  Ca38  1  0.41939418  0.16830707  0.83047590  1
  Ca2+  Ca39  1  0.42077567  0.65863206  0.16196949  1
  Ca2+  Ca40  1  0.42895042  0.65852142  0.49554100  1
  Ca2+  Ca41  1  0.41817243  0.67416207  0.82845006  1
  Ca2+  Ca42  1  0.92380889  0.17492754  0.15657859  1
  Ca2+  Ca43  1  0.92014218  0.17717753  0.49630626  1
  Ca2+  Ca44  1  0.91372026  0.17605045  0.83569632  1
  Ca2+  Ca45  1  0.92595231  0.66190624  0.15850736  1
  Ca2+  Ca46  1  0.91982107  0.66177555  0.49629916  1
  Ca2+  Ca47  1  0.92361136  0.66634773  0.82611281  1
  Al0+  Al48  1  0.00157801  -0.00052799  0.00363558  1
  Al0+  Al49  1  0.00088190  0.00131511  0.33540277  1
  Al0+  Al50  1  0.00248046  -0.00071912  0.66491997  1
  Al0+  Al51  1  0.00081911  0.49660966  -0.00337705  1
  Al0+  Al52  1  0.00058561  0.50023777  0.33526767  1
  Al0+  Al53  1  0.00023328  0.49713814  0.66128246  1
  Al0+  Al54  1  0.49946020  0.00048605  -0.00144514  1
  Al0+  Al55  1  0.50025686  0.00112686  0.33364535  1
  Al0+  Al56  1  0.49990959  0.00266913  0.66480169  1
  Al0+  Al57  1  0.49933289  0.49980780  -0.00060927  1
  Al0+  Al58  1  0.49949156  0.50157634  0.32888567  1
  Al0+  Al59  1  0.49749165  0.49871753  0.66816727  1
  Al0+  Al60  1  0.25302717  0.24854776  -0.00583012  1
  Al0+  Al61  1  0.25199564  0.24891822  0.32849800  1
  Al0+  Al62  1  0.25197765  0.24935611  0.67011111  1
  Al0+  Al63  1  0.25104720  0.75151144  0.00361153  1
  Al0+  Al64  1  0.24814958  0.75313267  0.33696364  1
  Al0+  Al65  1  0.24773077  0.75257335  0.66065393  1
  Al0+  Al66  1  0.74839307  0.24742542  0.00259303  1
  Al0+  Al67  1  0.75017024  0.24717995  0.33589971  1
  Al0+  Al68  1  0.75048064  0.24797682  0.66483783  1
  Al0+  Al69  1  0.74784762  0.74970506  0.00293067  1
  Al0+  Al70  1  0.74788853  0.75449376  0.33153859  1
  Al0+  Al71  1  0.74774760  0.75182455  0.66502135  1
  Al0+  Al72  1  0.43175347  0.32107354  0.31876512  1
  Al0+  Al73  1  0.82200317  0.57223262  0.68230059  1
  Al0+  Al74  1  0.67998472  0.42926726  0.34576381  1
  Al0+  Al75  1  0.31991995  0.57343786  0.34946341  1
  Al0+  Al76  1  0.18059717  0.93100795  0.01527968  1
  Al0+  Al77  1  0.57035186  0.67961118  0.31715964  1
  Al0+  Al78  1  0.07132165  0.67715154  0.98762607  1
  Al0+  Al79  1  0.92802147  0.82293424  0.65294335  1
  Al0+  Al80  1  0.92777293  0.31939076  0.65061722  1
  Al0+  Al81  1  0.92628931  0.32060418  0.98577323  1
  Al0+  Al82  1  0.31918615  0.57116388  0.01235693  1
  Al0+  Al83  1  0.82230368  0.57445344  0.34758517  1
  Al0+  Al84  1  0.67734656  0.42790687  0.68171772  1
  Al0+  Al85  1  0.17944809  0.42634568  0.34687489  1
  Al0+  Al86  1  0.42804805  0.82254638  0.65119196  1
  Al0+  Al87  1  0.06985034  0.67866645  0.31845027  1
  Al0+  Al88  1  0.56946798  0.67701473  0.65201615  1
  Al0+  Al89  1  0.82049102  0.06901055  0.01441700  1
  Al0+  Al90  1  0.43035471  0.82003596  0.98866732  1
  Al0+  Al91  1  0.92752037  0.81941204  0.98858454  1
  Al0+  Al92  1  0.06994363  0.67697220  0.65084309  1
  Al0+  Al93  1  0.82256095  0.57122657  0.01269473  1
  Al0+  Al94  1  0.07255851  0.17781819  0.98423314  1
  Al0+  Al95  1  0.07049265  0.17996862  0.32044192  1
  Si0+  Si96  1  0.17793394  0.93089759  0.35245755  1
  Si0+  Si97  1  0.32223864  0.07208200  0.68288551  1
  Si0+  Si98  1  0.32502381  0.07392503  0.01823774  1
  Si0+  Si99  1  0.67597063  0.93176138  0.35030991  1
  Si0+  Si100  1  0.57109299  0.17989553  0.65164269  1
  Si0+  Si101  1  0.82238649  0.06908178  0.35087507  1
  Si0+  Si102  1  0.42789398  0.82480144  0.31724128  1
  Si0+  Si103  1  0.43050194  0.32248765  0.98225252  1
  Si0+  Si104  1  0.56986796  0.17854042  0.98458391  1
  Si0+  Si105  1  0.57371176  0.17538006  0.31538467  1
  Si0+  Si106  1  0.32250473  0.07027057  0.34872600  1
  Si0+  Si107  1  0.07335533  0.17890395  0.65130044  1
  Si0+  Si108  1  0.92770965  0.82304082  0.31739997  1
  Si0+  Si109  1  0.57209626  0.67552024  0.98240531  1
  Si0+  Si110  1  0.67454833  0.92777085  0.01729923  1
  Si0+  Si111  1  0.31803666  0.57145349  0.68070993  1
  Si0+  Si112  1  0.42787204  0.32014779  0.65191210  1
  Si0+  Si113  1  0.18057137  0.93017899  0.68287516  1
  Si0+  Si114  1  0.92640284  0.32162122  0.31704120  1
  Si0+  Si115  1  0.67676945  0.93009208  0.68202232  1
  Si0+  Si116  1  0.67798927  0.42692176  0.01569606  1
  Si0+  Si117  1  0.17944726  0.42540018  0.68215054  1
  Si0+  Si118  1  0.17883261  0.42499425  0.01399476  1
  Si0+  Si119  1  0.82171219  0.06862766  0.68145522  1
  O2-  O120  1  0.25307971  0.00922919  0.06233300  1
  O2-  O121  1  0.25180017  0.00045127  0.39301348  1
  O2-  O122  1  0.25397510  -0.00058568  0.72501142  1
  O2-  O123  1  0.24287191  0.49777466  0.05780992  1
  O2-  O124  1  0.24627228  0.50250354  0.39939801  1
  O2-  O125  1  0.24411918  0.50315259  0.72325078  1
  O2-  O126  1  0.74982247  -0.01022655  0.06155596  1
  O2-  O127  1  0.75013352  -0.00046893  0.39306798  1
  O2-  O128  1  0.75403813  -0.00555968  0.72422080  1
  O2-  O129  1  0.74753230  0.49516656  0.05769454  1
  O2-  O130  1  0.75149928  0.50026813  0.39670539  1
  O2-  O131  1  0.74896495  0.49973875  0.73192714  1
  O2-  O132  1  -0.00089877  0.25676906  0.27336661  1
  O2-  O133  1  0.00680936  0.24784340  0.60559291  1
  O2-  O134  1  0.00062914  0.24994265  0.93544839  1
  O2-  O135  1  -0.01031626  0.74874546  0.27393755  1
  O2-  O136  1  -0.00833105  0.74406262  0.60261999  1
  O2-  O137  1  -0.00711221  0.74237956  0.93762497  1
  O2-  O138  1  0.51120202  0.24991613  0.27217200  1
  O2-  O139  1  0.50418352  0.25451780  0.60998651  1
  O2-  O140  1  0.50168693  0.25126919  0.94066810  1
  O2-  O141  1  0.49067249  0.75123203  0.27304845  1
  O2-  O142  1  0.49645479  0.74828368  0.60091226  1
  O2-  O143  1  0.50397985  0.74594197  0.94034847  1
  O2-  O144  1  0.07088920  0.18011741  0.09794491  1
  O2-  O145  1  0.06763129  0.17773598  0.43396715  1
  O2-  O146  1  0.07313474  0.17815529  0.75631174  1
  O2-  O147  1  0.07351255  0.67954893  0.10107810  1
  O2-  O148  1  0.07153668  0.68338465  0.43121374  1
  O2-  O149  1  0.07519955  0.68144922  0.76408822  1
  O2-  O150  1  0.56824867  0.17628695  0.08945298  1
  O2-  O151  1  0.56962128  0.16976711  0.42093661  1
  O2-  O152  1  0.56847637  0.17666712  0.75680786  1
  O2-  O153  1  0.57066135  0.67488051  0.08800252  1
  O2-  O154  1  0.57108071  0.68079533  0.43003701  1
  O2-  O155  1  0.56713890  0.67971643  0.76577928  1
  O2-  O156  1  0.18385374  0.42254803  0.23351631  1
  O2-  O157  1  0.18477415  0.41748685  0.57782335  1
  O2-  O158  1  0.18315578  0.42294690  0.90799923  1
  O2-  O159  1  0.17668887  0.93185694  0.24759942  1
  O2-  O160  1  0.18052918  0.93423848  0.57762950  1
  O2-  O161  1  0.18359756  0.93129675  0.90188801  1
  O2-  O162  1  0.68264181  0.43032618  0.23194340  1
  O2-  O163  1  0.67774001  0.42750238  0.56862050  1
  O2-  O164  1  0.67651751  0.42594395  0.91024913  1
  O2-  O165  1  0.67081467  0.93542247  0.24561108  1
  O2-  O166  1  0.67343936  0.93607792  0.57689481  1
  O2-  O167  1  0.66928091  0.93382590  0.91191263  1
  O2-  O168  1  0.43099132  0.32230393  0.08698060  1
  O2-  O169  1  0.43063694  0.31642064  0.43229348  1
  O2-  O170  1  0.42546507  0.31631832  0.75710344  1
  O2-  O171  1  0.43285915  0.82217575  0.10158036  1
  O2-  O172  1  0.43323165  0.83041369  0.42234356  1
  O2-  O173  1  0.42885836  0.82268625  0.76492201  1
  O2-  O174  1  0.92526862  0.31909236  0.09920303  1
  O2-  O175  1  0.92517468  0.31621994  0.42271425  1
  O2-  O176  1  0.92651828  0.31663032  0.76342666  1
  O2-  O177  1  0.93263777  0.82037631  0.10215078  1
  O2-  O178  1  0.93055892  0.82710412  0.42292629  1
  O2-  O179  1  0.93462303  0.82938897  0.76561882  1
  O2-  O180  1  0.32608416  0.06832015  0.24406729  1
  O2-  O181  1  0.32161163  0.07521405  0.57774559  1
  O2-  O182  1  0.32837474  0.07258067  0.91246345  1
  O2-  O183  1  0.31959138  0.57146597  0.23575146  1
  O2-  O184  1  0.32016600  0.56810288  0.57605953  1
  O2-  O185  1  0.32059870  0.56937755  0.89847331  1
  O2-  O186  1  0.82294952  0.06795237  0.24600760  1
  O2-  O187  1  0.81901047  0.06875110  0.57601401  1
  O2-  O188  1  0.81651545  0.06985623  0.90097984  1
  O2-  O189  1  0.82195796  0.57364063  0.23370100  1
  O2-  O190  1  0.82079491  0.57097159  0.56904819  1
  O2-  O191  1  0.82119736  0.57254777  0.89990864  1
  O2-  O192  1  0.03543158  0.08408832  0.26752085  1
  O2-  O193  1  0.04710676  0.08610232  0.60409866  1
  O2-  O194  1  0.04201405  0.07979781  0.93328870  1
  O2-  O195  1  0.04699138  0.57919602  0.26681997  1
  O2-  O196  1  0.05132084  0.57655905  0.59908008  1
  O2-  O197  1  0.05322848  0.57649714  0.93577829  1
  O2-  O198  1  0.54015454  0.08539175  0.26645794  1
  O2-  O199  1  0.53856813  0.09095313  0.60102155  1
  O2-  O200  1  0.53938687  0.08880476  0.93435850  1
  O2-  O201  1  0.54174405  0.58408307  0.26129351  1
  O2-  O202  1  0.53863427  0.57858237  0.59996830  1
  O2-  O203  1  0.54460570  0.58306800  0.93554061  1
  O2-  O204  1  0.16861496  0.20272788  0.26665151  1
  O2-  O205  1  0.16885154  0.20280241  0.60735431  1
  O2-  O206  1  0.17334792  0.19968785  0.93207230  1
  O2-  O207  1  0.16631853  0.71626247  0.26733535  1
  O2-  O208  1  0.16484677  0.71369297  0.59531554  1
  O2-  O209  1  0.16757271  0.71414536  0.93556914  1
  O2-  O210  1  0.67013082  0.19284108  0.27253558  1
  O2-  O211  1  0.66375599  0.20017940  0.60349440  1
  O2-  O212  1  0.66183325  0.20351016  0.93675062  1
  O2-  O213  1  0.66472219  0.71766729  0.26234053  1
  O2-  O214  1  0.66633893  0.70852314  0.59833433  1
  O2-  O215  1  0.66531056  0.70225906  0.93733401  1
  O2-  O216  1  0.08303953  0.44155527  0.05725867  1
  O2-  O217  1  0.07952091  0.44843123  0.39849189  1
  O2-  O218  1  0.08491325  0.44663946  0.72538022  1
  O2-  O219  1  0.08539742  0.96094272  0.07217049  1
  O2-  O220  1  0.08840968  0.96426833  0.40139712  1
  O2-  O221  1  0.09007206  0.96182587  0.73044854  1
  O2-  O222  1  0.58404251  0.45406879  0.06051026  1
  O2-  O223  1  0.58019068  0.45679734  0.39520330  1
  O2-  O224  1  0.57626931  0.45097762  0.73379712  1
  O2-  O225  1  0.58511900  0.96381580  0.06639584  1
  O2-  O226  1  0.58685438  0.96487480  0.40044777  1
  O2-  O227  1  0.58779118  0.96684804  0.73072357  1
  O2-  O228  1  0.21113618  0.33256267  0.05927369  1
  O2-  O229  1  0.21404788  0.32874022  0.40041345  1
  O2-  O230  1  0.21480616  0.33733449  0.73338827  1
  O2-  O231  1  0.21600805  0.83745385  0.07194099  1
  O2-  O232  1  0.20464006  0.84030837  0.40180054  1
  O2-  O233  1  0.20681465  0.83775698  0.72917663  1
  O2-  O234  1  0.69803592  0.33213101  0.06167208  1
  O2-  O235  1  0.70020065  0.32686255  0.39653066  1
  O2-  O236  1  0.70418702  0.32653199  0.73153065  1
  O2-  O237  1  0.69021523  0.83202597  0.06140527  1
  O2-  O238  1  0.70174617  0.83988898  0.39731149  1
  O2-  O239  1  0.69449630  0.83629560  0.72787531  1
  O2-  O240  1  0.45906098  0.41660320  0.26176115  1
  O2-  O241  1  0.44926380  0.41309995  0.60554611  1
  O2-  O242  1  0.45862399  0.41329069  0.93290752  1
  O2-  O243  1  0.45951738  0.91632939  0.26932761  1
  O2-  O244  1  0.45749632  0.92203925  0.59998636  1
  O2-  O245  1  0.45935242  0.91747578  0.93404727  1
  O2-  O246  1  0.94745699  0.41680965  0.27439730  1
  O2-  O247  1  0.95731391  0.41456266  0.59522842  1
  O2-  O248  1  0.95585366  0.41668273  0.92896208  1
  O2-  O249  1  0.96219852  0.91466040  0.27212503  1
  O2-  O250  1  0.96379684  0.91885028  0.59638353  1
  O2-  O251  1  0.96115539  0.91678988  0.93714266  1
  O2-  O252  1  0.33898802  0.28327999  0.26234175  1
  O2-  O253  1  0.33895340  0.28469383  0.60347979  1
  O2-  O254  1  0.34034700  0.29371162  0.93214132  1
  O2-  O255  1  0.33093622  0.80672475  0.27669009  1
  O2-  O256  1  0.32879234  0.80059252  0.59899974  1
  O2-  O257  1  0.33457090  0.78939768  0.93447986  1
  O2-  O258  1  0.83443176  0.28971703  0.27120125  1
  O2-  O259  1  0.83366813  0.28215871  0.59578965  1
  O2-  O260  1  0.82864810  0.28684215  0.93364772  1
  O2-  O261  1  0.83069679  0.81104535  0.27438102  1
  O2-  O262  1  0.82532528  0.80823578  0.60431702  1
  O2-  O263  1  0.82414287  0.80434084  0.94048807  1
  O2-  O264  1  0.41718937  0.04528330  0.06580395  1
  O2-  O265  1  0.41416012  0.04305121  0.39826932  1
  O2-  O266  1  0.41557730  0.04782053  0.72966123  1
  O2-  O267  1  0.41569892  0.53686479  0.06497519  1
  O2-  O268  1  0.41786195  0.53989588  0.39960597  1
  O2-  O269  1  0.40800134  0.54070673  0.73010171  1
  O2-  O270  1  0.91678645  0.04117835  0.07011658  1
  O2-  O271  1  0.91263783  0.03924370  0.40061244  1
  O2-  O272  1  0.91531655  0.04439511  0.72657064  1
  O2-  O273  1  0.91970022  0.53864707  0.06515306  1
  O2-  O274  1  0.92064442  0.54729006  0.40012725  1
  O2-  O275  1  0.92194142  0.54088528  0.73147435  1
  O2-  O276  1  0.30453796  0.17004283  0.06103861  1
  O2-  O277  1  0.29470668  0.16175554  0.39613884  1
  O2-  O278  1  0.29465993  0.16286700  0.73324563  1
  O2-  O279  1  0.29293061  0.66711828  0.06819805  1
  O2-  O280  1  0.29511460  0.67320127  0.40202194  1
  O2-  O281  1  0.29168297  0.66545408  0.72478098  1
  O2-  O282  1  0.78364322  0.16272876  0.07089596  1
  O2-  O283  1  0.79511983  0.16051028  0.39923479  1
  O2-  O284  1  0.78924397  0.15853816  0.72899083  1
  O2-  O285  1  0.79123687  0.66739553  0.06808465  1
  O2-  O286  1  0.79294541  0.67455855  0.39698318  1
  O2-  O287  1  0.79307656  0.67249960  0.73296989  1
