# generated using pymatgen
data_Ca2Al2SiO7
_symmetry_space_group_name_H-M   'P 1'
_cell_length_a   15.46495463
_cell_length_b   15.46397891
_cell_length_c   15.28830430
_cell_angle_alpha   90.00295041
_cell_angle_beta   90.01173218
_cell_angle_gamma   90.00118359
_symmetry_Int_Tables_number   1
_chemical_formula_structural   Ca2Al2SiO7
_chemical_formula_sum   'Ca48 Al48 Si24 O168'
_cell_volume   3656.19379623
_cell_formula_units_Z   24
loop_
 _symmetry_equiv_pos_site_id
 _symmetry_equiv_pos_as_xyz
  1  'x, y, z'
loop_
 _atom_type_symbol
 _atom_type_oxidation_number
  Ca2+  2.0
  Al0+  0.0
  Si0+  0.0
  O2-  -2.0
loop_
 _atom_site_type_symbol
 _atom_site_label
 _atom_site_symmetry_multiplicity
 _atom_site_fract_x
 _atom_site_fract_y
 _atom_site_fract_z
 _atom_site_occupancy
  Ca2+  Ca0  1  0.15759163  0.07239979  0.16767503  1
  Ca2+  Ca1  1  0.16301451  0.06808858  0.50448779  1
  Ca2+  Ca2  1  0.16047243  0.06955725  0.83941364  1
  Ca2+  Ca3  1  0.16552887  0.57372262  0.17427584  1
  Ca2+  Ca4  1  0.17306872  0.58078742  0.50649101  1
  Ca2+  Ca5  1  0.16358627  0.57839549  0.83824992  1
  Ca2+  Ca6  1  0.67305602  0.07761486  0.17666170  1
  Ca2+  Ca7  1  0.67679127  0.07857827  0.50322662  1
  Ca2+  Ca8  1  0.67302828  0.08194676  0.83536885  1
  Ca2+  Ca9  1  0.67072641  0.58432596  0.16176650  1
  Ca2+  Ca10  1  0.66563421  0.58440662  0.50483462  1
  Ca2+  Ca11  1  0.67084160  0.58742848  0.84366630  1
  Ca2+  Ca12  1  0.08421947  0.32887881  0.15360037  1
  Ca2+  Ca13  1  0.08861430  0.33528440  0.49525073  1
  Ca2+  Ca14  1  0.08428347  0.33440749  0.83348240  1
  Ca2+  Ca15  1  0.09185681  0.82272389  0.16313542  1
  Ca2+  Ca16  1  0.09207662  0.82412803  0.49784686  1
  Ca2+  Ca17  1  0.08628956  0.82248604  0.82606231  1
  Ca2+  Ca18  1  0.57052820  0.34210987  0.16002900  1
  Ca2+  Ca19  1  0.57357523  0.33220475  0.49208955  1
  Ca2+  Ca20  1  0.57619689  0.34270640  0.83402489  1
  Ca2+  Ca21  1  0.58240754  0.83082716  0.16013392  1
  Ca2+  Ca22  1  0.57924013  0.83147964  0.49872075  1
  Ca2+  Ca23  1  0.57747947  0.82079427  0.82393138  1
  Ca2+  Ca24  1  0.32647077  0.41873921  0.17260542  1
  Ca2+  Ca25  1  0.32493256  0.42498906  0.50305563  1
  Ca2+  Ca26  1  0.32455668  0.42203817  0.83731058  1
  Ca2+  Ca27  1  0.32107657  0.91526377  0.16981143  1
  Ca2+  Ca28  1  0.32428150  0.90938199  0.50516296  1
  Ca2+  Ca29  1  0.32372241  0.90732417  0.83328517  1
  Ca2+  Ca30  1  0.83584860  0.42017017  0.16152663  1
  Ca2+  Ca31  1  0.83125600  0.41994992  0.50492301  1
  Ca2+  Ca32  1  0.82699855  0.42483631  0.84685757  1
  Ca2+  Ca33  1  0.82736596  0.92333580  0.17687652  1
  Ca2+  Ca34  1  0.83681779  0.92447807  0.50570192  1
  Ca2+  Ca35  1  0.84465025  0.92024598  0.83343425  1
  Ca2+  Ca36  1  0.41252870  0.18107088  0.16106468  1
  Ca2+  Ca37  1  0.41295380  0.17518591  0.49223169  1
  Ca2+  Ca38  1  0.41298041  0.17466230  0.83324920  1
  Ca2+  Ca39  1  0.42115736  0.66199596  0.16306403  1
  Ca2+  Ca40  1  0.41282261  0.66414846  0.50164857  1
  Ca2+  Ca41  1  0.42663016  0.66353512  0.82506411  1
  Ca2+  Ca42  1  0.92046694  0.17235452  0.15904316  1
  Ca2+  Ca43  1  0.91311412  0.16429345  0.49791995  1
  Ca2+  Ca44  1  0.91931296  0.17104080  0.83302148  1
  Ca2+  Ca45  1  0.92894374  0.66426996  0.15933284  1
  Ca2+  Ca46  1  0.93192247  0.67143290  0.49886100  1
  Ca2+  Ca47  1  0.92706872  0.66694230  0.82861572  1
  Al0+  Al48  1  0.00047854  0.00036895  0.00379071  1
  Al0+  Al49  1  -0.00096901  -0.00003954  0.34079682  1
  Al0+  Al50  1  -0.00020660  0.00255718  0.67277751  1
  Al0+  Al51  1  -0.00068717  0.50016283  0.00001657  1
  Al0+  Al52  1  -0.00137786  0.49936071  0.33334964  1
  Al0+  Al53  1  -0.00275556  0.49866858  0.66534842  1
  Al0+  Al54  1  0.49869637  0.00255159  0.00004291  1
  Al0+  Al55  1  0.50091005  -0.00063217  0.33511939  1
  Al0+  Al56  1  0.50195707  0.00071881  0.66343180  1
  Al0+  Al57  1  0.50053795  0.50069709  -0.00544050  1
  Al0+  Al58  1  0.50010584  0.50083269  0.33180268  1
  Al0+  Al59  1  0.49822788  0.49770657  0.66381359  1
  Al0+  Al60  1  0.25093566  0.24886938  -0.00730779  1
  Al0+  Al61  1  0.24843771  0.24980654  0.33004254  1
  Al0+  Al62  1  0.24859920  0.24918472  0.66810302  1
  Al0+  Al63  1  0.25025207  0.75055335  0.00129542  1
  Al0+  Al64  1  0.25234472  0.74862758  0.33390252  1
  Al0+  Al65  1  0.25340473  0.74807020  0.66828780  1
  Al0+  Al66  1  0.74807690  0.25037351  0.00150453  1
  Al0+  Al67  1  0.74976236  0.25005935  0.33592790  1
  Al0+  Al68  1  0.75065724  0.24885419  0.67050860  1
  Al0+  Al69  1  0.75023938  0.75160298  0.00134277  1
  Al0+  Al70  1  0.74990313  0.74994480  0.33680099  1
  Al0+  Al71  1  0.75028631  0.75069724  0.65832917  1
  Al0+  Al72  1  0.07177777  0.67898508  0.98767701  1
  Al0+  Al73  1  0.82193850  0.57367338  0.01501306  1
  Al0+  Al74  1  0.93091644  0.82422825  0.65177576  1
  Al0+  Al75  1  0.57105699  0.67636012  0.64923127  1
  Al0+  Al76  1  0.17930340  0.92857588  0.01487631  1
  Al0+  Al77  1  0.07187044  0.67697887  0.65169159  1
  Al0+  Al78  1  0.67686176  0.92624811  0.35024376  1
  Al0+  Al79  1  0.18139066  0.92914810  0.68082764  1
  Al0+  Al80  1  0.82035728  0.07067454  0.68493755  1
  Al0+  Al81  1  0.57086702  0.68194865  0.98786922  1
  Al0+  Al82  1  0.32275050  0.56990330  0.34785948  1
  Al0+  Al83  1  0.92758824  0.32112079  0.98458855  1
  Al0+  Al84  1  0.18071638  0.92891550  0.34734217  1
  Al0+  Al85  1  0.42926239  0.32170345  0.98384331  1
  Al0+  Al86  1  0.82023441  0.07158824  0.34904884  1
  Al0+  Al87  1  0.42949135  0.82183840  0.65061215  1
  Al0+  Al88  1  0.42892481  0.32087107  0.31906054  1
  Al0+  Al89  1  0.07207219  0.67960395  0.31858654  1
  Al0+  Al90  1  0.17976981  0.42889809  0.01280041  1
  Al0+  Al91  1  0.32171022  0.56981262  0.68407266  1
  Al0+  Al92  1  0.17635365  0.42818322  0.68370488  1
  Al0+  Al93  1  0.67703556  0.42903570  0.01529910  1
  Al0+  Al94  1  0.07097490  0.17719187  0.98375492  1
  Al0+  Al95  1  0.17669365  0.42721120  0.34667946  1
  Si0+  Si96  1  0.57338857  0.67897165  0.31610625  1
  Si0+  Si97  1  0.82213604  0.57116181  0.34989111  1
  Si0+  Si98  1  0.32491707  0.07341919  0.68253451  1
  Si0+  Si99  1  0.67706700  0.93034719  0.01306024  1
  Si0+  Si100  1  0.81890007  0.57207156  0.67941208  1
  Si0+  Si101  1  0.92722790  0.31941257  0.65112974  1
  Si0+  Si102  1  0.06902760  0.17795507  0.32001925  1
  Si0+  Si103  1  0.92620687  0.32155079  0.31887348  1
  Si0+  Si104  1  0.42799863  0.82475755  0.98469652  1
  Si0+  Si105  1  0.57253722  0.17859231  0.31707209  1
  Si0+  Si106  1  0.32178913  0.07276717  0.34763809  1
  Si0+  Si107  1  0.57370883  0.18016216  0.65123894  1
  Si0+  Si108  1  0.92764395  0.82276555  0.98723917  1
  Si0+  Si109  1  0.92838402  0.82236900  0.31730402  1
  Si0+  Si110  1  0.57181601  0.17600682  0.98289405  1
  Si0+  Si111  1  0.42775176  0.31826107  0.64968498  1
  Si0+  Si112  1  0.42984365  0.82195959  0.31657810  1
  Si0+  Si113  1  0.67917068  0.43077303  0.34786323  1
  Si0+  Si114  1  0.67794282  0.92731971  0.68483442  1
  Si0+  Si115  1  0.82042644  0.07113246  0.01597714  1
  Si0+  Si116  1  0.32247167  0.57179223  0.01596089  1
  Si0+  Si117  1  0.07058243  0.17986355  0.65077651  1
  Si0+  Si118  1  0.67941295  0.42843639  0.67933862  1
  Si0+  Si119  1  0.32323180  0.07251111  0.01670635  1
  O2-  O120  1  0.25373516  0.00470648  0.06067771  1
  O2-  O121  1  0.25585734  0.00335270  0.39389265  1
  O2-  O122  1  0.25997064  0.00139143  0.72630320  1
  O2-  O123  1  0.25247561  0.50483741  0.06053630  1
  O2-  O124  1  0.24721496  0.50045717  0.39610461  1
  O2-  O125  1  0.24514879  0.50282251  0.73391611  1
  O2-  O126  1  0.74825222  0.00058367  0.05646457  1
  O2-  O127  1  0.74998795  -0.00221930  0.39885425  1
  O2-  O128  1  0.74909363  -0.00760496  0.73137304  1
  O2-  O129  1  0.75081718  0.49960479  0.06494845  1
  O2-  O130  1  0.75014228  0.50043238  0.39187324  1
  O2-  O131  1  0.74396632  0.50489716  0.72081532  1
  O2-  O132  1  -0.00026974  0.25172050  0.27933448  1
  O2-  O133  1  0.00178127  0.25290206  0.60774063  1
  O2-  O134  1  0.00114017  0.25141387  0.93324418  1
  O2-  O135  1  -0.00276214  0.75519311  0.27162843  1
  O2-  O136  1  0.00477941  0.75435738  0.60145549  1
  O2-  O137  1  -0.00429829  0.75372320  0.94369539  1
  O2-  O138  1  0.50279529  0.24486834  0.27173779  1
  O2-  O139  1  0.49863687  0.24629405  0.60793214  1
  O2-  O140  1  0.50607800  0.24733564  0.93837877  1
  O2-  O141  1  0.50316931  0.75208408  0.27553170  1
  O2-  O142  1  0.49989695  0.74881768  0.59873981  1
  O2-  O143  1  0.49644313  0.75603739  0.94129252  1
  O2-  O144  1  0.06674489  0.17507831  0.09807506  1
  O2-  O145  1  0.06912780  0.17756841  0.42533712  1
  O2-  O146  1  0.06920892  0.17930520  0.75533998  1
  O2-  O147  1  0.07288953  0.68038954  0.10111467  1
  O2-  O148  1  0.07103659  0.67964620  0.43138063  1
  O2-  O149  1  0.06758877  0.67537209  0.76529125  1
  O2-  O150  1  0.56946257  0.17130801  0.08823427  1
  O2-  O151  1  0.57301830  0.18222554  0.42294057  1
  O2-  O152  1  0.57516496  0.18262030  0.75621256  1
  O2-  O153  1  0.57033414  0.68438800  0.10151441  1
  O2-  O154  1  0.57383947  0.67675902  0.42069322  1
  O2-  O155  1  0.57236618  0.67722137  0.76289911  1
  O2-  O156  1  0.17747387  0.42549488  0.23308754  1
  O2-  O157  1  0.17953588  0.42479854  0.57006772  1
  O2-  O158  1  0.18124024  0.43030060  0.90010169  1
  O2-  O159  1  0.18077872  0.93060988  0.23421660  1
  O2-  O160  1  0.18142607  0.93243974  0.56748352  1
  O2-  O161  1  0.18027841  0.92797126  0.90206968  1
  O2-  O162  1  0.67878603  0.43124526  0.24340169  1
  O2-  O163  1  0.68274419  0.42551945  0.57358927  1
  O2-  O164  1  0.67725771  0.43155129  0.90121663  1
  O2-  O165  1  0.67791320  0.92821511  0.23558770  1
  O2-  O166  1  0.67695958  0.93166630  0.57957590  1
  O2-  O167  1  0.67567026  0.93179312  0.90837271  1
  O2-  O168  1  0.42985243  0.32040237  0.09710714  1
  O2-  O169  1  0.43198386  0.31821806  0.43250719  1
  O2-  O170  1  0.42940917  0.31791602  0.75459985  1
  O2-  O171  1  0.43027555  0.82661577  0.09071236  1
  O2-  O172  1  0.42971692  0.82316956  0.42110351  1
  O2-  O173  1  0.43393834  0.82424302  0.76432106  1
  O2-  O174  1  0.92747450  0.31701140  0.09879803  1
  O2-  O175  1  0.92284747  0.32121112  0.42428854  1
  O2-  O176  1  0.92317990  0.31769959  0.75542590  1
  O2-  O177  1  0.92631333  0.82356128  0.09299719  1
  O2-  O178  1  0.92885078  0.82105633  0.42250959  1
  O2-  O179  1  0.93191925  0.82145254  0.76583883  1
  O2-  O180  1  0.32082251  0.07247872  0.24216387  1
  O2-  O181  1  0.32186653  0.07764078  0.57680297  1
  O2-  O182  1  0.32706294  0.07005386  0.91127580  1
  O2-  O183  1  0.32521250  0.56777205  0.23400915  1
  O2-  O184  1  0.32359393  0.56448076  0.57057037  1
  O2-  O185  1  0.32319853  0.57105907  0.91073024  1
  O2-  O186  1  0.81862177  0.07184632  0.23504457  1
  O2-  O187  1  0.81614217  0.07507680  0.57235168  1
  O2-  O188  1  0.82009312  0.07005376  0.91094247  1
  O2-  O189  1  0.82239543  0.57087385  0.24516306  1
  O2-  O190  1  0.81966545  0.56703115  0.57383171  1
  O2-  O191  1  0.81883266  0.57518465  0.90109387  1
  O2-  O192  1  0.03815895  0.08651210  0.27306937  1
  O2-  O193  1  0.03884909  0.08940585  0.60351675  1
  O2-  O194  1  0.03747641  0.07948217  0.93179155  1
  O2-  O195  1  0.03762056  0.58251021  0.26684368  1
  O2-  O196  1  0.03633420  0.58046119  0.59763646  1
  O2-  O197  1  0.04020321  0.58358271  0.93348267  1
  O2-  O198  1  0.55042704  0.08325912  0.27297675  1
  O2-  O199  1  0.55197971  0.08711197  0.60402276  1
  O2-  O200  1  0.54329220  0.08435784  0.93302346  1
  O2-  O201  1  0.54384077  0.58797878  0.26817392  1
  O2-  O202  1  0.54355036  0.57680137  0.59652598  1
  O2-  O203  1  0.54255201  0.58608073  0.93252453  1
  O2-  O204  1  0.16089719  0.20173818  0.27105592  1
  O2-  O205  1  0.16338335  0.20435144  0.60303550  1
  O2-  O206  1  0.17014769  0.19886123  0.93081110  1
  O2-  O207  1  0.16919061  0.71022843  0.26549031  1
  O2-  O208  1  0.17234054  0.70151964  0.60279158  1
  O2-  O209  1  0.16818513  0.71099926  0.93417090  1
  O2-  O210  1  0.66589853  0.20571921  0.27113876  1
  O2-  O211  1  0.66328865  0.21385302  0.60264259  1
  O2-  O212  1  0.66640599  0.19837695  0.93827597  1
  O2-  O213  1  0.66619103  0.70553686  0.26944112  1
  O2-  O214  1  0.66915728  0.70358948  0.59490642  1
  O2-  O215  1  0.66729634  0.71358868  0.93388130  1
  O2-  O216  1  0.08197896  0.45566097  0.06551213  1
  O2-  O217  1  0.07660493  0.45120795  0.39851979  1
  O2-  O218  1  0.07470322  0.45159159  0.73227114  1
  O2-  O219  1  0.08327666  0.96015955  0.07055054  1
  O2-  O220  1  0.08526694  0.96009505  0.40239230  1
  O2-  O221  1  0.08693756  0.96464533  0.73512063  1
  O2-  O222  1  0.57946893  0.46184592  0.06760511  1
  O2-  O223  1  0.58846191  0.45956121  0.39653912  1
  O2-  O224  1  0.58508013  0.44942658  0.72317423  1
  O2-  O225  1  0.58555890  0.95865870  0.06178481  1
  O2-  O226  1  0.57885680  0.95584491  0.40339024  1
  O2-  O227  1  0.58555260  0.95767298  0.73120609  1
  O2-  O228  1  0.21059444  0.32982662  0.06221264  1
  O2-  O229  1  0.20603577  0.32832089  0.39885515  1
  O2-  O230  1  0.20737026  0.32924952  0.73468216  1
  O2-  O231  1  0.21357673  0.83361051  0.07079923  1
  O2-  O232  1  0.21429934  0.83350499  0.39999759  1
  O2-  O233  1  0.21023799  0.83212314  0.73403962  1
  O2-  O234  1  0.70062088  0.32898594  0.06791536  1
  O2-  O235  1  0.70572019  0.33870337  0.39597195  1
  O2-  O236  1  0.71169158  0.33964809  0.72892979  1
  O2-  O237  1  0.70436919  0.83962772  0.06227361  1
  O2-  O238  1  0.70228783  0.82732235  0.40258108  1
  O2-  O239  1  0.70071625  0.83124072  0.72631732  1
  O2-  O240  1  0.46407518  0.41601353  0.26526993  1
  O2-  O241  1  0.45801067  0.40819337  0.60100051  1
  O2-  O242  1  0.46172229  0.41635761  0.92761753  1
  O2-  O243  1  0.45603118  0.91477242  0.26897279  1
  O2-  O244  1  0.45729076  0.92138859  0.59713731  1
  O2-  O245  1  0.45270079  0.91847977  0.93876231  1
  O2-  O246  1  0.95003507  0.41397570  0.27169573  1
  O2-  O247  1  0.94986164  0.41188497  0.60253706  1
  O2-  O248  1  0.95179456  0.42050420  0.93320100  1
  O2-  O249  1  0.95189407  0.91798553  0.27392883  1
  O2-  O250  1  0.95492148  0.92567338  0.60284975  1
  O2-  O251  1  0.95391169  0.91617536  0.94191610  1
  O2-  O252  1  0.33268827  0.28937703  0.26438467  1
  O2-  O253  1  0.33623253  0.28883821  0.60260266  1
  O2-  O254  1  0.33595439  0.28768791  0.92634956  1
  O2-  O255  1  0.33960450  0.79220231  0.26745223  1
  O2-  O256  1  0.33123146  0.79399189  0.59796785  1
  O2-  O257  1  0.33478154  0.79852056  0.93988191  1
  O2-  O258  1  0.83506119  0.29167609  0.27087360  1
  O2-  O259  1  0.83675841  0.28690571  0.60223170  1
  O2-  O260  1  0.82820005  0.29174626  0.93318449  1
  O2-  O261  1  0.83356602  0.79658617  0.27272331  1
  O2-  O262  1  0.83292385  0.79696775  0.59740202  1
  O2-  O263  1  0.83379109  0.80076753  0.94005732  1
  O2-  O264  1  0.41643196  0.04779234  0.06554966  1
  O2-  O265  1  0.41678467  0.05165985  0.39282048  1
  O2-  O266  1  0.42111839  0.05392864  0.72605770  1
  O2-  O267  1  0.41590303  0.54383842  0.06077345  1
  O2-  O268  1  0.42073663  0.53954098  0.40112813  1
  O2-  O269  1  0.41966092  0.53470329  0.73570451  1
  O2-  O270  1  0.91095895  0.04272396  0.06496807  1
  O2-  O271  1  0.91752828  0.04490965  0.40466629  1
  O2-  O272  1  0.91701862  0.04441732  0.74019579  1
  O2-  O273  1  0.91876298  0.54330103  0.06969036  1
  O2-  O274  1  0.91166716  0.54026033  0.39939335  1
  O2-  O275  1  0.90844229  0.53990860  0.72758144  1
  O2-  O276  1  0.29802137  0.16669206  0.06060435  1
  O2-  O277  1  0.29442488  0.16550412  0.39420493  1
  O2-  O278  1  0.29552872  0.16496241  0.73054819  1
  O2-  O279  1  0.30107814  0.66663482  0.06137392  1
  O2-  O280  1  0.29801755  0.66906755  0.39952027  1
  O2-  O281  1  0.30417819  0.67078391  0.73463919  1
  O2-  O282  1  0.79267239  0.16253859  0.06353898  1
  O2-  O283  1  0.79013799  0.16965515  0.40341568  1
  O2-  O284  1  0.78410901  0.16568530  0.73961374  1
  O2-  O285  1  0.79099543  0.67106863  0.07020709  1
  O2-  O286  1  0.79444753  0.66246488  0.39739181  1
  O2-  O287  1  0.79492382  0.66561728  0.72417226  1
