# generated using pymatgen
data_Ca2Al2SiO7
_symmetry_space_group_name_H-M   'P 1'
_cell_length_a   15.45917255
_cell_length_b   15.45790293
_cell_length_c   15.28408847
_cell_angle_alpha   90.00113101
_cell_angle_beta   89.99829085
_cell_angle_gamma   89.99974027
_symmetry_Int_Tables_number   1
_chemical_formula_structural   Ca2Al2SiO7
_chemical_formula_sum   'Ca48 Al48 Si24 O168'
_cell_volume   3652.38342585
_cell_formula_units_Z   24
loop_
 _symmetry_equiv_pos_site_id
 _symmetry_equiv_pos_as_xyz
  1  'x, y, z'
loop_
 _atom_type_symbol
 _atom_type_oxidation_number
  Ca2+  2.0
  Al0+  0.0
  Si0+  0.0
  O2-  -2.0
loop_
 _atom_site_type_symbol
 _atom_site_label
 _atom_site_symmetry_multiplicity
 _atom_site_fract_x
 _atom_site_fract_y
 _atom_site_fract_z
 _atom_site_occupancy
  Ca2+  Ca0  1  0.17822502  0.08368238  0.16934919  1
  Ca2+  Ca1  1  0.17420776  0.08830897  0.50488476  1
  Ca2+  Ca2  1  0.17022420  0.08014902  0.84148701  1
  Ca2+  Ca3  1  0.17428533  0.57768511  0.16989130  1
  Ca2+  Ca4  1  0.16534249  0.57702282  0.50009288  1
  Ca2+  Ca5  1  0.17605608  0.58516538  0.84026011  1
  Ca2+  Ca6  1  0.66870266  0.08774488  0.17346607  1
  Ca2+  Ca7  1  0.66908838  0.08564944  0.50617681  1
  Ca2+  Ca8  1  0.65699862  0.07872987  0.83386728  1
  Ca2+  Ca9  1  0.67414283  0.57200576  0.17272957  1
  Ca2+  Ca10  1  0.66028468  0.57587442  0.50397827  1
  Ca2+  Ca11  1  0.66656323  0.57118821  0.84027247  1
  Ca2+  Ca12  1  0.07769779  0.33650409  0.16104154  1
  Ca2+  Ca13  1  0.07879681  0.33236347  0.49790325  1
  Ca2+  Ca14  1  0.07071500  0.33155812  0.82621366  1
  Ca2+  Ca15  1  0.07738614  0.83431564  0.15761164  1
  Ca2+  Ca16  1  0.07559108  0.83314716  0.49948932  1
  Ca2+  Ca17  1  0.07250272  0.83876158  0.83117068  1
  Ca2+  Ca18  1  0.58813109  0.32504632  0.15897027  1
  Ca2+  Ca19  1  0.59195531  0.32668440  0.49624152  1
  Ca2+  Ca20  1  0.58589899  0.32652866  0.83177330  1
  Ca2+  Ca21  1  0.58580168  0.82441028  0.16553882  1
  Ca2+  Ca22  1  0.58842963  0.82445113  0.50047381  1
  Ca2+  Ca23  1  0.57809106  0.82575523  0.81974103  1
  Ca2+  Ca24  1  0.33243601  0.41455231  0.16689849  1
  Ca2+  Ca25  1  0.32607529  0.41159229  0.50106674  1
  Ca2+  Ca26  1  0.33610723  0.42117003  0.84217035  1
  Ca2+  Ca27  1  0.33163899  0.92882336  0.16732768  1
  Ca2+  Ca28  1  0.34035175  0.92149335  0.50419234  1
  Ca2+  Ca29  1  0.32862316  0.92057996  0.84315624  1
  Ca2+  Ca30  1  0.82524157  0.41983799  0.17171741  1
  Ca2+  Ca31  1  0.82197828  0.42012352  0.50503947  1
  Ca2+  Ca32  1  0.82522828  0.41358268  0.83945227  1
  Ca2+  Ca33  1  0.83520362  0.92429726  0.17082528  1
  Ca2+  Ca34  1  0.82790233  0.92241912  0.50679634  1
  Ca2+  Ca35  1  0.82957452  0.91226873  0.83578239  1
  Ca2+  Ca36  1  0.42388737  0.16915862  0.15945763  1
  Ca2+  Ca37  1  0.43014680  0.16319934  0.49349901  1
  Ca2+  Ca38  1  0.42369050  0.16779563  0.83392437  1
  Ca2+  Ca39  1  0.42329364  0.65928764  0.16292450  1
  Ca2+  Ca40  1  0.42894628  0.67170088  0.49812562  1
  Ca2+  Ca41  1  0.42012300  0.67063898  0.82462853  1
  Ca2+  Ca42  1  0.91336615  0.17422748  0.15923394  1
  Ca2+  Ca43  1  0.91587731  0.17134331  0.49903209  1
  Ca2+  Ca44  1  0.92096163  0.17907291  0.82688677  1
  Ca2+  Ca45  1  0.91216412  0.66696554  0.15938654  1
  Ca2+  Ca46  1  0.90538797  0.67293604  0.49701622  1
  Ca2+  Ca47  1  0.90823460  0.67601749  0.83295047  1
  Al0+  Al48  1  -0.00145100  -0.00193136  -0.00064710  1
  Al0+  Al49  1  0.00076646  0.00114380  0.33699979  1
  Al0+  Al50  1  0.00194975  0.00042505  0.65893660  1
  Al0+  Al51  1  0.00066224  0.50222451  -0.00391673  1
  Al0+  Al52  1  0.00030095  0.50201675  0.34025027  1
  Al0+  Al53  1  -0.00008401  0.50074378  0.66477868  1
  Al0+  Al54  1  0.49971187  -0.00252233  0.00206326  1
  Al0+  Al55  1  0.49921577  -0.00081983  0.33201039  1
  Al0+  Al56  1  0.50052198  0.00152602  0.66468763  1
  Al0+  Al57  1  0.50058704  0.49685961  0.00492751  1
  Al0+  Al58  1  0.49869975  0.50052313  0.33276815  1
  Al0+  Al59  1  0.49908647  0.49937746  0.66719841  1
  Al0+  Al60  1  0.25238093  0.24964897  -0.00011197  1
  Al0+  Al61  1  0.24997541  0.24864613  0.34133702  1
  Al0+  Al62  1  0.24946081  0.25045475  0.66731278  1
  Al0+  Al63  1  0.24967675  0.74908004  0.01016672  1
  Al0+  Al64  1  0.24778008  0.75083996  0.33250793  1
  Al0+  Al65  1  0.24917775  0.75211617  0.66185591  1
  Al0+  Al66  1  0.75060579  0.24681162  -0.00644495  1
  Al0+  Al67  1  0.75150005  0.25019175  0.33655189  1
  Al0+  Al68  1  0.75141854  0.25162801  0.66454461  1
  Al0+  Al69  1  0.74993237  0.74927714  -0.00056927  1
  Al0+  Al70  1  0.74923023  0.75143619  0.32877246  1
  Al0+  Al71  1  0.74989838  0.75111419  0.66261813  1
  Al0+  Al72  1  0.32256235  0.57060208  0.01311980  1
  Al0+  Al73  1  0.82035345  0.57301466  0.34905794  1
  Al0+  Al74  1  0.67840507  0.42855445  0.68298899  1
  Al0+  Al75  1  0.57178943  0.17599987  0.98407932  1
  Al0+  Al76  1  0.57077113  0.67703303  0.65330892  1
  Al0+  Al77  1  0.32110885  0.06898861  0.34951214  1
  Al0+  Al78  1  0.92875337  0.82089546  0.98679135  1
  Al0+  Al79  1  0.57228205  0.18011013  0.31968211  1
  Al0+  Al80  1  0.42735192  0.82257281  0.65296838  1
  Al0+  Al81  1  0.67990381  0.93025413  0.67994177  1
  Al0+  Al82  1  0.68084415  0.42496812  0.01513277  1
  Al0+  Al83  1  0.56941959  0.18064954  0.65246960  1
  Al0+  Al84  1  0.17978389  0.42973409  0.34696313  1
  Al0+  Al85  1  0.57054748  0.67833081  0.31664900  1
  Al0+  Al86  1  0.42859114  0.32175286  0.98547215  1
  Al0+  Al87  1  0.07222320  0.17963253  0.65122326  1
  Al0+  Al88  1  0.92850597  0.32306740  0.64836809  1
  Al0+  Al89  1  0.82101215  0.57228289  0.01328349  1
  Al0+  Al90  1  0.67765772  0.42913677  0.34909777  1
  Al0+  Al91  1  0.92972206  0.32292526  0.98772006  1
  Al0+  Al92  1  0.17635305  0.92937024  0.01511754  1
  Al0+  Al93  1  0.92867235  0.82025677  0.65149267  1
  Al0+  Al94  1  0.32255964  0.07184977  0.01503879  1
  Al0+  Al95  1  0.82185871  0.07156679  0.34676771  1
  Si0+  Si96  1  0.17810159  0.42891266  0.68345950  1
  Si0+  Si97  1  0.93139358  0.32140600  0.31868349  1
  Si0+  Si98  1  0.57037942  0.67855520  0.98597368  1
  Si0+  Si99  1  0.07441430  0.67867556  0.98420626  1
  Si0+  Si100  1  0.17732667  0.92753664  0.35293517  1
  Si0+  Si101  1  0.82268612  0.57298221  0.68389364  1
  Si0+  Si102  1  0.42576614  0.82149086  0.31357093  1
  Si0+  Si103  1  0.32203784  0.57449469  0.35202072  1
  Si0+  Si104  1  0.17866683  0.92884580  0.68116750  1
  Si0+  Si105  1  0.07228679  0.17790568  0.98662914  1
  Si0+  Si106  1  0.07265235  0.17912309  0.31754007  1
  Si0+  Si107  1  0.17735875  0.42785372  0.01338178  1
  Si0+  Si108  1  0.82043650  0.06890593  0.01188417  1
  Si0+  Si109  1  0.93050101  0.82203775  0.31725489  1
  Si0+  Si110  1  0.42833262  0.81883651  0.98775378  1
  Si0+  Si111  1  0.67820485  0.92843531  0.34860758  1
  Si0+  Si112  1  0.07356804  0.67866071  0.64917784  1
  Si0+  Si113  1  0.07108841  0.67814014  0.31676118  1
  Si0+  Si114  1  0.31877751  0.57148471  0.67937148  1
  Si0+  Si115  1  0.32159351  0.07143730  0.68285107  1
  Si0+  Si116  1  0.42688608  0.32327194  0.64964910  1
  Si0+  Si117  1  0.67803856  0.92703271  0.01464431  1
  Si0+  Si118  1  0.42532058  0.32049749  0.31840157  1
  Si0+  Si119  1  0.82416289  0.07148997  0.68429476  1
  O2-  O120  1  0.24724791  0.00242375  0.06453043  1
  O2-  O121  1  0.24830762  -0.00713074  0.39795214  1
  O2-  O122  1  0.24967407  -0.00013622  0.72339628  1
  O2-  O123  1  0.24789081  0.49451203  0.05788721  1
  O2-  O124  1  0.25547180  0.50327039  0.39556511  1
  O2-  O125  1  0.24873603  0.50065009  0.72421522  1
  O2-  O126  1  0.74754488  0.00017148  0.05533661  1
  O2-  O127  1  0.74407641  -0.00014383  0.39235430  1
  O2-  O128  1  0.75490702  0.00370293  0.72953532  1
  O2-  O129  1  0.75391505  0.49669795  0.06390748  1
  O2-  O130  1  0.74627925  0.50435547  0.39984785  1
  O2-  O131  1  0.75446482  0.50380995  0.72751238  1
  O2-  O132  1  0.00130022  0.24929413  0.27470616  1
  O2-  O133  1  0.00056991  0.25040479  0.59881664  1
  O2-  O134  1  0.00773168  0.25017439  0.94261094  1
  O2-  O135  1  -0.00011503  0.74924082  0.27513701  1
  O2-  O136  1  0.00070267  0.74277299  0.60475769  1
  O2-  O137  1  0.00424922  0.74622937  0.94059640  1
  O2-  O138  1  0.49843326  0.25652361  0.27456155  1
  O2-  O139  1  0.49653376  0.25657427  0.60489276  1
  O2-  O140  1  0.50043998  0.24977575  0.93563870  1
  O2-  O141  1  0.49283575  0.75095708  0.26951353  1
  O2-  O142  1  0.50093598  0.75203827  0.60380326  1
  O2-  O143  1  0.49700874  0.74710953  0.94368915  1
  O2-  O144  1  0.06975208  0.17792747  0.09267590  1
  O2-  O145  1  0.07259772  0.18025649  0.42229758  1
  O2-  O146  1  0.07284320  0.18126497  0.76527593  1
  O2-  O147  1  0.07486608  0.67836921  0.08990061  1
  O2-  O148  1  0.07377681  0.67991070  0.42183659  1
  O2-  O149  1  0.07904653  0.68115812  0.75448019  1
  O2-  O150  1  0.57248031  0.17568413  0.09786789  1
  O2-  O151  1  0.57119144  0.17950817  0.43279023  1
  O2-  O152  1  0.56518456  0.17794666  0.76505461  1
  O2-  O153  1  0.57032218  0.68191277  0.09115486  1
  O2-  O154  1  0.56973083  0.68108226  0.42949324  1
  O2-  O155  1  0.56685379  0.67717830  0.76747095  1
  O2-  O156  1  0.17886391  0.43145005  0.23371962  1
  O2-  O157  1  0.17934449  0.42905890  0.57821667  1
  O2-  O158  1  0.17707723  0.43051387  0.90769880  1
  O2-  O159  1  0.17525515  0.92908314  0.24759709  1
  O2-  O160  1  0.17929861  0.92789375  0.57610734  1
  O2-  O161  1  0.17698618  0.93002116  0.90094913  1
  O2-  O162  1  0.68164262  0.42654715  0.23572943  1
  O2-  O163  1  0.67763711  0.42987114  0.57008509  1
  O2-  O164  1  0.68087729  0.42684598  0.90138387  1
  O2-  O165  1  0.68128548  0.92710534  0.24239882  1
  O2-  O166  1  0.68218965  0.93111761  0.56682753  1
  O2-  O167  1  0.67778172  0.92513230  0.90964262  1
  O2-  O168  1  0.42652338  0.32042721  0.09907568  1
  O2-  O169  1  0.42239463  0.31705096  0.42415002  1
  O2-  O170  1  0.42454256  0.32330602  0.75495765  1
  O2-  O171  1  0.43156366  0.81915145  0.09278928  1
  O2-  O172  1  0.42531898  0.82075222  0.41905100  1
  O2-  O173  1  0.42422617  0.81895786  0.76715761  1
  O2-  O174  1  0.93094485  0.32064912  0.10149411  1
  O2-  O175  1  0.93352012  0.31996339  0.42333871  1
  O2-  O176  1  0.93129579  0.32231845  0.76229798  1
  O2-  O177  1  0.92967180  0.82223789  0.10005219  1
  O2-  O178  1  0.93237502  0.82186141  0.42232271  1
  O2-  O179  1  0.93061227  0.82058400  0.76469173  1
  O2-  O180  1  0.31865674  0.06931079  0.23679260  1
  O2-  O181  1  0.32051971  0.07091313  0.57763091  1
  O2-  O182  1  0.32171074  0.06792792  0.90107343  1
  O2-  O183  1  0.31935413  0.57507985  0.24639434  1
  O2-  O184  1  0.31620803  0.57042612  0.57439751  1
  O2-  O185  1  0.31982371  0.57388604  0.89951858  1
  O2-  O186  1  0.82432429  0.06976183  0.23302474  1
  O2-  O187  1  0.82290789  0.06925709  0.57835843  1
  O2-  O188  1  0.82368913  0.06655401  0.90720970  1
  O2-  O189  1  0.82268632  0.57006507  0.23561952  1
  O2-  O190  1  0.82257688  0.57211145  0.57833351  1
  O2-  O191  1  0.81597395  0.57618684  0.89996824  1
  O2-  O192  1  0.04606406  0.08595256  0.27220905  1
  O2-  O193  1  0.04819451  0.08153737  0.59579010  1
  O2-  O194  1  0.04261814  0.08596422  0.93969442  1
  O2-  O195  1  0.04374472  0.58581257  0.27041953  1
  O2-  O196  1  0.05255380  0.58350828  0.60484159  1
  O2-  O197  1  0.05310471  0.58554354  0.93531282  1
  O2-  O198  1  0.54227559  0.08201412  0.26749484  1
  O2-  O199  1  0.53782888  0.08516398  0.59708583  1
  O2-  O200  1  0.54054779  0.07671849  0.93290998  1
  O2-  O201  1  0.53976499  0.58121800  0.26278084  1
  O2-  O202  1  0.53678737  0.58108960  0.59871601  1
  O2-  O203  1  0.54419948  0.58538891  0.94201718  1
  O2-  O204  1  0.16442063  0.20903724  0.27142470  1
  O2-  O205  1  0.17049318  0.21016998  0.59815198  1
  O2-  O206  1  0.16727515  0.19794910  0.94178508  1
  O2-  O207  1  0.16295663  0.70582914  0.26833304  1
  O2-  O208  1  0.16366497  0.70881999  0.59815072  1
  O2-  O209  1  0.16830661  0.70643357  0.93912007  1
  O2-  O210  1  0.67065751  0.20873766  0.26710855  1
  O2-  O211  1  0.66767326  0.20793232  0.60110523  1
  O2-  O212  1  0.66999140  0.20014275  0.92915821  1
  O2-  O213  1  0.66556107  0.71351983  0.26106961  1
  O2-  O214  1  0.66831201  0.70470725  0.59950119  1
  O2-  O215  1  0.66035076  0.70962901  0.93802458  1
  O2-  O216  1  0.08507965  0.45604047  0.06070486  1
  O2-  O217  1  0.08621972  0.46378778  0.40468823  1
  O2-  O218  1  0.08610061  0.45716170  0.73011847  1
  O2-  O219  1  0.07779208  0.95692194  0.06873301  1
  O2-  O220  1  0.08522211  0.95595611  0.40042743  1
  O2-  O221  1  0.08640602  0.95750327  0.72738283  1
  O2-  O222  1  0.58293656  0.45266479  0.06821933  1
  O2-  O223  1  0.57671012  0.45337210  0.39930279  1
  O2-  O224  1  0.58028461  0.45873479  0.73542052  1
  O2-  O225  1  0.58645710  0.95121125  0.06386661  1
  O2-  O226  1  0.58294231  0.94832340  0.39216199  1
  O2-  O227  1  0.58258566  0.96085352  0.73388120  1
  O2-  O228  1  0.19989263  0.33377276  0.05961120  1
  O2-  O229  1  0.20933789  0.33448172  0.40426476  1
  O2-  O230  1  0.20609113  0.33749217  0.73110917  1
  O2-  O231  1  0.20439090  0.83247909  0.07108286  1
  O2-  O232  1  0.19894188  0.83187341  0.39702188  1
  O2-  O233  1  0.20559563  0.83651659  0.72832407  1
  O2-  O234  1  0.71031996  0.32528295  0.06486661  1
  O2-  O235  1  0.71135700  0.33273842  0.40251227  1
  O2-  O236  1  0.71117171  0.33161137  0.73540664  1
  O2-  O237  1  0.70894038  0.83708116  0.06372221  1
  O2-  O238  1  0.70840695  0.83655351  0.39476665  1
  O2-  O239  1  0.70959807  0.83240796  0.73314659  1
  O2-  O240  1  0.44243472  0.41739254  0.27621930  1
  O2-  O241  1  0.44836550  0.41748836  0.60362128  1
  O2-  O242  1  0.45556795  0.42121262  0.93286246  1
  O2-  O243  1  0.45401362  0.91412947  0.26711561  1
  O2-  O244  1  0.45552419  0.92015864  0.59996039  1
  O2-  O245  1  0.45618325  0.90986540  0.93955766  1
  O2-  O246  1  0.96202917  0.41375696  0.27396638  1
  O2-  O247  1  0.95865063  0.42153614  0.59646022  1
  O2-  O248  1  0.95834351  0.41916002  0.93161971  1
  O2-  O249  1  0.96179750  0.91388047  0.27100797  1
  O2-  O250  1  0.96262621  0.91459271  0.59536897  1
  O2-  O251  1  0.95945935  0.91654602  0.93024967  1
  O2-  O252  1  0.33272887  0.29002246  0.27233130  1
  O2-  O253  1  0.33327577  0.29625709  0.60416283  1
  O2-  O254  1  0.32926219  0.29582715  0.93096390  1
  O2-  O255  1  0.33036686  0.79837896  0.26923941  1
  O2-  O256  1  0.33034118  0.79397650  0.59648998  1
  O2-  O257  1  0.33461001  0.79243366  0.94360847  1
  O2-  O258  1  0.84001438  0.29230535  0.27198107  1
  O2-  O259  1  0.83135744  0.29352701  0.59517948  1
  O2-  O260  1  0.83703253  0.28655108  0.93091616  1
  O2-  O261  1  0.83808357  0.79864996  0.26949218  1
  O2-  O262  1  0.83292683  0.79227874  0.59516298  1
  O2-  O263  1  0.83227874  0.78964579  0.93186908  1
  O2-  O264  1  0.41844979  0.03723697  0.06987694  1
  O2-  O265  1  0.41806841  0.03723699  0.40267766  1
  O2-  O266  1  0.41266154  0.04313291  0.72991796  1
  O2-  O267  1  0.41711585  0.53993195  0.07023111  1
  O2-  O268  1  0.41620712  0.55197160  0.39678366  1
  O2-  O269  1  0.41000985  0.54489286  0.72775663  1
  O2-  O270  1  0.91055880  0.03964519  0.06227453  1
  O2-  O271  1  0.91730774  0.03909271  0.40241047  1
  O2-  O272  1  0.91891830  0.04422968  0.72702348  1
  O2-  O273  1  0.92346333  0.55163235  0.06142383  1
  O2-  O274  1  0.91860998  0.54697675  0.40325143  1
  O2-  O275  1  0.91837838  0.55046381  0.72825354  1
  O2-  O276  1  0.29639103  0.17080126  0.06824700  1
  O2-  O277  1  0.28858346  0.16352320  0.40583189  1
  O2-  O278  1  0.29306622  0.16348176  0.72964259  1
  O2-  O279  1  0.29134132  0.66413193  0.07283028  1
  O2-  O280  1  0.29198313  0.66729589  0.39747224  1
  O2-  O281  1  0.28918390  0.66379885  0.72578673  1
  O2-  O282  1  0.79457312  0.16079869  0.05960261  1
  O2-  O283  1  0.79428840  0.16745040  0.40226697  1
  O2-  O284  1  0.80041761  0.16629764  0.72748892  1
  O2-  O285  1  0.78989644  0.66961738  0.06812061  1
  O2-  O286  1  0.79441932  0.67429214  0.39714262  1
  O2-  O287  1  0.79768077  0.66780414  0.72713995  1
