# generated using pymatgen
data_Ca2Al2SiO7
_symmetry_space_group_name_H-M   'P 1'
_cell_length_a   15.46094439
_cell_length_b   15.45928538
_cell_length_c   15.28522441
_cell_angle_alpha   89.99404552
_cell_angle_beta   89.99396602
_cell_angle_gamma   89.97763780
_symmetry_Int_Tables_number   1
_chemical_formula_structural   Ca2Al2SiO7
_chemical_formula_sum   'Ca48 Al48 Si24 O168'
_cell_volume   3653.39991157
_cell_formula_units_Z   24
loop_
 _symmetry_equiv_pos_site_id
 _symmetry_equiv_pos_as_xyz
  1  'x, y, z'
loop_
 _atom_type_symbol
 _atom_type_oxidation_number
  Ca2+  2.0
  Al0+  0.0
  Si0+  0.0
  O2-  -2.0
loop_
 _atom_site_type_symbol
 _atom_site_label
 _atom_site_symmetry_multiplicity
 _atom_site_fract_x
 _atom_site_fract_y
 _atom_site_fract_z
 _atom_site_occupancy
  Ca2+  Ca0  1  0.17421407  0.08164734  0.17793813  1
  Ca2+  Ca1  1  0.16688430  0.08731321  0.50384441  1
  Ca2+  Ca2  1  0.16724239  0.08170174  0.83399355  1
  Ca2+  Ca3  1  0.17023429  0.58387107  0.17382990  1
  Ca2+  Ca4  1  0.15597714  0.57479041  0.50595928  1
  Ca2+  Ca5  1  0.16943571  0.58199213  0.83484712  1
  Ca2+  Ca6  1  0.67060169  0.08107868  0.17484256  1
  Ca2+  Ca7  1  0.68264361  0.07963872  0.50614572  1
  Ca2+  Ca8  1  0.67159286  0.08362906  0.83615017  1
  Ca2+  Ca9  1  0.66223395  0.58051356  0.16476741  1
  Ca2+  Ca10  1  0.67483318  0.58105888  0.51293483  1
  Ca2+  Ca11  1  0.65704265  0.57790143  0.83518514  1
  Ca2+  Ca12  1  0.08236895  0.33308308  0.17383453  1
  Ca2+  Ca13  1  0.08243215  0.32790148  0.49153165  1
  Ca2+  Ca14  1  0.08665381  0.32701777  0.82295585  1
  Ca2+  Ca15  1  0.07366330  0.83438556  0.16760185  1
  Ca2+  Ca16  1  0.07354385  0.82004482  0.49802182  1
  Ca2+  Ca17  1  0.07521933  0.82562308  0.82528940  1
  Ca2+  Ca18  1  0.58743112  0.32502232  0.15721099  1
  Ca2+  Ca19  1  0.57674934  0.34178287  0.50176785  1
  Ca2+  Ca20  1  0.58302199  0.33673806  0.82892420  1
  Ca2+  Ca21  1  0.57299835  0.82827108  0.15884562  1
  Ca2+  Ca22  1  0.57800022  0.83134284  0.50046059  1
  Ca2+  Ca23  1  0.57204885  0.82110421  0.82730557  1
  Ca2+  Ca24  1  0.32833040  0.42736859  0.17200884  1
  Ca2+  Ca25  1  0.32003592  0.41371481  0.50770440  1
  Ca2+  Ca26  1  0.33147876  0.42062681  0.83424775  1
  Ca2+  Ca27  1  0.33948208  0.92037239  0.17611240  1
  Ca2+  Ca28  1  0.33842816  0.91861431  0.50156824  1
  Ca2+  Ca29  1  0.33433654  0.90854818  0.83702730  1
  Ca2+  Ca30  1  0.82874571  0.41377507  0.17177294  1
  Ca2+  Ca31  1  0.83041623  0.42016960  0.50973150  1
  Ca2+  Ca32  1  0.82398416  0.42828741  0.83355375  1
  Ca2+  Ca33  1  0.83564810  0.91771925  0.17397520  1
  Ca2+  Ca34  1  0.85097451  0.92563985  0.50412718  1
  Ca2+  Ca35  1  0.84250774  0.91941050  0.83490993  1
  Ca2+  Ca36  1  0.42217803  0.16564508  0.16230397  1
  Ca2+  Ca37  1  0.41430126  0.17239992  0.49747397  1
  Ca2+  Ca38  1  0.42682498  0.17352386  0.82690069  1
  Ca2+  Ca39  1  0.41589860  0.67608104  0.15718101  1
  Ca2+  Ca40  1  0.42148270  0.67537975  0.49851182  1
  Ca2+  Ca41  1  0.42234239  0.66582557  0.82801129  1
  Ca2+  Ca42  1  0.91668355  0.16929765  0.17005589  1
  Ca2+  Ca43  1  0.92490041  0.16755398  0.49302326  1
  Ca2+  Ca44  1  0.92251140  0.16760463  0.82370313  1
  Ca2+  Ca45  1  0.92186018  0.67539402  0.16440933  1
  Ca2+  Ca46  1  0.92258292  0.66539295  0.49512588  1
  Ca2+  Ca47  1  0.91560604  0.67626143  0.82265363  1
  Al0+  Al48  1  0.00168625  0.00156125  -0.00127994  1
  Al0+  Al49  1  0.00288271  -0.00005026  0.33012770  1
  Al0+  Al50  1  0.00437088  0.00029675  0.66590876  1
  Al0+  Al51  1  -0.00199453  0.49854994  0.00186272  1
  Al0+  Al52  1  -0.00108440  0.49868071  0.32714412  1
  Al0+  Al53  1  -0.00198737  0.49801825  0.67640797  1
  Al0+  Al54  1  0.50201284  0.00113679  -0.00778325  1
  Al0+  Al55  1  0.50124426  0.00039103  0.33669648  1
  Al0+  Al56  1  0.50212462  0.00266398  0.66475045  1
  Al0+  Al57  1  0.49756427  0.49866594  0.00859470  1
  Al0+  Al58  1  0.49849220  0.50002795  0.33371558  1
  Al0+  Al59  1  0.49814531  0.49979489  0.66022840  1
  Al0+  Al60  1  0.24967532  0.24866884  0.00204564  1
  Al0+  Al61  1  0.25116028  0.25126897  0.33519201  1
  Al0+  Al62  1  0.25221445  0.24949082  0.66585057  1
  Al0+  Al63  1  0.24578804  0.75048182  0.00352260  1
  Al0+  Al64  1  0.25197926  0.75145021  0.32779157  1
  Al0+  Al65  1  0.24830402  0.75070842  0.65910345  1
  Al0+  Al66  1  0.75199911  0.25019227  -0.00111805  1
  Al0+  Al67  1  0.74984790  0.24828455  0.33617567  1
  Al0+  Al68  1  0.75060862  0.24830018  0.67614676  1
  Al0+  Al69  1  0.74924910  0.75121075  -0.00622076  1
  Al0+  Al70  1  0.74771537  0.74807931  0.33005860  1
  Al0+  Al71  1  0.74818138  0.75517415  0.66237428  1
  Al0+  Al72  1  0.32249843  0.07068118  0.34786158  1
  Al0+  Al73  1  0.67629007  0.43038707  0.68144053  1
  Al0+  Al74  1  0.82212226  0.06907734  0.34638910  1
  Al0+  Al75  1  0.42587073  0.82179715  0.98553313  1
  Al0+  Al76  1  0.92812643  0.82233633  0.65246727  1
  Al0+  Al77  1  0.57125081  0.67794173  0.65018423  1
  Al0+  Al78  1  0.17947157  0.43255643  0.34695166  1
  Al0+  Al79  1  0.57335292  0.17954248  0.98634525  1
  Al0+  Al80  1  0.43064614  0.32053113  0.65333923  1
  Al0+  Al81  1  0.43241760  0.82166614  0.31895217  1
  Al0+  Al82  1  0.68018873  0.42953462  0.01520323  1
  Al0+  Al83  1  0.06876482  0.67517823  0.65380407  1
  Al0+  Al84  1  0.07134704  0.67664484  0.31705426  1
  Al0+  Al85  1  0.42744274  0.82306128  0.65020403  1
  Al0+  Al86  1  0.07359480  0.17927894  0.31730588  1
  Al0+  Al87  1  0.07188521  0.18040215  0.65378396  1
  Al0+  Al88  1  0.31811963  0.57071485  0.01319416  1
  Al0+  Al89  1  0.92641726  0.32019738  0.31934625  1
  Al0+  Al90  1  0.82108206  0.57510705  0.68078191  1
  Al0+  Al91  1  0.17829662  0.42729268  0.68047424  1
  Al0+  Al92  1  0.82378241  0.06750161  0.68196958  1
  Al0+  Al93  1  0.93022469  0.82173306  0.98543952  1
  Al0+  Al94  1  0.56862038  0.67638067  0.98548485  1
  Al0+  Al95  1  0.92788928  0.82106937  0.31829681  1
  Si0+  Si96  1  0.17892684  0.92714092  0.35152290  1
  Si0+  Si97  1  0.07162941  0.18099195  0.98500680  1
  Si0+  Si98  1  0.67846594  0.92666278  0.34956140  1
  Si0+  Si99  1  0.42699007  0.32039437  0.98569719  1
  Si0+  Si100  1  0.17786466  0.93095743  0.01541058  1
  Si0+  Si101  1  0.57155521  0.67514640  0.31465444  1
  Si0+  Si102  1  0.57018238  0.18134061  0.32077259  1
  Si0+  Si103  1  0.82275881  0.07020019  0.01627898  1
  Si0+  Si104  1  0.32274117  0.57473628  0.35208983  1
  Si0+  Si105  1  0.81878863  0.57013069  0.34519934  1
  Si0+  Si106  1  0.07062695  0.67570641  0.98355737  1
  Si0+  Si107  1  0.31945474  0.57310791  0.68007959  1
  Si0+  Si108  1  0.17582648  0.42450869  0.01840806  1
  Si0+  Si109  1  0.32244405  0.07011157  0.01330550  1
  Si0+  Si110  1  0.32314126  0.07189695  0.68324629  1
  Si0+  Si111  1  0.57503006  0.17874745  0.64828106  1
  Si0+  Si112  1  0.67766106  0.42696454  0.34798717  1
  Si0+  Si113  1  0.82219303  0.57451996  0.01872207  1
  Si0+  Si114  1  0.92689155  0.32035674  0.65402657  1
  Si0+  Si115  1  0.67449614  0.92981872  0.68604614  1
  Si0+  Si116  1  0.42829126  0.32213437  0.31693864  1
  Si0+  Si117  1  0.18218933  0.92929572  0.68148985  1
  Si0+  Si118  1  0.92829168  0.32146033  0.98313963  1
  Si0+  Si119  1  0.67898275  0.92976388  0.01387534  1
  O2-  O120  1  0.25519702  -0.00382407  0.05639774  1
  O2-  O121  1  0.24697515  -0.00273015  0.39516298  1
  O2-  O122  1  0.25672052  -0.00325113  0.72561566  1
  O2-  O123  1  0.24148057  0.49710131  0.06015347  1
  O2-  O124  1  0.25101386  0.50929659  0.39573321  1
  O2-  O125  1  0.24980617  0.50573606  0.72571046  1
  O2-  O126  1  0.75123973  -0.00066630  0.05788069  1
  O2-  O127  1  0.75403003  -0.01183891  0.39321441  1
  O2-  O128  1  0.74934396  -0.00717661  0.72989663  1
  O2-  O129  1  0.75324579  0.50545668  0.06324119  1
  O2-  O130  1  0.74729784  0.49961754  0.38792755  1
  O2-  O131  1  0.74435737  0.50688678  0.73065003  1
  O2-  O132  1  -0.00135041  0.24856632  0.26748673  1
  O2-  O133  1  -0.00276044  0.25485326  0.60831676  1
  O2-  O134  1  0.00432738  0.25485818  0.94254518  1
  O2-  O135  1  0.00042454  0.75019682  0.26736875  1
  O2-  O136  1  -0.00907844  0.74137313  0.60452196  1
  O2-  O137  1  -0.00030518  0.74197275  0.94006876  1
  O2-  O138  1  0.50070602  0.25232919  0.27534365  1
  O2-  O139  1  0.50824404  0.24936459  0.60470217  1
  O2-  O140  1  0.49826839  0.25459651  0.94136530  1
  O2-  O141  1  0.50286674  0.74405093  0.27140938  1
  O2-  O142  1  0.50027568  0.75168446  0.60119764  1
  O2-  O143  1  0.49396669  0.74623932  0.93643713  1
  O2-  O144  1  0.07262244  0.17944259  0.08952177  1
  O2-  O145  1  0.07348458  0.18184805  0.43060859  1
  O2-  O146  1  0.07163820  0.18019027  0.76791445  1
  O2-  O147  1  0.07064074  0.67707085  0.08906006  1
  O2-  O148  1  0.06727979  0.67390967  0.43024435  1
  O2-  O149  1  0.07342849  0.68015917  0.76767391  1
  O2-  O150  1  0.57161303  0.17861155  0.10020525  1
  O2-  O151  1  0.57005343  0.18357534  0.42544978  1
  O2-  O152  1  0.57222344  0.17737466  0.75413200  1
  O2-  O153  1  0.56813957  0.67987169  0.09943546  1
  O2-  O154  1  0.57204009  0.67350752  0.41976849  1
  O2-  O155  1  0.56576411  0.67562676  0.76364733  1
  O2-  O156  1  0.18418774  0.43243468  0.23339694  1
  O2-  O157  1  0.17961844  0.42500039  0.56760437  1
  O2-  O158  1  0.17763744  0.42023541  0.91304465  1
  O2-  O159  1  0.18035960  0.92916667  0.24515678  1
  O2-  O160  1  0.18145551  0.93175457  0.57688555  1
  O2-  O161  1  0.17541245  0.93415234  0.91027247  1
  O2-  O162  1  0.67752059  0.42534692  0.24280069  1
  O2-  O163  1  0.67940098  0.42916866  0.56722981  1
  O2-  O164  1  0.68164013  0.42873108  0.90283050  1
  O2-  O165  1  0.67526319  0.93104193  0.24351705  1
  O2-  O166  1  0.66825471  0.93574036  0.58071840  1
  O2-  O167  1  0.67889019  0.93281860  0.90926774  1
  O2-  O168  1  0.42543480  0.31609582  0.09159125  1
  O2-  O169  1  0.42930861  0.32233869  0.42185034  1
  O2-  O170  1  0.42942367  0.31734273  0.76681425  1
  O2-  O171  1  0.43024539  0.82457001  0.09916325  1
  O2-  O172  1  0.43559843  0.82250148  0.43150871  1
  O2-  O173  1  0.42710664  0.82112415  0.76372830  1
  O2-  O174  1  0.92595614  0.31929125  0.08809170  1
  O2-  O175  1  0.92434548  0.31976789  0.43266476  1
  O2-  O176  1  0.92861295  0.31697320  0.76014688  1
  O2-  O177  1  0.93260296  0.82429650  0.09839349  1
  O2-  O178  1  0.92938374  0.81876551  0.43108144  1
  O2-  O179  1  0.93555365  0.82445348  0.76633331  1
  O2-  O180  1  0.32453544  0.06906323  0.23383746  1
  O2-  O181  1  0.32150391  0.07340354  0.57832618  1
  O2-  O182  1  0.31891501  0.07394668  0.90843826  1
  O2-  O183  1  0.32472538  0.57105976  0.24617798  1
  O2-  O184  1  0.31911339  0.57152510  0.57459955  1
  O2-  O185  1  0.31741150  0.56835724  0.89993894  1
  O2-  O186  1  0.81619602  0.07124439  0.23273116  1
  O2-  O187  1  0.82365093  0.06813782  0.56888350  1
  O2-  O188  1  0.82484154  0.06931851  0.91129827  1
  O2-  O189  1  0.81584365  0.57055337  0.23995599  1
  O2-  O190  1  0.82264102  0.56849541  0.56653423  1
  O2-  O191  1  0.82502904  0.57264059  0.91380875  1
  O2-  O192  1  0.04959358  0.08019499  0.26420805  1
  O2-  O193  1  0.04272676  0.08440320  0.59996758  1
  O2-  O194  1  0.04096780  0.09065500  0.93646018  1
  O2-  O195  1  0.04151517  0.58051269  0.26062868  1
  O2-  O196  1  0.04359739  0.57402692  0.60550369  1
  O2-  O197  1  0.04979764  0.57954120  0.94054203  1
  O2-  O198  1  0.54202213  0.08952354  0.27356981  1
  O2-  O199  1  0.54667697  0.08720043  0.60069576  1
  O2-  O200  1  0.54218918  0.08576122  0.92835078  1
  O2-  O201  1  0.54545686  0.58099855  0.26887626  1
  O2-  O202  1  0.54275035  0.58094104  0.59477582  1
  O2-  O203  1  0.53987926  0.57601089  0.93732182  1
  O2-  O204  1  0.17137537  0.21160378  0.26392732  1
  O2-  O205  1  0.16864565  0.20913362  0.60098919  1
  O2-  O206  1  0.16486173  0.20538443  0.93757449  1
  O2-  O207  1  0.17043998  0.70469872  0.26522463  1
  O2-  O208  1  0.16418326  0.70736975  0.59769062  1
  O2-  O209  1  0.16293334  0.70479531  0.93776639  1
  O2-  O210  1  0.66128212  0.20856724  0.27173563  1
  O2-  O211  1  0.67048164  0.20208831  0.60592152  1
  O2-  O212  1  0.66995394  0.20916815  0.93249562  1
  O2-  O213  1  0.66453604  0.69965273  0.26704031  1
  O2-  O214  1  0.66912896  0.70670527  0.59629226  1
  O2-  O215  1  0.66661098  0.70474839  0.93286580  1
  O2-  O216  1  0.08022802  0.44607149  0.06241995  1
  O2-  O217  1  0.07953837  0.45749414  0.39706524  1
  O2-  O218  1  0.08232350  0.45165972  0.73854272  1
  O2-  O219  1  0.08974463  0.96744035  0.06528058  1
  O2-  O220  1  0.08517221  0.95192957  0.39646172  1
  O2-  O221  1  0.09358843  0.96237293  0.73237775  1
  O2-  O222  1  0.58278620  0.45429863  0.07160392  1
  O2-  O223  1  0.58439283  0.45350254  0.39370194  1
  O2-  O224  1  0.57540596  0.45550746  0.73176907  1
  O2-  O225  1  0.58731054  0.96068020  0.06127228  1
  O2-  O226  1  0.58950561  0.96104136  0.39915586  1
  O2-  O227  1  0.58399706  0.96301988  0.73534905  1
  O2-  O228  1  0.20531275  0.33218982  0.06619763  1
  O2-  O229  1  0.21379492  0.33674238  0.40010921  1
  O2-  O230  1  0.21602031  0.33257530  0.73572402  1
  O2-  O231  1  0.19610308  0.83739854  0.06292621  1
  O2-  O232  1  0.20651960  0.83346453  0.39581421  1
  O2-  O233  1  0.20738001  0.83635382  0.72888039  1
  O2-  O234  1  0.71476192  0.33250143  0.06857102  1
  O2-  O235  1  0.70494175  0.33621007  0.39674594  1
  O2-  O236  1  0.70506594  0.33253642  0.73597272  1
  O2-  O237  1  0.70480008  0.83710586  0.06084820  1
  O2-  O238  1  0.69483779  0.82962175  0.39148229  1
  O2-  O239  1  0.69233268  0.83356714  0.72832218  1
  O2-  O240  1  0.45490348  0.41468029  0.26985113  1
  O2-  O241  1  0.45612469  0.41571248  0.59474124  1
  O2-  O242  1  0.45052978  0.41486980  0.94293476  1
  O2-  O243  1  0.46597940  0.91863101  0.26602786  1
  O2-  O244  1  0.45671647  0.92290670  0.60019761  1
  O2-  O245  1  0.45581504  0.91886108  0.93133317  1
  O2-  O246  1  0.95404630  0.41649654  0.26188424  1
  O2-  O247  1  0.94885810  0.41544873  0.61160514  1
  O2-  O248  1  0.95095219  0.41546843  0.93780786  1
  O2-  O249  1  0.95699614  0.91918347  0.26447783  1
  O2-  O250  1  0.97045414  0.91567582  0.59926984  1
  O2-  O251  1  0.96633859  0.91766969  0.93258183  1
  O2-  O252  1  0.33832321  0.29274503  0.26841184  1
  O2-  O253  1  0.33703621  0.28372643  0.59777302  1
  O2-  O254  1  0.33422754  0.29190215  0.93886551  1
  O2-  O255  1  0.33469933  0.79690541  0.26461890  1
  O2-  O256  1  0.32985489  0.79658592  0.59561042  1
  O2-  O257  1  0.32385830  0.79892144  0.93824434  1
  O2-  O258  1  0.82850040  0.28841688  0.26488420  1
  O2-  O259  1  0.83328038  0.29309457  0.60971190  1
  O2-  O260  1  0.83970586  0.28837931  0.93405966  1
  O2-  O261  1  0.82839197  0.79350577  0.26564737  1
  O2-  O262  1  0.82528930  0.81392091  0.60392802  1
  O2-  O263  1  0.83221740  0.79775806  0.93212123  1
  O2-  O264  1  0.41642356  0.04591175  0.05856939  1
  O2-  O265  1  0.41845782  0.04026925  0.40358553  1
  O2-  O266  1  0.41725709  0.04972670  0.72893974  1
  O2-  O267  1  0.41184535  0.53884312  0.07285287  1
  O2-  O268  1  0.41575564  0.54516228  0.39777569  1
  O2-  O269  1  0.41208972  0.54333462  0.72530494  1
  O2-  O270  1  0.91496665  0.04238337  0.06335790  1
  O2-  O271  1  0.92175096  0.04444427  0.39707706  1
  O2-  O272  1  0.92115730  0.03733776  0.73629781  1
  O2-  O273  1  0.91561830  0.54684087  0.06567471  1
  O2-  O274  1  0.91076856  0.54163099  0.39045548  1
  O2-  O275  1  0.91536303  0.54265907  0.74051072  1
  O2-  O276  1  0.29206464  0.16068242  0.06306578  1
  O2-  O277  1  0.29367705  0.16806434  0.40070239  1
  O2-  O278  1  0.29077585  0.16101548  0.73310805  1
  O2-  O279  1  0.28788601  0.66752720  0.06906255  1
  O2-  O280  1  0.30259400  0.67088929  0.39378176  1
  O2-  O281  1  0.29495916  0.66746374  0.72539364  1
  O2-  O282  1  0.79461223  0.16232581  0.06229621  1
  O2-  O283  1  0.78558754  0.16320697  0.40202120  1
  O2-  O284  1  0.79267701  0.16295854  0.73905554  1
  O2-  O285  1  0.79591752  0.66906276  0.06287066  1
  O2-  O286  1  0.79156692  0.66186583  0.39326163  1
  O2-  O287  1  0.79890360  0.67740147  0.72805779  1
