# generated using pymatgen
data_Ca2Al2SiO7
_symmetry_space_group_name_H-M   'P 1'
_cell_length_a   15.46199695
_cell_length_b   15.46202103
_cell_length_c   15.28654092
_cell_angle_alpha   90.02032050
_cell_angle_beta   89.99721781
_cell_angle_gamma   89.97392340
_symmetry_Int_Tables_number   1
_chemical_formula_structural   Ca2Al2SiO7
_chemical_formula_sum   'Ca48 Al48 Si24 O168'
_cell_volume   3654.60962338
_cell_formula_units_Z   24
loop_
 _symmetry_equiv_pos_site_id
 _symmetry_equiv_pos_as_xyz
  1  'x, y, z'
loop_
 _atom_type_symbol
 _atom_type_oxidation_number
  Ca2+  2.0
  Al0+  0.0
  Si0+  0.0
  O2-  -2.0
loop_
 _atom_site_type_symbol
 _atom_site_label
 _atom_site_symmetry_multiplicity
 _atom_site_fract_x
 _atom_site_fract_y
 _atom_site_fract_z
 _atom_site_occupancy
  Ca2+  Ca0  1  0.17416674  0.08392663  0.16396906  1
  Ca2+  Ca1  1  0.17108464  0.07993453  0.50271946  1
  Ca2+  Ca2  1  0.17213744  0.07249810  0.84173164  1
  Ca2+  Ca3  1  0.16594235  0.57557482  0.16672399  1
  Ca2+  Ca4  1  0.16517306  0.57587875  0.51238681  1
  Ca2+  Ca5  1  0.16126634  0.57268123  0.83596042  1
  Ca2+  Ca6  1  0.66421593  0.07329972  0.16702799  1
  Ca2+  Ca7  1  0.67475130  0.08484371  0.51067601  1
  Ca2+  Ca8  1  0.67126481  0.08163128  0.83667352  1
  Ca2+  Ca9  1  0.65726225  0.58077476  0.16319165  1
  Ca2+  Ca10  1  0.66476348  0.58565949  0.50562064  1
  Ca2+  Ca11  1  0.65880569  0.58368438  0.84193899  1
  Ca2+  Ca12  1  0.09213578  0.31999848  0.15969470  1
  Ca2+  Ca13  1  0.08666634  0.32709997  0.49551196  1
  Ca2+  Ca14  1  0.09256921  0.32802568  0.83196708  1
  Ca2+  Ca15  1  0.07182815  0.84399801  0.15923759  1
  Ca2+  Ca16  1  0.07506621  0.84260451  0.50166644  1
  Ca2+  Ca17  1  0.07864895  0.83876522  0.82570066  1
  Ca2+  Ca18  1  0.57182617  0.33258291  0.15786157  1
  Ca2+  Ca19  1  0.57272861  0.32618657  0.49990293  1
  Ca2+  Ca20  1  0.57274472  0.33139829  0.82733800  1
  Ca2+  Ca21  1  0.57398155  0.83246425  0.15556188  1
  Ca2+  Ca22  1  0.57189767  0.83332201  0.50071479  1
  Ca2+  Ca23  1  0.57618676  0.83109162  0.83175428  1
  Ca2+  Ca24  1  0.33376804  0.41207038  0.16680808  1
  Ca2+  Ca25  1  0.33240014  0.41506972  0.50703371  1
  Ca2+  Ca26  1  0.32910860  0.41250740  0.83900730  1
  Ca2+  Ca27  1  0.33765534  0.92646530  0.17195794  1
  Ca2+  Ca28  1  0.33348197  0.91950167  0.50750611  1
  Ca2+  Ca29  1  0.32768101  0.91586593  0.84317439  1
  Ca2+  Ca30  1  0.82415829  0.41628227  0.16727890  1
  Ca2+  Ca31  1  0.83102397  0.42002982  0.50847422  1
  Ca2+  Ca32  1  0.82268817  0.42226055  0.84243629  1
  Ca2+  Ca33  1  0.82813167  0.90570680  0.16617666  1
  Ca2+  Ca34  1  0.83655245  0.91887476  0.50793824  1
  Ca2+  Ca35  1  0.83191216  0.91547432  0.83801001  1
  Ca2+  Ca36  1  0.40397481  0.17390663  0.16154444  1
  Ca2+  Ca37  1  0.41031281  0.17558325  0.49703917  1
  Ca2+  Ca38  1  0.41448706  0.17443060  0.83114392  1
  Ca2+  Ca39  1  0.41835093  0.68101605  0.15865310  1
  Ca2+  Ca40  1  0.41402799  0.68028384  0.50230748  1
  Ca2+  Ca41  1  0.42471629  0.67606750  0.82985631  1
  Ca2+  Ca42  1  0.93280489  0.16280589  0.16126167  1
  Ca2+  Ca43  1  0.92337525  0.16303319  0.49655806  1
  Ca2+  Ca44  1  0.92298890  0.16125564  0.83054081  1
  Ca2+  Ca45  1  0.91839456  0.67653789  0.16120877  1
  Ca2+  Ca46  1  0.92431285  0.67730728  0.50002181  1
  Ca2+  Ca47  1  0.92221073  0.67944172  0.82816589  1
  Al0+  Al48  1  0.00174148  0.00218756  -0.00567851  1
  Al0+  Al49  1  -0.00073776  -0.00012438  0.32450265  1
  Al0+  Al50  1  0.00108315  0.00206474  0.67023648  1
  Al0+  Al51  1  -0.00158909  0.49934953  0.00729938  1
  Al0+  Al52  1  -0.00288300  0.50013986  0.33433872  1
  Al0+  Al53  1  -0.00141862  0.49999932  0.66919467  1
  Al0+  Al54  1  0.50197842  0.00263081  0.00472485  1
  Al0+  Al55  1  0.50072336  0.00082531  0.33782925  1
  Al0+  Al56  1  0.50356403  0.00171104  0.66167331  1
  Al0+  Al57  1  0.49848085  0.49964849  -0.00117945  1
  Al0+  Al58  1  0.49867685  0.49818764  0.33311622  1
  Al0+  Al59  1  0.49903087  0.49967143  0.65917338  1
  Al0+  Al60  1  0.24902315  0.24900738  -0.00281481  1
  Al0+  Al61  1  0.24968308  0.24836572  0.33093835  1
  Al0+  Al62  1  0.24919989  0.24968955  0.66629174  1
  Al0+  Al63  1  0.24656963  0.74779977  0.00199555  1
  Al0+  Al64  1  0.24860449  0.74812813  0.33013169  1
  Al0+  Al65  1  0.24990265  0.74743577  0.66459320  1
  Al0+  Al66  1  0.75131956  0.25186684  0.00760888  1
  Al0+  Al67  1  0.74909241  0.24964263  0.33463162  1
  Al0+  Al68  1  0.75106074  0.25106485  0.66868037  1
  Al0+  Al69  1  0.75217351  0.75048257  -0.00254437  1
  Al0+  Al70  1  0.75073126  0.74763280  0.33262948  1
  Al0+  Al71  1  0.75133721  0.75097476  0.65966161  1
  Al0+  Al72  1  0.42701969  0.31848743  0.65084592  1
  Al0+  Al73  1  0.57474009  0.17958853  0.65293168  1
  Al0+  Al74  1  0.68147240  0.92907234  0.01242304  1
  Al0+  Al75  1  0.17755416  0.92613549  0.01498514  1
  Al0+  Al76  1  0.07008616  0.18163952  0.98254502  1
  Al0+  Al77  1  0.42690924  0.82321715  0.65342519  1
  Al0+  Al78  1  0.82146003  0.07196728  0.68038149  1
  Al0+  Al79  1  0.43057414  0.31898048  0.31788535  1
  Al0+  Al80  1  0.93160384  0.82050446  0.98474543  1
  Al0+  Al81  1  0.56984946  0.68051545  0.98709878  1
  Al0+  Al82  1  0.93029025  0.81925812  0.31813965  1
  Al0+  Al83  1  0.42831518  0.82245125  0.31938409  1
  Al0+  Al84  1  0.17885980  0.42860747  0.68011324  1
  Al0+  Al85  1  0.32174428  0.06940894  0.01334547  1
  Al0+  Al86  1  0.42616171  0.82536997  0.98657505  1
  Al0+  Al87  1  0.17936523  0.42888515  0.01478450  1
  Al0+  Al88  1  0.06957521  0.18079704  0.31956956  1
  Al0+  Al89  1  0.07114640  0.67596386  0.65312650  1
  Al0+  Al90  1  0.57173957  0.67858509  0.65112190  1
  Al0+  Al91  1  0.32017780  0.07057091  0.34935152  1
  Al0+  Al92  1  0.93190423  0.82357362  0.65137472  1
  Al0+  Al93  1  0.67632601  0.42928604  0.01387383  1
  Al0+  Al94  1  0.42966024  0.31882348  0.98608211  1
  Al0+  Al95  1  0.18164898  0.92859960  0.67835252  1
  Si0+  Si96  1  0.82367523  0.07314860  0.01848692  1
  Si0+  Si97  1  0.57126283  0.67838438  0.31682041  1
  Si0+  Si98  1  0.57542141  0.17785880  0.31562504  1
  Si0+  Si99  1  0.07146896  0.67330096  0.98439940  1
  Si0+  Si100  1  0.57681310  0.17823497  0.98531251  1
  Si0+  Si101  1  0.67864090  0.92684043  0.68252024  1
  Si0+  Si102  1  0.07007130  0.18005214  0.65147743  1
  Si0+  Si103  1  0.82036151  0.57056058  0.35138942  1
  Si0+  Si104  1  0.82163563  0.06985643  0.34684825  1
  Si0+  Si105  1  0.82044691  0.57237768  0.68180573  1
  Si0+  Si106  1  0.67774693  0.42857391  0.35105939  1
  Si0+  Si107  1  0.67875921  0.43109271  0.68060905  1
  Si0+  Si108  1  0.82079754  0.57213154  0.01850981  1
  Si0+  Si109  1  0.32242567  0.57160675  0.01768775  1
  Si0+  Si110  1  0.68011616  0.92710544  0.34995889  1
  Si0+  Si111  1  0.07163552  0.67373469  0.31530810  1
  Si0+  Si112  1  0.32108664  0.57162109  0.34895418  1
  Si0+  Si113  1  0.92623755  0.32347037  0.98416345  1
  Si0+  Si114  1  0.17930442  0.42954306  0.34757466  1
  Si0+  Si115  1  0.32388982  0.57125706  0.68359330  1
  Si0+  Si116  1  0.92538897  0.32418634  0.31693713  1
  Si0+  Si117  1  0.32419330  0.07206767  0.68213159  1
  Si0+  Si118  1  0.92846809  0.32176772  0.65368808  1
  Si0+  Si119  1  0.17618018  0.92734948  0.34863090  1
  O2-  O120  1  0.25581986  -0.00834959  0.06453928  1
  O2-  O121  1  0.24894649  -0.00887463  0.39405227  1
  O2-  O122  1  0.26236151  -0.00307037  0.72475821  1
  O2-  O123  1  0.25261953  0.50378093  0.06294170  1
  O2-  O124  1  0.24756026  0.50221477  0.39079115  1
  O2-  O125  1  0.25355938  0.50317844  0.72664127  1
  O2-  O126  1  0.75551435  0.00382392  0.06256176  1
  O2-  O127  1  0.75084119  -0.00032372  0.39077265  1
  O2-  O128  1  0.74679666  -0.00302228  0.72549546  1
  O2-  O129  1  0.75028056  0.50448873  0.06228634  1
  O2-  O130  1  0.74970887  0.49876058  0.39379981  1
  O2-  O131  1  0.74438681  0.50670037  0.72359760  1
  O2-  O132  1  -0.00504033  0.25686256  0.27350667  1
  O2-  O133  1  -0.00019668  0.25226893  0.60962123  1
  O2-  O134  1  -0.00597374  0.25631610  0.93720111  1
  O2-  O135  1  0.00751427  0.74686049  0.27191074  1
  O2-  O136  1  0.00560999  0.75299556  0.60131474  1
  O2-  O137  1  0.01016924  0.74866124  0.94093448  1
  O2-  O138  1  0.50462101  0.24377077  0.27125227  1
  O2-  O139  1  0.49734473  0.24455655  0.60098642  1
  O2-  O140  1  0.50702418  0.24590229  0.94182080  1
  O2-  O141  1  0.50381822  0.74797284  0.27351428  1
  O2-  O142  1  0.50005889  0.75157094  0.60291456  1
  O2-  O143  1  0.49924269  0.75361299  0.93792545  1
  O2-  O144  1  0.06914192  0.18321629  0.09593754  1
  O2-  O145  1  0.06718245  0.18200082  0.43328371  1
  O2-  O146  1  0.06984130  0.18118268  0.75603012  1
  O2-  O147  1  0.06635799  0.66829890  0.09019001  1
  O2-  O148  1  0.06854642  0.66745188  0.42027554  1
  O2-  O149  1  0.06470014  0.67103174  0.76605619  1
  O2-  O150  1  0.57942850  0.18063444  0.09114201  1
  O2-  O151  1  0.58098994  0.18209417  0.42078820  1
  O2-  O152  1  0.57814120  0.18467847  0.76620425  1
  O2-  O153  1  0.56750568  0.68095539  0.10121042  1
  O2-  O154  1  0.57197277  0.67898175  0.42226462  1
  O2-  O155  1  0.57118472  0.67745232  0.76414384  1
  O2-  O156  1  0.17989667  0.43067084  0.24259617  1
  O2-  O157  1  0.17807700  0.42808038  0.56617266  1
  O2-  O158  1  0.17955635  0.43034695  0.90186074  1
  O2-  O159  1  0.17454940  0.92995498  0.24350441  1
  O2-  O160  1  0.17812099  0.93520337  0.56473921  1
  O2-  O161  1  0.17620583  0.92990928  0.90130292  1
  O2-  O162  1  0.67848130  0.42930924  0.24611463  1
  O2-  O163  1  0.68331565  0.43009604  0.57502551  1
  O2-  O164  1  0.67872015  0.42933840  0.90065845  1
  O2-  O165  1  0.68100381  0.92649754  0.24479761  1
  O2-  O166  1  0.68061886  0.92690676  0.57634724  1
  O2-  O167  1  0.68307562  0.92986100  0.89963555  1
  O2-  O168  1  0.43037080  0.31812938  0.09951918  1
  O2-  O169  1  0.43103304  0.32008179  0.43067634  1
  O2-  O170  1  0.42749945  0.31906462  0.76416966  1
  O2-  O171  1  0.42966074  0.82375490  0.10068817  1
  O2-  O172  1  0.42920321  0.82084356  0.43230131  1
  O2-  O173  1  0.42790983  0.82265906  0.76648712  1
  O2-  O174  1  0.92592011  0.32173242  0.09003106  1
  O2-  O175  1  0.92488711  0.32524190  0.42290112  1
  O2-  O176  1  0.92662014  0.32201547  0.75828374  1
  O2-  O177  1  0.92985612  0.81688917  0.09831699  1
  O2-  O178  1  0.93053023  0.82032504  0.43088497  1
  O2-  O179  1  0.93097638  0.82195130  0.76447519  1
  O2-  O180  1  0.31795681  0.07289430  0.23691887  1
  O2-  O181  1  0.31879812  0.07496004  0.57618170  1
  O2-  O182  1  0.31910469  0.07184990  0.89969301  1
  O2-  O183  1  0.32165036  0.57077977  0.24405748  1
  O2-  O184  1  0.32322332  0.56882886  0.57727811  1
  O2-  O185  1  0.32336617  0.57006935  0.91245888  1
  O2-  O186  1  0.82031936  0.07049165  0.24214064  1
  O2-  O187  1  0.82235234  0.07187039  0.56636555  1
  O2-  O188  1  0.82143938  0.07496399  0.91294747  1
  O2-  O189  1  0.82140622  0.56992849  0.24664774  1
  O2-  O190  1  0.82195634  0.56771793  0.57625923  1
  O2-  O191  1  0.82279619  0.56975647  0.91299436  1
  O2-  O192  1  0.03701756  0.08674859  0.26278523  1
  O2-  O193  1  0.03920883  0.09026923  0.60293114  1
  O2-  O194  1  0.03837747  0.08674681  0.92693353  1
  O2-  O195  1  0.03981585  0.58206687  0.26716706  1
  O2-  O196  1  0.03509883  0.57979937  0.59756575  1
  O2-  O197  1  0.03811517  0.58178886  0.93811762  1
  O2-  O198  1  0.55280269  0.08205814  0.27434262  1
  O2-  O199  1  0.55745073  0.07934358  0.60002809  1
  O2-  O200  1  0.55395210  0.08420756  0.94050602  1
  O2-  O201  1  0.54477711  0.58406047  0.27297015  1
  O2-  O202  1  0.54430177  0.58104663  0.59516333  1
  O2-  O203  1  0.54113390  0.58231089  0.93465614  1
  O2-  O204  1  0.16414542  0.21388365  0.26444118  1
  O2-  O205  1  0.16095633  0.20818647  0.60282506  1
  O2-  O206  1  0.16437188  0.21514399  0.92757673  1
  O2-  O207  1  0.16702854  0.69241406  0.27100863  1
  O2-  O208  1  0.17179745  0.69380685  0.60178958  1
  O2-  O209  1  0.16788867  0.68829346  0.94185625  1
  O2-  O210  1  0.66832035  0.20479761  0.26784953  1
  O2-  O211  1  0.67091220  0.21503117  0.59739427  1
  O2-  O212  1  0.67089216  0.20520959  0.94096503  1
  O2-  O213  1  0.66596979  0.70063343  0.27177823  1
  O2-  O214  1  0.67007516  0.70488669  0.59608209  1
  O2-  O215  1  0.66948111  0.70459473  0.93577912  1
  O2-  O216  1  0.08225014  0.45684847  0.07098485  1
  O2-  O217  1  0.08482606  0.45369894  0.39298330  1
  O2-  O218  1  0.08144722  0.45777853  0.73408450  1
  O2-  O219  1  0.08111259  0.96478354  0.06677796  1
  O2-  O220  1  0.08325843  0.95990267  0.39342777  1
  O2-  O221  1  0.08772851  0.96572257  0.73334161  1
  O2-  O222  1  0.58082786  0.46096986  0.06988339  1
  O2-  O223  1  0.58629561  0.45737149  0.39856538  1
  O2-  O224  1  0.58459587  0.45461531  0.72439727  1
  O2-  O225  1  0.58667275  0.96030594  0.07056400  1
  O2-  O226  1  0.58917965  0.95466876  0.39867418  1
  O2-  O227  1  0.58469598  0.95177911  0.72789151  1
  O2-  O228  1  0.21311667  0.33329040  0.06779884  1
  O2-  O229  1  0.20833768  0.33813125  0.39429965  1
  O2-  O230  1  0.20931657  0.33170170  0.73351160  1
  O2-  O231  1  0.19091314  0.82348126  0.06536408  1
  O2-  O232  1  0.19438896  0.83017304  0.39076630  1
  O2-  O233  1  0.20234107  0.82826594  0.72903469  1
  O2-  O234  1  0.70962676  0.33521514  0.07278828  1
  O2-  O235  1  0.70616052  0.33641324  0.39817140  1
  O2-  O236  1  0.71217004  0.34214951  0.72920269  1
  O2-  O237  1  0.71430777  0.83309108  0.06786561  1
  O2-  O238  1  0.70964218  0.83512878  0.39604257  1
  O2-  O239  1  0.70639952  0.83319821  0.72688401  1
  O2-  O240  1  0.46171675  0.41610416  0.26484602  1
  O2-  O241  1  0.45691957  0.41553493  0.59634489  1
  O2-  O242  1  0.45867470  0.41571718  0.93324168  1
  O2-  O243  1  0.46068179  0.92004395  0.26904022  1
  O2-  O244  1  0.45552225  0.92101553  0.59875416  1
  O2-  O245  1  0.45566447  0.92441544  0.93673787  1
  O2-  O246  1  0.94806538  0.41845942  0.27129109  1
  O2-  O247  1  0.95512401  0.41302315  0.60452482  1
  O2-  O248  1  0.94988406  0.41853686  0.94105233  1
  O2-  O249  1  0.95665340  0.91556219  0.26194047  1
  O2-  O250  1  0.96165871  0.92241461  0.59869004  1
  O2-  O251  1  0.95710195  0.91831941  0.93230135  1
  O2-  O252  1  0.33335067  0.28919448  0.26552938  1
  O2-  O253  1  0.32857412  0.29004271  0.59648663  1
  O2-  O254  1  0.33459613  0.28678427  0.93149130  1
  O2-  O255  1  0.33104654  0.79190163  0.26655026  1
  O2-  O256  1  0.33032835  0.79247635  0.59741149  1
  O2-  O257  1  0.32648817  0.79524882  0.93771713  1
  O2-  O258  1  0.83162882  0.29760314  0.27165936  1
  O2-  O259  1  0.83816238  0.29361144  0.60340944  1
  O2-  O260  1  0.83173671  0.29882149  0.93937402  1
  O2-  O261  1  0.83411244  0.78391452  0.26544281  1
  O2-  O262  1  0.83483509  0.79422962  0.59658333  1
  O2-  O263  1  0.83685195  0.78643730  0.93015346  1
  O2-  O264  1  0.42218053  0.05291887  0.06801594  1
  O2-  O265  1  0.41909864  0.04632963  0.40285927  1
  O2-  O266  1  0.42185413  0.05643264  0.72260902  1
  O2-  O267  1  0.41434891  0.54362066  0.06591849  1
  O2-  O268  1  0.41197060  0.54080971  0.39672442  1
  O2-  O269  1  0.41741225  0.54300043  0.72815696  1
  O2-  O270  1  0.91765498  0.04647752  0.06182573  1
  O2-  O271  1  0.91391754  0.04111512  0.39305969  1
  O2-  O272  1  0.91709479  0.04219160  0.73576929  1
  O2-  O273  1  0.91185829  0.54398301  0.06912958  1
  O2-  O274  1  0.91191666  0.54231053  0.40022245  1
  O2-  O275  1  0.90858258  0.53859612  0.73188961  1
  O2-  O276  1  0.28345970  0.16530718  0.06636243  1
  O2-  O277  1  0.28319916  0.16623845  0.40315819  1
  O2-  O278  1  0.29104967  0.16307361  0.72864966  1
  O2-  O279  1  0.29648937  0.66447641  0.06587605  1
  O2-  O280  1  0.29483727  0.66403032  0.39653706  1
  O2-  O281  1  0.30120790  0.66520966  0.72908641  1
  O2-  O282  1  0.80054651  0.16653462  0.06688501  1
  O2-  O283  1  0.79633071  0.16317276  0.39450459  1
  O2-  O284  1  0.79225162  0.16892543  0.73525946  1
  O2-  O285  1  0.79535772  0.66527407  0.06498877  1
  O2-  O286  1  0.79138093  0.66175192  0.39975675  1
  O2-  O287  1  0.79788644  0.66668489  0.72564120  1
