# generated using pymatgen
data_Ca2Al2SiO7
_symmetry_space_group_name_H-M   'P 1'
_cell_length_a   15.47125537
_cell_length_b   15.46764726
_cell_length_c   15.29295467
_cell_angle_alpha   89.99979816
_cell_angle_beta   90.01415034
_cell_angle_gamma   90.01230590
_symmetry_Int_Tables_number   1
_chemical_formula_structural   Ca2Al2SiO7
_chemical_formula_sum   'Ca48 Al48 Si24 O168'
_cell_volume   3659.66381691
_cell_formula_units_Z   24
loop_
 _symmetry_equiv_pos_site_id
 _symmetry_equiv_pos_as_xyz
  1  'x, y, z'
loop_
 _atom_type_symbol
 _atom_type_oxidation_number
  Ca2+  2.0
  Al0+  0.0
  Si0+  0.0
  O2-  -2.0
loop_
 _atom_site_type_symbol
 _atom_site_label
 _atom_site_symmetry_multiplicity
 _atom_site_fract_x
 _atom_site_fract_y
 _atom_site_fract_z
 _atom_site_occupancy
  Ca2+  Ca0  1  0.16052711  0.07254583  0.16929896  1
  Ca2+  Ca1  1  0.16712563  0.07547423  0.49666557  1
  Ca2+  Ca2  1  0.16206698  0.07677792  0.84382284  1
  Ca2+  Ca3  1  0.15866720  0.57375553  0.17119040  1
  Ca2+  Ca4  1  0.15681421  0.57679014  0.50286701  1
  Ca2+  Ca5  1  0.15805611  0.57689575  0.84043719  1
  Ca2+  Ca6  1  0.67746019  0.08328822  0.17131631  1
  Ca2+  Ca7  1  0.67819786  0.07007948  0.50429952  1
  Ca2+  Ca8  1  0.67669946  0.08233665  0.83930009  1
  Ca2+  Ca9  1  0.67327671  0.57848324  0.16410423  1
  Ca2+  Ca10  1  0.66768713  0.58506359  0.50595171  1
  Ca2+  Ca11  1  0.67354443  0.58184033  0.84452032  1
  Ca2+  Ca12  1  0.08454784  0.32685542  0.15571604  1
  Ca2+  Ca13  1  0.08713626  0.33505762  0.49641384  1
  Ca2+  Ca14  1  0.08271892  0.33397385  0.83482624  1
  Ca2+  Ca15  1  0.08036007  0.83044942  0.15756603  1
  Ca2+  Ca16  1  0.08128928  0.82322755  0.48724745  1
  Ca2+  Ca17  1  0.07984472  0.82483444  0.83417845  1
  Ca2+  Ca18  1  0.57558198  0.32727094  0.15139951  1
  Ca2+  Ca19  1  0.57921958  0.32928997  0.49266096  1
  Ca2+  Ca20  1  0.58497506  0.33153411  0.83757364  1
  Ca2+  Ca21  1  0.58259586  0.83847069  0.16560787  1
  Ca2+  Ca22  1  0.59170275  0.83333290  0.49665512  1
  Ca2+  Ca23  1  0.58468506  0.82990146  0.82553719  1
  Ca2+  Ca24  1  0.32323768  0.41715545  0.17086621  1
  Ca2+  Ca25  1  0.32025646  0.42403669  0.49988188  1
  Ca2+  Ca26  1  0.32396961  0.41693973  0.84053846  1
  Ca2+  Ca27  1  0.31943772  0.92220655  0.17145681  1
  Ca2+  Ca28  1  0.32997514  0.91791401  0.49574280  1
  Ca2+  Ca29  1  0.32522362  0.91660120  0.84036430  1
  Ca2+  Ca30  1  0.83802450  0.41989603  0.16146766  1
  Ca2+  Ca31  1  0.83296517  0.42027747  0.50438734  1
  Ca2+  Ca32  1  0.83106922  0.42398200  0.84886101  1
  Ca2+  Ca33  1  0.83906459  0.92523742  0.17245503  1
  Ca2+  Ca34  1  0.83276446  0.92095625  0.50253130  1
  Ca2+  Ca35  1  0.83519598  0.92405388  0.84050381  1
  Ca2+  Ca36  1  0.42207642  0.16695034  0.15555758  1
  Ca2+  Ca37  1  0.41505814  0.16478813  0.49142653  1
  Ca2+  Ca38  1  0.42053990  0.17290340  0.83538796  1
  Ca2+  Ca39  1  0.41511400  0.66287211  0.16491101  1
  Ca2+  Ca40  1  0.42327286  0.66294267  0.49646606  1
  Ca2+  Ca41  1  0.42458675  0.66656150  0.82839083  1
  Ca2+  Ca42  1  0.91677287  0.16994524  0.15518811  1
  Ca2+  Ca43  1  0.91046059  0.16624710  0.49757107  1
  Ca2+  Ca44  1  0.91539305  0.16672618  0.83839432  1
  Ca2+  Ca45  1  0.92542595  0.67878975  0.16082757  1
  Ca2+  Ca46  1  0.92664185  0.67437802  0.49193647  1
  Ca2+  Ca47  1  0.92306997  0.66684301  0.83502553  1
  Al0+  Al48  1  -0.00164022  -0.00060845  0.00004542  1
  Al0+  Al49  1  0.00044924  0.00227818  0.34052487  1
  Al0+  Al50  1  0.00111544  0.00228514  0.66946268  1
  Al0+  Al51  1  0.00021584  0.50049407  0.00371843  1
  Al0+  Al52  1  -0.00304211  0.49946383  0.33456109  1
  Al0+  Al53  1  -0.00190677  0.49857709  0.66669683  1
  Al0+  Al54  1  0.50005728  -0.00046027  -0.00682163  1
  Al0+  Al55  1  0.50268936  -0.00136443  0.33888612  1
  Al0+  Al56  1  0.49970013  0.00106900  0.66914013  1
  Al0+  Al57  1  0.49962804  0.50028299  -0.00144223  1
  Al0+  Al58  1  0.49820694  0.49837922  0.33504441  1
  Al0+  Al59  1  0.49724585  0.49981223  0.66107214  1
  Al0+  Al60  1  0.25232478  0.25011451  -0.00554123  1
  Al0+  Al61  1  0.24933466  0.25293290  0.33972062  1
  Al0+  Al62  1  0.24888605  0.25115874  0.66843246  1
  Al0+  Al63  1  0.25049327  0.75045100  -0.00080444  1
  Al0+  Al64  1  0.25528425  0.74755428  0.33578096  1
  Al0+  Al65  1  0.25215305  0.74896638  0.66193581  1
  Al0+  Al66  1  0.74869923  0.24947759  -0.00066644  1
  Al0+  Al67  1  0.74800050  0.24933320  0.33582092  1
  Al0+  Al68  1  0.74924955  0.24948896  0.66756366  1
  Al0+  Al69  1  0.75019135  0.75088214  0.00186245  1
  Al0+  Al70  1  0.75083242  0.74785626  0.33075559  1
  Al0+  Al71  1  0.75021361  0.74999591  0.66529336  1
  Al0+  Al72  1  0.07253131  0.67917988  0.98583701  1
  Al0+  Al73  1  0.93024768  0.82271179  0.31897760  1
  Al0+  Al74  1  0.81940082  0.06977278  0.01435016  1
  Al0+  Al75  1  0.92728134  0.82230136  0.98458215  1
  Al0+  Al76  1  0.82307659  0.57384764  0.01714706  1
  Al0+  Al77  1  0.17869906  0.92908908  0.01128787  1
  Al0+  Al78  1  0.57187477  0.17726667  0.98365548  1
  Al0+  Al79  1  0.32427978  0.57102981  0.34904442  1
  Al0+  Al80  1  0.07157364  0.17800986  0.98654880  1
  Al0+  Al81  1  0.17820890  0.92714798  0.34789275  1
  Al0+  Al82  1  0.92948936  0.32161191  0.98627106  1
  Al0+  Al83  1  0.17632240  0.43165154  0.34885354  1
  Al0+  Al84  1  0.42836978  0.32327757  0.98390558  1
  Al0+  Al85  1  0.82252461  0.07351419  0.34877831  1
  Al0+  Al86  1  0.57152204  0.68002094  0.65346819  1
  Al0+  Al87  1  0.67791788  0.42919746  0.01441612  1
  Al0+  Al88  1  0.68086788  0.92696521  0.34722583  1
  Al0+  Al89  1  0.82230594  0.07206361  0.68614531  1
  Al0+  Al90  1  0.17811763  0.43089198  0.68348104  1
  Al0+  Al91  1  0.32140547  0.07122065  0.34501571  1
  Al0+  Al92  1  0.67960015  0.92768961  0.68370720  1
  Al0+  Al93  1  0.07010190  0.67821192  0.65260082  1
  Al0+  Al94  1  0.07442510  0.67753443  0.31769313  1
  Al0+  Al95  1  0.18002411  0.42819309  0.01300275  1
  Si0+  Si96  1  0.32261809  0.57215399  0.68438762  1
  Si0+  Si97  1  0.92997037  0.82382457  0.65024272  1
  Si0+  Si98  1  0.92837208  0.31969118  0.65171900  1
  Si0+  Si99  1  0.81884032  0.56939896  0.34991268  1
  Si0+  Si100  1  0.57052176  0.17984346  0.64872558  1
  Si0+  Si101  1  0.56948894  0.17846522  0.31924671  1
  Si0+  Si102  1  0.67579252  0.42905590  0.67952215  1
  Si0+  Si103  1  0.81915632  0.56927978  0.68014040  1
  Si0+  Si104  1  0.57123088  0.67634448  0.31628921  1
  Si0+  Si105  1  0.18100603  0.92762822  0.68110579  1
  Si0+  Si106  1  0.42892187  0.31997664  0.31863734  1
  Si0+  Si107  1  0.43141683  0.82254366  0.31734066  1
  Si0+  Si108  1  0.32073807  0.07233790  0.68261039  1
  Si0+  Si109  1  0.67774237  0.42916319  0.34836249  1
  Si0+  Si110  1  0.57049905  0.67945700  0.98702250  1
  Si0+  Si111  1  0.67531307  0.92733110  0.01626328  1
  Si0+  Si112  1  0.42852109  0.82400148  0.64782751  1
  Si0+  Si113  1  0.42894696  0.82110766  0.98512173  1
  Si0+  Si114  1  0.07212768  0.18199153  0.32138614  1
  Si0+  Si115  1  0.07257681  0.17885594  0.64992339  1
  Si0+  Si116  1  0.32236372  0.57304756  0.01456902  1
  Si0+  Si117  1  0.42700126  0.31983906  0.64772541  1
  Si0+  Si118  1  0.92507164  0.32005156  0.31961521  1
  Si0+  Si119  1  0.32324676  0.07091271  0.01267068  1
  O2-  O120  1  0.25033231  0.00758240  0.05665448  1
  O2-  O121  1  0.25058703  -0.00028890  0.39799802  1
  O2-  O122  1  0.25124865  -0.00034627  0.72362262  1
  O2-  O123  1  0.25360454  0.50473492  0.05822052  1
  O2-  O124  1  0.24364246  0.50864712  0.39886938  1
  O2-  O125  1  0.25039398  0.50840868  0.72903087  1
  O2-  O126  1  0.74435640  -0.00504781  0.06004729  1
  O2-  O127  1  0.75572549  -0.00422060  0.39685978  1
  O2-  O128  1  0.75206027  -0.00230551  0.73477255  1
  O2-  O129  1  0.75197310  0.49858032  0.06510498  1
  O2-  O130  1  0.74802786  0.49868198  0.39367410  1
  O2-  O131  1  0.74355334  0.50256208  0.72101072  1
  O2-  O132  1  -0.00280721  0.24932963  0.28033706  1
  O2-  O133  1  -0.00094771  0.24847669  0.60892928  1
  O2-  O134  1  0.00256472  0.25193828  0.93420702  1
  O2-  O135  1  0.00902955  0.75695849  0.27012619  1
  O2-  O136  1  0.00010518  0.75690467  0.60578904  1
  O2-  O137  1  -0.00164317  0.74883287  0.93538035  1
  O2-  O138  1  0.49569020  0.24562611  0.27636692  1
  O2-  O139  1  0.49855493  0.24941009  0.60458866  1
  O2-  O140  1  0.50154641  0.25189640  0.93400529  1
  O2-  O141  1  0.50074934  0.74869144  0.27549313  1
  O2-  O142  1  0.50026131  0.75733321  0.60492703  1
  O2-  O143  1  0.50113196  0.75115712  0.94376551  1
  O2-  O144  1  0.07090453  0.17796074  0.10054954  1
  O2-  O145  1  0.07391100  0.18464665  0.42701687  1
  O2-  O146  1  0.07582839  0.17851006  0.75432222  1
  O2-  O147  1  0.07516923  0.68165998  0.09891414  1
  O2-  O148  1  0.06691422  0.67618712  0.43192989  1
  O2-  O149  1  0.06764275  0.67769305  0.76512375  1
  O2-  O150  1  0.56773188  0.17486546  0.09781038  1
  O2-  O151  1  0.56925042  0.18292280  0.42475790  1
  O2-  O152  1  0.57004977  0.18215322  0.75325182  1
  O2-  O153  1  0.56814795  0.67867083  0.09218981  1
  O2-  O154  1  0.57101413  0.67466026  0.42156033  1
  O2-  O155  1  0.56812350  0.67777468  0.76655878  1
  O2-  O156  1  0.17909158  0.42671901  0.23593513  1
  O2-  O157  1  0.17933601  0.43018638  0.57047819  1
  O2-  O158  1  0.18171681  0.42996484  0.89967273  1
  O2-  O159  1  0.17932038  0.93005446  0.23452638  1
  O2-  O160  1  0.18221576  0.92867506  0.57619001  1
  O2-  O161  1  0.18357315  0.92785073  0.89755925  1
  O2-  O162  1  0.67687592  0.42968665  0.24416789  1
  O2-  O163  1  0.67817378  0.42832978  0.57367346  1
  O2-  O164  1  0.67685945  0.43482300  0.90011041  1
  O2-  O165  1  0.67611744  0.93125833  0.23410871  1
  O2-  O166  1  0.68105327  0.92880915  0.57027735  1
  O2-  O167  1  0.67358811  0.92700996  0.91083615  1
  O2-  O168  1  0.42887727  0.32108225  0.09793641  1
  O2-  O169  1  0.43262176  0.31971096  0.42425628  1
  O2-  O170  1  0.42774880  0.31973613  0.75224402  1
  O2-  O171  1  0.42939619  0.82263372  0.09007122  1
  O2-  O172  1  0.43401836  0.82474889  0.42237629  1
  O2-  O173  1  0.42631329  0.82217304  0.75365700  1
  O2-  O174  1  0.93091184  0.31919813  0.10030609  1
  O2-  O175  1  0.92252782  0.32022063  0.42537468  1
  O2-  O176  1  0.92765784  0.32211546  0.75583264  1
  O2-  O177  1  0.92922328  0.82324323  0.09789875  1
  O2-  O178  1  0.92834673  0.81776589  0.43323118  1
  O2-  O179  1  0.93042920  0.82283094  0.75549182  1
  O2-  O180  1  0.32218603  0.07063807  0.23183884  1
  O2-  O181  1  0.32041704  0.07314638  0.57750780  1
  O2-  O182  1  0.32505811  0.06610527  0.90665412  1
  O2-  O183  1  0.33487585  0.56218397  0.23651997  1
  O2-  O184  1  0.32637602  0.56914723  0.57928599  1
  O2-  O185  1  0.32423949  0.57392493  0.90878804  1
  O2-  O186  1  0.81837998  0.07990098  0.23601265  1
  O2-  O187  1  0.81952005  0.07392977  0.57259673  1
  O2-  O188  1  0.81831575  0.06829057  0.90150436  1
  O2-  O189  1  0.81744608  0.56799661  0.24560141  1
  O2-  O190  1  0.81883448  0.56590467  0.57454193  1
  O2-  O191  1  0.81846570  0.57410213  0.90265989  1
  O2-  O192  1  0.04960474  0.08769129  0.27786086  1
  O2-  O193  1  0.04642349  0.08626949  0.60250358  1
  O2-  O194  1  0.04045906  0.08139741  0.93193901  1
  O2-  O195  1  0.03703458  0.58038010  0.26744526  1
  O2-  O196  1  0.03344517  0.58261525  0.59926421  1
  O2-  O197  1  0.04344509  0.58050714  0.93489297  1
  O2-  O198  1  0.54532614  0.08527581  0.27426225  1
  O2-  O199  1  0.54219532  0.08712771  0.60333874  1
  O2-  O200  1  0.54029953  0.08105658  0.92685874  1
  O2-  O201  1  0.54092520  0.58459836  0.27006383  1
  O2-  O202  1  0.53917205  0.58371571  0.59714365  1
  O2-  O203  1  0.54201754  0.58935765  0.93696798  1
  O2-  O204  1  0.16264693  0.21342361  0.27392332  1
  O2-  O205  1  0.16342520  0.20971947  0.60163816  1
  O2-  O206  1  0.17090146  0.20105629  0.93268710  1
  O2-  O207  1  0.17871700  0.69262273  0.27280054  1
  O2-  O208  1  0.16934623  0.70343693  0.60065565  1
  O2-  O209  1  0.17045354  0.70910244  0.93103398  1
  O2-  O210  1  0.65998896  0.21080597  0.27241953  1
  O2-  O211  1  0.66163233  0.21051831  0.60102070  1
  O2-  O212  1  0.66857042  0.20682222  0.92936676  1
  O2-  O213  1  0.66281374  0.70207668  0.26839535  1
  O2-  O214  1  0.66913717  0.70569764  0.59767301  1
  O2-  O215  1  0.66229856  0.70566217  0.93978231  1
  O2-  O216  1  0.08379130  0.45574434  0.06786013  1
  O2-  O217  1  0.07607988  0.45474575  0.40234536  1
  O2-  O218  1  0.07950713  0.45860171  0.73434999  1
  O2-  O219  1  0.08317447  0.95869701  0.06556157  1
  O2-  O220  1  0.08275512  0.95746431  0.40544553  1
  O2-  O221  1  0.08936905  0.95581012  0.72755274  1
  O2-  O222  1  0.58036574  0.46118840  0.06782095  1
  O2-  O223  1  0.58691829  0.45692000  0.39775968  1
  O2-  O224  1  0.58215233  0.45370342  0.72352806  1
  O2-  O225  1  0.58062736  0.95347523  0.06042282  1
  O2-  O226  1  0.58498281  0.95782217  0.40434169  1
  O2-  O227  1  0.57925253  0.95540484  0.73380208  1
  O2-  O228  1  0.21249725  0.33072793  0.06480985  1
  O2-  O229  1  0.21075095  0.33645808  0.40585200  1
  O2-  O230  1  0.21155257  0.33401330  0.73486027  1
  O2-  O231  1  0.21537259  0.83505863  0.06593679  1
  O2-  O232  1  0.20940919  0.82948039  0.40032864  1
  O2-  O233  1  0.21114434  0.83580331  0.72715162  1
  O2-  O234  1  0.70131047  0.32977380  0.06581028  1
  O2-  O235  1  0.70508656  0.33784426  0.39748583  1
  O2-  O236  1  0.70497600  0.33805878  0.72600114  1
  O2-  O237  1  0.69701817  0.83323878  0.06215556  1
  O2-  O238  1  0.70442589  0.82593959  0.39769717  1
  O2-  O239  1  0.70337474  0.82657450  0.73358551  1
  O2-  O240  1  0.46194837  0.40970202  0.27144407  1
  O2-  O241  1  0.45467797  0.41134997  0.59933176  1
  O2-  O242  1  0.45679920  0.42152957  0.92955208  1
  O2-  O243  1  0.46322339  0.91311974  0.26937539  1
  O2-  O244  1  0.45078453  0.91945964  0.60379944  1
  O2-  O245  1  0.45498554  0.91123191  0.93346521  1
  O2-  O246  1  0.95032998  0.41279632  0.27417043  1
  O2-  O247  1  0.95623776  0.41070205  0.60174942  1
  O2-  O248  1  0.95465986  0.42122700  0.93482066  1
  O2-  O249  1  0.95132333  0.92586491  0.27322122  1
  O2-  O250  1  0.95444214  0.91879422  0.60609323  1
  O2-  O251  1  0.95851671  0.91842300  0.93002860  1
  O2-  O252  1  0.33490659  0.29664396  0.27472061  1
  O2-  O253  1  0.33544235  0.28973130  0.60091046  1
  O2-  O254  1  0.33318073  0.29257657  0.92627459  1
  O2-  O255  1  0.33947191  0.79742333  0.26935529  1
  O2-  O256  1  0.33699905  0.79550514  0.59909982  1
  O2-  O257  1  0.33922123  0.79154190  0.93481934  1
  O2-  O258  1  0.83323947  0.29259486  0.27213067  1
  O2-  O259  1  0.83589247  0.29309429  0.60287323  1
  O2-  O260  1  0.83066642  0.29466972  0.93375880  1
  O2-  O261  1  0.83341799  0.78826230  0.26601024  1
  O2-  O262  1  0.83674866  0.79568816  0.60483586  1
  O2-  O263  1  0.82771977  0.79489411  0.93251793  1
  O2-  O264  1  0.41496283  0.03949731  0.05921511  1
  O2-  O265  1  0.41854533  0.04205512  0.40120752  1
  O2-  O266  1  0.41293093  0.04692141  0.72998214  1
  O2-  O267  1  0.41600017  0.54838261  0.06048845  1
  O2-  O268  1  0.41879280  0.53287189  0.40689434  1
  O2-  O269  1  0.41524376  0.54107750  0.73055419  1
  O2-  O270  1  0.91575595  0.03990794  0.06822194  1
  O2-  O271  1  0.92139283  0.05319666  0.40375092  1
  O2-  O272  1  0.92325037  0.04831814  0.73588228  1
  O2-  O273  1  0.91978749  0.54528129  0.07165891  1
  O2-  O274  1  0.90876645  0.53967854  0.39976403  1
  O2-  O275  1  0.90797163  0.53598693  0.72857042  1
  O2-  O276  1  0.30570296  0.16689458  0.05476717  1
  O2-  O277  1  0.29364459  0.16868077  0.40098868  1
  O2-  O278  1  0.29181460  0.16352217  0.72963254  1
  O2-  O279  1  0.29940371  0.66687660  0.06101377  1
  O2-  O280  1  0.31301373  0.67329166  0.39889549  1
  O2-  O281  1  0.30392308  0.66876662  0.72688120  1
  O2-  O282  1  0.78900791  0.16657892  0.06712372  1
  O2-  O283  1  0.78626991  0.16940858  0.40469962  1
  O2-  O284  1  0.78998195  0.17096356  0.73609623  1
  O2-  O285  1  0.78892254  0.66997204  0.07124322  1
  O2-  O286  1  0.78931935  0.66007766  0.39786818  1
  O2-  O287  1  0.79563683  0.66227680  0.72575530  1
