# generated using pymatgen
data_Ca2Al2SiO7
_symmetry_space_group_name_H-M   'P 1'
_cell_length_a   15.46080237
_cell_length_b   15.46006760
_cell_length_c   15.28583156
_cell_angle_alpha   90.00014778
_cell_angle_beta   90.00170462
_cell_angle_gamma   90.01494599
_symmetry_Int_Tables_number   1
_chemical_formula_structural   Ca2Al2SiO7
_chemical_formula_sum   'Ca48 Al48 Si24 O168'
_cell_volume   3653.69652290
_cell_formula_units_Z   24
loop_
 _symmetry_equiv_pos_site_id
 _symmetry_equiv_pos_as_xyz
  1  'x, y, z'
loop_
 _atom_type_symbol
 _atom_type_oxidation_number
  Ca2+  2.0
  Al0+  0.0
  Si0+  0.0
  O2-  -2.0
loop_
 _atom_site_type_symbol
 _atom_site_label
 _atom_site_symmetry_multiplicity
 _atom_site_fract_x
 _atom_site_fract_y
 _atom_site_fract_z
 _atom_site_occupancy
  Ca2+  Ca0  1  0.17487938  0.07632980  0.17553673  1
  Ca2+  Ca1  1  0.16689014  0.07652242  0.49865817  1
  Ca2+  Ca2  1  0.16732646  0.07050730  0.84309881  1
  Ca2+  Ca3  1  0.16931567  0.57687839  0.17449960  1
  Ca2+  Ca4  1  0.17623657  0.58250666  0.50261098  1
  Ca2+  Ca5  1  0.16514487  0.58760726  0.83322719  1
  Ca2+  Ca6  1  0.66972187  0.08915011  0.17100259  1
  Ca2+  Ca7  1  0.66266518  0.07495933  0.50370704  1
  Ca2+  Ca8  1  0.67517544  0.08384144  0.83609263  1
  Ca2+  Ca9  1  0.66736896  0.57562671  0.17537600  1
  Ca2+  Ca10  1  0.67145102  0.57505172  0.50392487  1
  Ca2+  Ca11  1  0.67639287  0.58441094  0.83414184  1
  Ca2+  Ca12  1  0.09553100  0.32414284  0.16975993  1
  Ca2+  Ca13  1  0.07693914  0.33125185  0.49242225  1
  Ca2+  Ca14  1  0.07639571  0.32703721  0.82478116  1
  Ca2+  Ca15  1  0.08450881  0.83190396  0.15807467  1
  Ca2+  Ca16  1  0.09221003  0.83143419  0.49729227  1
  Ca2+  Ca17  1  0.08617840  0.82965065  0.83007421  1
  Ca2+  Ca18  1  0.57274318  0.32655426  0.16401552  1
  Ca2+  Ca19  1  0.57916518  0.32685753  0.48756115  1
  Ca2+  Ca20  1  0.57944077  0.32589616  0.83439674  1
  Ca2+  Ca21  1  0.57594366  0.84233867  0.16980860  1
  Ca2+  Ca22  1  0.57961838  0.83678145  0.49021996  1
  Ca2+  Ca23  1  0.58200316  0.83680550  0.82855284  1
  Ca2+  Ca24  1  0.33642013  0.42059978  0.17771556  1
  Ca2+  Ca25  1  0.33329899  0.42277372  0.49909001  1
  Ca2+  Ca26  1  0.33746041  0.42245415  0.83723525  1
  Ca2+  Ca27  1  0.32638717  0.92419756  0.17442784  1
  Ca2+  Ca28  1  0.32745482  0.91917840  0.49870634  1
  Ca2+  Ca29  1  0.32123007  0.92083015  0.83884228  1
  Ca2+  Ca30  1  0.82524736  0.41797301  0.17339394  1
  Ca2+  Ca31  1  0.82881558  0.41521469  0.50597024  1
  Ca2+  Ca32  1  0.84227809  0.42204109  0.83256926  1
  Ca2+  Ca33  1  0.83042552  0.91952477  0.16932914  1
  Ca2+  Ca34  1  0.81990111  0.92299622  0.50679965  1
  Ca2+  Ca35  1  0.83370098  0.92580026  0.83877989  1
  Ca2+  Ca36  1  0.42200296  0.16605615  0.16120684  1
  Ca2+  Ca37  1  0.42180391  0.16981119  0.48408057  1
  Ca2+  Ca38  1  0.41626189  0.16533522  0.83570643  1
  Ca2+  Ca39  1  0.40959796  0.67330066  0.16915024  1
  Ca2+  Ca40  1  0.40986626  0.67123480  0.49322036  1
  Ca2+  Ca41  1  0.41638855  0.66755024  0.82646453  1
  Ca2+  Ca42  1  0.92341390  0.16158122  0.16465266  1
  Ca2+  Ca43  1  0.91983351  0.16526647  0.49823218  1
  Ca2+  Ca44  1  0.90867837  0.16892388  0.82672264  1
  Ca2+  Ca45  1  0.92483333  0.67737925  0.15576105  1
  Ca2+  Ca46  1  0.92121386  0.66461086  0.49973533  1
  Ca2+  Ca47  1  0.92770144  0.67203440  0.82655781  1
  Al0+  Al48  1  -0.00251080  -0.00065940  0.00397770  1
  Al0+  Al49  1  -0.00044909  -0.00002606  0.33315023  1
  Al0+  Al50  1  -0.00132732  -0.00121513  0.67270520  1
  Al0+  Al51  1  0.00095452  0.50119482  -0.00105770  1
  Al0+  Al52  1  0.00082710  0.50127603  0.33427309  1
  Al0+  Al53  1  -0.00001871  0.49935079  0.66086963  1
  Al0+  Al54  1  0.50123778  -0.00024771  -0.00426434  1
  Al0+  Al55  1  0.50053430  -0.00088321  0.33092522  1
  Al0+  Al56  1  0.49826573  -0.00046529  0.67006006  1
  Al0+  Al57  1  0.50034275  0.49936608  -0.00380556  1
  Al0+  Al58  1  0.50335319  0.50088657  0.33902034  1
  Al0+  Al59  1  0.49966238  0.50012635  0.67038846  1
  Al0+  Al60  1  0.25014012  0.25153166  -0.00431302  1
  Al0+  Al61  1  0.24805352  0.25121800  0.33468750  1
  Al0+  Al62  1  0.24975053  0.25092493  0.66530251  1
  Al0+  Al63  1  0.25112136  0.74777606  -0.00087164  1
  Al0+  Al64  1  0.25036280  0.74964976  0.33326900  1
  Al0+  Al65  1  0.25079642  0.74946095  0.67035579  1
  Al0+  Al66  1  0.74849401  0.24999115  0.00051673  1
  Al0+  Al67  1  0.75127281  0.25208565  0.33414535  1
  Al0+  Al68  1  0.74711603  0.24917988  0.66431292  1
  Al0+  Al69  1  0.75117484  0.75092076  -0.00301443  1
  Al0+  Al70  1  0.75142404  0.75179398  0.33586560  1
  Al0+  Al71  1  0.74975759  0.74707182  0.67291229  1
  Al0+  Al72  1  0.57189924  0.17769974  0.31839422  1
  Al0+  Al73  1  0.18017539  0.92962047  0.68069278  1
  Al0+  Al74  1  0.32207870  0.07193237  0.34691780  1
  Al0+  Al75  1  0.42845848  0.32332229  0.32056931  1
  Al0+  Al76  1  0.17702361  0.42736620  0.34912262  1
  Al0+  Al77  1  0.42727477  0.32212258  0.98287327  1
  Al0+  Al78  1  0.57195129  0.17788543  0.98208950  1
  Al0+  Al79  1  0.67957995  0.93010347  0.34497688  1
  Al0+  Al80  1  0.82291658  0.56853240  0.68086067  1
  Al0+  Al81  1  0.68073999  0.42884340  0.34680652  1
  Al0+  Al82  1  0.81877888  0.07084271  0.68058428  1
  Al0+  Al83  1  0.81914359  0.07258011  0.01607828  1
  Al0+  Al84  1  0.92830357  0.82308855  0.98305969  1
  Al0+  Al85  1  0.92845420  0.31919819  0.65261610  1
  Al0+  Al86  1  0.42848454  0.81979677  0.32014664  1
  Al0+  Al87  1  0.07159792  0.68139566  0.64951876  1
  Al0+  Al88  1  0.32147659  0.07242873  0.01475686  1
  Al0+  Al89  1  0.07219851  0.67849542  0.98418698  1
  Al0+  Al90  1  0.32154592  0.57087534  0.34727272  1
  Al0+  Al91  1  0.67592026  0.92745418  0.68263479  1
  Al0+  Al92  1  0.17935764  0.92720745  0.01613280  1
  Al0+  Al93  1  0.17731983  0.92863762  0.34819293  1
  Al0+  Al94  1  0.31992128  0.56915327  0.68212104  1
  Al0+  Al95  1  0.06956113  0.17841736  0.32017697  1
  Si0+  Si96  1  0.32178802  0.07478600  0.68293497  1
  Si0+  Si97  1  0.43081018  0.81934470  0.65256697  1
  Si0+  Si98  1  0.82264145  0.07296748  0.34980975  1
  Si0+  Si99  1  0.92621869  0.82254306  0.64869460  1
  Si0+  Si100  1  0.17762471  0.42716895  0.68381066  1
  Si0+  Si101  1  0.32334586  0.56924764  0.01491187  1
  Si0+  Si102  1  0.57155205  0.67731009  0.98486628  1
  Si0+  Si103  1  0.67758173  0.42752431  0.68559819  1
  Si0+  Si104  1  0.07042745  0.17935913  0.98584356  1
  Si0+  Si105  1  0.17726923  0.42971793  0.01280917  1
  Si0+  Si106  1  0.56745816  0.17907432  0.65091430  1
  Si0+  Si107  1  0.57272576  0.67709465  0.65194737  1
  Si0+  Si108  1  0.92753126  0.82060024  0.31971515  1
  Si0+  Si109  1  0.92866446  0.32440368  0.31527210  1
  Si0+  Si110  1  0.07101047  0.67961390  0.31845346  1
  Si0+  Si111  1  0.67926709  0.43105361  0.01421442  1
  Si0+  Si112  1  0.82268098  0.57352847  0.34898206  1
  Si0+  Si113  1  0.07294956  0.17510966  0.65102592  1
  Si0+  Si114  1  0.82204432  0.57154220  0.01485930  1
  Si0+  Si115  1  0.42837403  0.32321847  0.65039375  1
  Si0+  Si116  1  0.67820379  0.92574545  0.01759972  1
  Si0+  Si117  1  0.57515389  0.67924829  0.31857389  1
  Si0+  Si118  1  0.42987807  0.81995942  0.98381774  1
  Si0+  Si119  1  0.92792268  0.32082002  0.98703888  1
  O2-  O120  1  0.24991181  0.00065553  0.06515081  1
  O2-  O121  1  0.24919685  0.00103107  0.39758444  1
  O2-  O122  1  0.24912002  0.01010931  0.72626580  1
  O2-  O123  1  0.25117376  0.49848896  0.05430011  1
  O2-  O124  1  0.25152760  0.49734679  0.39776746  1
  O2-  O125  1  0.24703064  0.49369141  0.73053113  1
  O2-  O126  1  0.74471976  -0.00332306  0.06113494  1
  O2-  O127  1  0.74952697  0.00842184  0.39238321  1
  O2-  O128  1  0.75014426  -0.00338717  0.73251358  1
  O2-  O129  1  0.75009158  0.50222767  0.05740434  1
  O2-  O130  1  0.75652116  0.50269766  0.39304547  1
  O2-  O131  1  0.74896515  0.49360897  0.73006305  1
  O2-  O132  1  -0.00265621  0.25584270  0.27129898  1
  O2-  O133  1  0.00320904  0.24373596  0.60797759  1
  O2-  O134  1  -0.00234733  0.24910036  0.94398374  1
  O2-  O135  1  0.00064021  0.75153553  0.27754722  1
  O2-  O136  1  -0.00328392  0.75647201  0.60237032  1
  O2-  O137  1  0.00292295  0.75307086  0.93415758  1
  O2-  O138  1  0.49640900  0.24753916  0.27000066  1
  O2-  O139  1  0.49497037  0.24837541  0.60884259  1
  O2-  O140  1  0.49590616  0.24668513  0.93269756  1
  O2-  O141  1  0.50468509  0.74537141  0.27324942  1
  O2-  O142  1  0.50553748  0.75165933  0.61070576  1
  O2-  O143  1  0.50233192  0.74964828  0.94196168  1
  O2-  O144  1  0.07129249  0.18209486  0.09069465  1
  O2-  O145  1  0.06405866  0.17613054  0.43323419  1
  O2-  O146  1  0.07467317  0.17797867  0.75703852  1
  O2-  O147  1  0.06866820  0.67466980  0.09805553  1
  O2-  O148  1  0.07008434  0.67905904  0.42347527  1
  O2-  O149  1  0.07092471  0.68223817  0.76245132  1
  O2-  O150  1  0.57475368  0.18241361  0.09508901  1
  O2-  O151  1  0.57206059  0.17925665  0.43275969  1
  O2-  O152  1  0.56766274  0.18062451  0.75578720  1
  O2-  O153  1  0.57118536  0.67365979  0.08964522  1
  O2-  O154  1  0.57830221  0.68171661  0.42414116  1
  O2-  O155  1  0.57014882  0.67507465  0.75754323  1
  O2-  O156  1  0.17382815  0.43249904  0.23495830  1
  O2-  O157  1  0.17946668  0.42667268  0.57887864  1
  O2-  O158  1  0.17430093  0.43099275  0.90772176  1
  O2-  O159  1  0.17713996  0.92789235  0.23503048  1
  O2-  O160  1  0.18375165  0.92910097  0.56794578  1
  O2-  O161  1  0.18201847  0.92755032  0.90212229  1
  O2-  O162  1  0.68230499  0.43204117  0.23312119  1
  O2-  O163  1  0.67710948  0.42969911  0.58011533  1
  O2-  O164  1  0.68057292  0.43336517  0.90906623  1
  O2-  O165  1  0.68427775  0.92520994  0.23226873  1
  O2-  O166  1  0.67388155  0.93010135  0.56898997  1
  O2-  O167  1  0.67971794  0.92361097  0.91207573  1
  O2-  O168  1  0.43082332  0.32943107  0.09543090  1
  O2-  O169  1  0.43353626  0.32344433  0.43476946  1
  O2-  O170  1  0.43028123  0.32430869  0.75537207  1
  O2-  O171  1  0.42965204  0.81846998  0.08865405  1
  O2-  O172  1  0.42923770  0.81795786  0.43358133  1
  O2-  O173  1  0.43155828  0.81725203  0.75817038  1
  O2-  O174  1  0.92747361  0.32276954  0.09175502  1
  O2-  O175  1  0.92814125  0.32440304  0.42082842  1
  O2-  O176  1  0.93110668  0.31935832  0.76658419  1
  O2-  O177  1  0.92494240  0.81804050  0.09725636  1
  O2-  O178  1  0.92401851  0.81810156  0.42454316  1
  O2-  O179  1  0.92678020  0.82045511  0.75400812  1
  O2-  O180  1  0.32161072  0.06946981  0.23354574  1
  O2-  O181  1  0.32515868  0.07408917  0.57782400  1
  O2-  O182  1  0.31725953  0.06994541  0.90042298  1
  O2-  O183  1  0.31862406  0.57232196  0.23308602  1
  O2-  O184  1  0.32113059  0.56868524  0.56977139  1
  O2-  O185  1  0.32550342  0.56902957  0.90972690  1
  O2-  O186  1  0.82401137  0.07072303  0.24413616  1
  O2-  O187  1  0.81651737  0.07107892  0.56704808  1
  O2-  O188  1  0.81732877  0.07486458  0.90322456  1
  O2-  O189  1  0.82113081  0.57368725  0.24280068  1
  O2-  O190  1  0.81945632  0.56778586  0.56779395  1
  O2-  O191  1  0.82237881  0.56906249  0.90997549  1
  O2-  O192  1  0.03615342  0.08308537  0.26398082  1
  O2-  O193  1  0.04648320  0.08125987  0.60648171  1
  O2-  O194  1  0.04331047  0.08675496  0.94073962  1
  O2-  O195  1  0.04231976  0.58806443  0.27020142  1
  O2-  O196  1  0.04050691  0.58456133  0.59645732  1
  O2-  O197  1  0.03944550  0.58107359  0.92994483  1
  O2-  O198  1  0.54853670  0.07877925  0.26508522  1
  O2-  O199  1  0.54031040  0.08584184  0.60570787  1
  O2-  O200  1  0.54866347  0.07806989  0.92872127  1
  O2-  O201  1  0.55171718  0.58479765  0.27393767  1
  O2-  O202  1  0.54193210  0.58571511  0.60505898  1
  O2-  O203  1  0.54260422  0.58755107  0.93398735  1
  O2-  O204  1  0.16575421  0.20873668  0.26514084  1
  O2-  O205  1  0.16662367  0.20096822  0.60475375  1
  O2-  O206  1  0.16004507  0.20861905  0.93499358  1
  O2-  O207  1  0.16236955  0.70600177  0.27027975  1
  O2-  O208  1  0.16942425  0.71316780  0.59821889  1
  O2-  O209  1  0.17253406  0.70190528  0.93236864  1
  O2-  O210  1  0.67084003  0.20949275  0.26774109  1
  O2-  O211  1  0.65836552  0.20751679  0.60273312  1
  O2-  O212  1  0.66821802  0.21477056  0.92821869  1
  O2-  O213  1  0.66806883  0.70587232  0.27041952  1
  O2-  O214  1  0.66652867  0.69898603  0.60615974  1
  O2-  O215  1  0.66383484  0.70367675  0.93712345  1
  O2-  O216  1  0.08710663  0.45934834  0.06278680  1
  O2-  O217  1  0.07907147  0.45881115  0.40241159  1
  O2-  O218  1  0.08402858  0.45428856  0.72835564  1
  O2-  O219  1  0.07951671  0.95251261  0.06601639  1
  O2-  O220  1  0.07861825  0.95625083  0.40134038  1
  O2-  O221  1  0.08200361  0.95360980  0.73456230  1
  O2-  O222  1  0.58805071  0.46157891  0.06089684  1
  O2-  O223  1  0.58748539  0.46099353  0.40532862  1
  O2-  O224  1  0.58600622  0.45730965  0.73323863  1
  O2-  O225  1  0.58274381  0.94892485  0.05980149  1
  O2-  O226  1  0.58234461  0.95583653  0.39891523  1
  O2-  O227  1  0.57839163  0.95774239  0.73703778  1
  O2-  O228  1  0.20260809  0.33683924  0.05832799  1
  O2-  O229  1  0.19827358  0.32853320  0.40282269  1
  O2-  O230  1  0.20083801  0.33231571  0.72991507  1
  O2-  O231  1  0.20927384  0.82768531  0.06630031  1
  O2-  O232  1  0.20799141  0.83078881  0.39991669  1
  O2-  O233  1  0.21735277  0.83608561  0.73611042  1
  O2-  O234  1  0.70834351  0.34044373  0.06158569  1
  O2-  O235  1  0.71212233  0.33362913  0.40332035  1
  O2-  O236  1  0.70067585  0.33300925  0.72958157  1
  O2-  O237  1  0.70464192  0.83196562  0.06371395  1
  O2-  O238  1  0.71281028  0.83489197  0.40154922  1
  O2-  O239  1  0.69817911  0.82687485  0.73339430  1
  O2-  O240  1  0.46238398  0.42152074  0.26896348  1
  O2-  O241  1  0.46044800  0.41433622  0.60435170  1
  O2-  O242  1  0.46234121  0.41878840  0.92730785  1
  O2-  O243  1  0.46080590  0.91418659  0.26355457  1
  O2-  O244  1  0.45480484  0.91292626  0.60674913  1
  O2-  O245  1  0.45627374  0.91085614  0.93403526  1
  O2-  O246  1  0.95207889  0.41917947  0.26957717  1
  O2-  O247  1  0.95882601  0.41444406  0.59642636  1
  O2-  O248  1  0.95779288  0.41226358  0.93912888  1
  O2-  O249  1  0.95265568  0.91281622  0.27251571  1
  O2-  O250  1  0.94843385  0.91816544  0.60543896  1
  O2-  O251  1  0.95294321  0.92323192  0.93239550  1
  O2-  O252  1  0.32672784  0.30461233  0.27180447  1
  O2-  O253  1  0.33388237  0.30151185  0.60561023  1
  O2-  O254  1  0.32794549  0.29879888  0.92773914  1
  O2-  O255  1  0.33368255  0.78612900  0.26344781  1
  O2-  O256  1  0.34088180  0.78678472  0.60584077  1
  O2-  O257  1  0.33970664  0.78848752  0.93523306  1
  O2-  O258  1  0.83514852  0.29899915  0.26920652  1
  O2-  O259  1  0.83052050  0.29082596  0.59919212  1
  O2-  O260  1  0.83639187  0.29522100  0.93846427  1
  O2-  O261  1  0.83775797  0.78965406  0.26922448  1
  O2-  O262  1  0.83217900  0.79255335  0.60486946  1
  O2-  O263  1  0.83061621  0.79184042  0.92925844  1
  O2-  O264  1  0.42205960  0.04422247  0.06219710  1
  O2-  O265  1  0.41988718  0.04152137  0.39960492  1
  O2-  O266  1  0.41273658  0.04423038  0.73151804  1
  O2-  O267  1  0.41543922  0.54185421  0.06186473  1
  O2-  O268  1  0.42128389  0.54918804  0.40022699  1
  O2-  O269  1  0.41705714  0.53939012  0.73720380  1
  O2-  O270  1  0.91553781  0.04287392  0.07062727  1
  O2-  O271  1  0.91328340  0.04175325  0.39764122  1
  O2-  O272  1  0.91810400  0.04825117  0.73451625  1
  O2-  O273  1  0.91288096  0.54183160  0.06311618  1
  O2-  O274  1  0.91659509  0.55025749  0.39419650  1
  O2-  O275  1  0.91926787  0.53600576  0.73438766  1
  O2-  O276  1  0.29485356  0.17318466  0.06299239  1
  O2-  O277  1  0.29520194  0.17029439  0.39959563  1
  O2-  O278  1  0.30115935  0.17040625  0.72769200  1
  O2-  O279  1  0.29664317  0.66127792  0.06161187  1
  O2-  O280  1  0.28900971  0.66733500  0.40118384  1
  O2-  O281  1  0.28954988  0.66491737  0.73736021  1
  O2-  O282  1  0.78900570  0.16969180  0.07023330  1
  O2-  O283  1  0.80359819  0.16868291  0.39323546  1
  O2-  O284  1  0.78664058  0.16895810  0.73334430  1
  O2-  O285  1  0.79410109  0.66371607  0.06106359  1
  O2-  O286  1  0.79544309  0.66532246  0.39706532  1
  O2-  O287  1  0.79117840  0.66316466  0.73801158  1
