# generated using pymatgen
data_Ca2Al2SiO7
_symmetry_space_group_name_H-M   'P 1'
_cell_length_a   15.46111708
_cell_length_b   15.45935088
_cell_length_c   15.28524924
_cell_angle_alpha   90.00307982
_cell_angle_beta   89.98410881
_cell_angle_gamma   89.98349790
_symmetry_Int_Tables_number   1
_chemical_formula_structural   Ca2Al2SiO7
_chemical_formula_sum   'Ca48 Al48 Si24 O168'
_cell_volume   3653.46215210
_cell_formula_units_Z   24
loop_
 _symmetry_equiv_pos_site_id
 _symmetry_equiv_pos_as_xyz
  1  'x, y, z'
loop_
 _atom_type_symbol
 _atom_type_oxidation_number
  Ca2+  2.0
  Al0+  0.0
  Si0+  0.0
  O2-  -2.0
loop_
 _atom_site_type_symbol
 _atom_site_label
 _atom_site_symmetry_multiplicity
 _atom_site_fract_x
 _atom_site_fract_y
 _atom_site_fract_z
 _atom_site_occupancy
  Ca2+  Ca0  1  0.16847103  0.07989477  0.17429630  1
  Ca2+  Ca1  1  0.16501649  0.07718027  0.50291562  1
  Ca2+  Ca2  1  0.18017067  0.08250893  0.83593865  1
  Ca2+  Ca3  1  0.16927973  0.57920931  0.17411201  1
  Ca2+  Ca4  1  0.16145621  0.57630122  0.50602331  1
  Ca2+  Ca5  1  0.17253117  0.58476968  0.83041763  1
  Ca2+  Ca6  1  0.66592133  0.08524739  0.16821125  1
  Ca2+  Ca7  1  0.67500078  0.08001313  0.50843836  1
  Ca2+  Ca8  1  0.67159383  0.08506198  0.83688179  1
  Ca2+  Ca9  1  0.67366508  0.57765051  0.17110562  1
  Ca2+  Ca10  1  0.67216501  0.58711477  0.50169474  1
  Ca2+  Ca11  1  0.66370673  0.57853710  0.83877181  1
  Ca2+  Ca12  1  0.08399006  0.33466675  0.17213446  1
  Ca2+  Ca13  1  0.07983792  0.33366917  0.49146710  1
  Ca2+  Ca14  1  0.07919480  0.33531145  0.82468584  1
  Ca2+  Ca15  1  0.07682760  0.83350571  0.16737230  1
  Ca2+  Ca16  1  0.08105298  0.82323783  0.49135392  1
  Ca2+  Ca17  1  0.07582678  0.82716234  0.82555665  1
  Ca2+  Ca18  1  0.57385037  0.33240937  0.15757177  1
  Ca2+  Ca19  1  0.57300469  0.33101209  0.49442574  1
  Ca2+  Ca20  1  0.57867487  0.33401475  0.83615247  1
  Ca2+  Ca21  1  0.57715256  0.83234668  0.16698020  1
  Ca2+  Ca22  1  0.57097252  0.83056490  0.50101976  1
  Ca2+  Ca23  1  0.57576095  0.82302055  0.82283465  1
  Ca2+  Ca24  1  0.33515872  0.42014596  0.17274870  1
  Ca2+  Ca25  1  0.31977709  0.41795571  0.50676964  1
  Ca2+  Ca26  1  0.33129303  0.42761966  0.83794929  1
  Ca2+  Ca27  1  0.32990815  0.92390107  0.17633713  1
  Ca2+  Ca28  1  0.33042044  0.91567907  0.50528394  1
  Ca2+  Ca29  1  0.34090892  0.92576241  0.83580657  1
  Ca2+  Ca30  1  0.82824353  0.41796123  0.17623147  1
  Ca2+  Ca31  1  0.84300531  0.42151638  0.50240909  1
  Ca2+  Ca32  1  0.82693919  0.41563061  0.83774020  1
  Ca2+  Ca33  1  0.83643438  0.91177065  0.17295881  1
  Ca2+  Ca34  1  0.84167343  0.92000184  0.50641319  1
  Ca2+  Ca35  1  0.84068287  0.91883392  0.83521695  1
  Ca2+  Ca36  1  0.41593163  0.18002602  0.15788029  1
  Ca2+  Ca37  1  0.41115793  0.17135264  0.49429610  1
  Ca2+  Ca38  1  0.41630555  0.16617289  0.83282691  1
  Ca2+  Ca39  1  0.40773640  0.67261612  0.16365081  1
  Ca2+  Ca40  1  0.41491337  0.67074057  0.50034187  1
  Ca2+  Ca41  1  0.41746084  0.66511706  0.82212985  1
  Ca2+  Ca42  1  0.92632845  0.16758184  0.16908549  1
  Ca2+  Ca43  1  0.91989294  0.17707406  0.49513284  1
  Ca2+  Ca44  1  0.91719057  0.17279449  0.82408437  1
  Ca2+  Ca45  1  0.92104469  0.66944689  0.16801049  1
  Ca2+  Ca46  1  0.92810183  0.67032281  0.49240621  1
  Ca2+  Ca47  1  0.92100639  0.67777773  0.82245773  1
  Al0+  Al48  1  -0.00016455  0.00086739  -0.00438519  1
  Al0+  Al49  1  0.00106106  0.00068996  0.33164153  1
  Al0+  Al50  1  0.00098847  0.00273718  0.67130593  1
  Al0+  Al51  1  0.00141674  0.50110884  -0.00124854  1
  Al0+  Al52  1  -0.00061624  0.50064751  0.33163112  1
  Al0+  Al53  1  -0.00276389  0.50018902  0.66713155  1
  Al0+  Al54  1  0.50209440  0.00140467  0.00232017  1
  Al0+  Al55  1  0.50186108  -0.00126765  0.33097268  1
  Al0+  Al56  1  0.50229675  -0.00078367  0.66762152  1
  Al0+  Al57  1  0.49966707  0.50005792  0.00612695  1
  Al0+  Al58  1  0.50235869  0.49999430  0.33111674  1
  Al0+  Al59  1  0.50031880  0.49793740  0.66373951  1
  Al0+  Al60  1  0.24940839  0.25074071  -0.00103952  1
  Al0+  Al61  1  0.25131542  0.25137210  0.32848994  1
  Al0+  Al62  1  0.24921363  0.24863350  0.67572670  1
  Al0+  Al63  1  0.24758924  0.75029657  0.00243202  1
  Al0+  Al64  1  0.25042604  0.75160058  0.32871520  1
  Al0+  Al65  1  0.24893113  0.74919190  0.66396478  1
  Al0+  Al66  1  0.74939450  0.24892757  0.00294152  1
  Al0+  Al67  1  0.74925742  0.24910717  0.33232376  1
  Al0+  Al68  1  0.74997501  0.24891985  0.66665537  1
  Al0+  Al69  1  0.74989192  0.75183363  -0.00377512  1
  Al0+  Al70  1  0.74846195  0.74949953  0.33574207  1
  Al0+  Al71  1  0.74779255  0.75010233  0.66075697  1
  Al0+  Al72  1  0.17886296  0.92931097  0.34687778  1
  Al0+  Al73  1  0.17555011  0.42877339  0.68253254  1
  Al0+  Al74  1  0.82138984  0.07056372  0.68066896  1
  Al0+  Al75  1  0.42750759  0.32327165  0.98207667  1
  Al0+  Al76  1  0.31998944  0.57124246  0.01444908  1
  Al0+  Al77  1  0.57164452  0.17869571  0.98354031  1
  Al0+  Al78  1  0.32293341  0.06967345  0.67961429  1
  Al0+  Al79  1  0.68085586  0.42881907  0.01435706  1
  Al0+  Al80  1  0.92893492  0.82033805  0.98456168  1
  Al0+  Al81  1  0.92924438  0.82423434  0.65132993  1
  Al0+  Al82  1  0.92820440  0.82118807  0.31909540  1
  Al0+  Al83  1  0.07053075  0.67867718  0.65131284  1
  Al0+  Al84  1  0.18139349  0.42967125  0.34581141  1
  Al0+  Al85  1  0.32160898  0.57050002  0.67909988  1
  Al0+  Al86  1  0.57051368  0.67416872  0.65089724  1
  Al0+  Al87  1  0.32242924  0.07074944  0.01592434  1
  Al0+  Al88  1  0.07182086  0.17904032  0.31946140  1
  Al0+  Al89  1  0.07230826  0.67752972  0.31616412  1
  Al0+  Al90  1  0.92767246  0.31968927  0.65474295  1
  Al0+  Al91  1  0.42924561  0.82048072  0.31825336  1
  Al0+  Al92  1  0.42958309  0.32110031  0.32104082  1
  Al0+  Al93  1  0.81988866  0.57032035  0.34747114  1
  Al0+  Al94  1  0.92781104  0.32219096  0.31750016  1
  Al0+  Al95  1  0.42825557  0.82243495  0.65330907  1
  Si0+  Si96  1  0.42786516  0.31891625  0.65297884  1
  Si0+  Si97  1  0.81892373  0.57206750  0.68172177  1
  Si0+  Si98  1  0.07463429  0.17974203  0.65213990  1
  Si0+  Si99  1  0.17701637  0.93020844  0.01665580  1
  Si0+  Si100  1  0.57148116  0.17896943  0.65211531  1
  Si0+  Si101  1  0.32290485  0.07136814  0.34832471  1
  Si0+  Si102  1  0.67845354  0.42750479  0.68076926  1
  Si0+  Si103  1  0.82069690  0.07071200  0.34803857  1
  Si0+  Si104  1  0.17798004  0.92711678  0.68377029  1
  Si0+  Si105  1  0.68023688  0.92790373  0.01564409  1
  Si0+  Si106  1  0.07060503  0.17852426  0.98285666  1
  Si0+  Si107  1  0.57009171  0.68020115  0.98730616  1
  Si0+  Si108  1  0.42796455  0.82135593  0.98694366  1
  Si0+  Si109  1  0.67772272  0.42620370  0.35207646  1
  Si0+  Si110  1  0.57227301  0.67827402  0.31448791  1
  Si0+  Si111  1  0.92909986  0.32087915  0.98631199  1
  Si0+  Si112  1  0.82208307  0.07046555  0.01680055  1
  Si0+  Si113  1  0.07298219  0.67707702  0.98115254  1
  Si0+  Si114  1  0.32439578  0.57341404  0.34983672  1
  Si0+  Si115  1  0.57234536  0.17711818  0.31796436  1
  Si0+  Si116  1  0.17562955  0.42764688  0.01780535  1
  Si0+  Si117  1  0.67748862  0.92854042  0.34991851  1
  Si0+  Si118  1  0.67893369  0.92749086  0.68462495  1
  Si0+  Si119  1  0.82221949  0.57379714  0.01458495  1
  O2-  O120  1  0.24830618  -0.00437266  0.06199519  1
  O2-  O121  1  0.25515646  0.00288868  0.39353972  1
  O2-  O122  1  0.25112714  -0.00788795  0.72724301  1
  O2-  O123  1  0.24650908  0.49489370  0.06023023  1
  O2-  O124  1  0.25518358  0.50517650  0.39307154  1
  O2-  O125  1  0.24877197  0.50040643  0.73119180  1
  O2-  O126  1  0.75194696  -0.00172708  0.05866907  1
  O2-  O127  1  0.75102197  -0.00197956  0.39012429  1
  O2-  O128  1  0.75152215  -0.00803274  0.72941443  1
  O2-  O129  1  0.75776785  0.50180073  0.05993943  1
  O2-  O130  1  0.74821571  0.49251522  0.39620034  1
  O2-  O131  1  0.74702122  0.50118990  0.72334631  1
  O2-  O132  1  0.00074986  0.25140467  0.26733538  1
  O2-  O133  1  0.00605276  0.24872354  0.60907618  1
  O2-  O134  1  0.00164124  0.25260413  0.94247245  1
  O2-  O135  1  -0.00001280  0.75043448  0.26718403  1
  O2-  O136  1  0.00094341  0.75307118  0.60143078  1
  O2-  O137  1  0.00167225  0.74407101  0.93879805  1
  O2-  O138  1  0.50480301  0.24653418  0.27487550  1
  O2-  O139  1  0.49624949  0.24509082  0.61013350  1
  O2-  O140  1  0.49815259  0.24869230  0.93257246  1
  O2-  O141  1  0.50006394  0.74278784  0.26949397  1
  O2-  O142  1  0.49645658  0.74596122  0.60409722  1
  O2-  O143  1  0.49563928  0.74735633  0.94468297  1
  O2-  O144  1  0.06840993  0.17498570  0.08768213  1
  O2-  O145  1  0.06949720  0.17821818  0.43300100  1
  O2-  O146  1  0.07300249  0.18028172  0.75834566  1
  O2-  O147  1  0.07321708  0.67600894  0.08633261  1
  O2-  O148  1  0.07116376  0.67753958  0.42937958  1
  O2-  O149  1  0.06739378  0.67983299  0.76557514  1
  O2-  O150  1  0.57245842  0.17997108  0.09720026  1
  O2-  O151  1  0.57297247  0.17658886  0.42393435  1
  O2-  O152  1  0.57384392  0.18092415  0.75682749  1
  O2-  O153  1  0.57348461  0.68431545  0.09220757  1
  O2-  O154  1  0.57254321  0.67962523  0.41971325  1
  O2-  O155  1  0.57111270  0.67479696  0.76545791  1
  O2-  O156  1  0.18457776  0.43004449  0.23247893  1
  O2-  O157  1  0.17743251  0.42591022  0.56902532  1
  O2-  O158  1  0.17179952  0.42928406  0.91249162  1
  O2-  O159  1  0.17989646  0.93235085  0.23337088  1
  O2-  O160  1  0.17610588  0.93052452  0.57833811  1
  O2-  O161  1  0.17722741  0.93190941  0.91105527  1
  O2-  O162  1  0.67766999  0.42734435  0.24643685  1
  O2-  O163  1  0.67839593  0.42510023  0.57592957  1
  O2-  O164  1  0.68221253  0.43072748  0.90062615  1
  O2-  O165  1  0.67568484  0.93000555  0.24436880  1
  O2-  O166  1  0.67564735  0.93237049  0.57906734  1
  O2-  O167  1  0.68025124  0.92645937  0.91102336  1
  O2-  O168  1  0.43049046  0.32271020  0.09580368  1
  O2-  O169  1  0.42999720  0.31815646  0.43483275  1
  O2-  O170  1  0.43110397  0.32041267  0.75766897  1
  O2-  O171  1  0.43066777  0.82108896  0.09208130  1
  O2-  O172  1  0.43225630  0.82357077  0.43068877  1
  O2-  O173  1  0.43328891  0.82427465  0.76759649  1
  O2-  O174  1  0.92926334  0.31944592  0.09101685  1
  O2-  O175  1  0.92686510  0.31887777  0.43096100  1
  O2-  O176  1  0.92509303  0.31726304  0.76868270  1
  O2-  O177  1  0.92826472  0.82049618  0.09720742  1
  O2-  O178  1  0.92943510  0.82174131  0.43197606  1
  O2-  O179  1  0.93063432  0.82143114  0.76554790  1
  O2-  O180  1  0.32324721  0.06921203  0.24264046  1
  O2-  O181  1  0.32148325  0.07211417  0.56665070  1
  O2-  O182  1  0.32195173  0.06743059  0.90258905  1
  O2-  O183  1  0.32428351  0.57115296  0.24382693  1
  O2-  O184  1  0.32449834  0.56565614  0.56589770  1
  O2-  O185  1  0.32011804  0.57311298  0.90161571  1
  O2-  O186  1  0.81837153  0.07157630  0.24254422  1
  O2-  O187  1  0.81712711  0.07345367  0.56755432  1
  O2-  O188  1  0.82179941  0.07109653  0.91182609  1
  O2-  O189  1  0.81548943  0.57053713  0.23372798  1
  O2-  O190  1  0.81918685  0.57060719  0.57690157  1
  O2-  O191  1  0.81938205  0.57364278  0.90883542  1
  O2-  O192  1  0.03933788  0.08332637  0.26290063  1
  O2-  O193  1  0.04846323  0.08599021  0.60802659  1
  O2-  O194  1  0.03967135  0.08906156  0.93286185  1
  O2-  O195  1  0.04094253  0.58105189  0.26155063  1
  O2-  O196  1  0.03780023  0.58127955  0.59997474  1
  O2-  O197  1  0.04981191  0.58267537  0.93513016  1
  O2-  O198  1  0.54865006  0.08382026  0.27066144  1
  O2-  O199  1  0.54921507  0.08575078  0.60565769  1
  O2-  O200  1  0.54640519  0.07843661  0.93196996  1
  O2-  O201  1  0.55285734  0.58287455  0.26960607  1
  O2-  O202  1  0.54591383  0.57592209  0.59571365  1
  O2-  O203  1  0.54570199  0.58693681  0.94255468  1
  O2-  O204  1  0.16924149  0.20620303  0.26417531  1
  O2-  O205  1  0.16871138  0.20294720  0.60678800  1
  O2-  O206  1  0.16298636  0.20400252  0.93613475  1
  O2-  O207  1  0.17040015  0.70533962  0.26291832  1
  O2-  O208  1  0.16995406  0.70086421  0.59914274  1
  O2-  O209  1  0.16537360  0.70706544  0.93454475  1
  O2-  O210  1  0.66584601  0.20091709  0.27101953  1
  O2-  O211  1  0.66050044  0.21146029  0.60221162  1
  O2-  O212  1  0.67111759  0.20800166  0.93188087  1
  O2-  O213  1  0.66338120  0.70975521  0.26702328  1
  O2-  O214  1  0.66687336  0.70550595  0.59610614  1
  O2-  O215  1  0.65994746  0.71050026  0.93697680  1
  O2-  O216  1  0.08225069  0.45514781  0.06508251  1
  O2-  O217  1  0.08277089  0.45680380  0.39681737  1
  O2-  O218  1  0.07695510  0.45754471  0.73628548  1
  O2-  O219  1  0.08423296  0.96101717  0.06203194  1
  O2-  O220  1  0.08297346  0.96198063  0.40125230  1
  O2-  O221  1  0.08725224  0.95789349  0.73369207  1
  O2-  O222  1  0.58620335  0.46152937  0.07029281  1
  O2-  O223  1  0.58479152  0.45496929  0.39866301  1
  O2-  O224  1  0.58649277  0.45348162  0.72869864  1
  O2-  O225  1  0.58962490  0.95663724  0.06542883  1
  O2-  O226  1  0.58746884  0.96045051  0.39912937  1
  O2-  O227  1  0.58799391  0.95770110  0.73368284  1
  O2-  O228  1  0.19754082  0.33240347  0.06137985  1
  O2-  O229  1  0.21280555  0.33243505  0.39908278  1
  O2-  O230  1  0.20358161  0.33111352  0.73756198  1
  O2-  O231  1  0.19771971  0.83512235  0.06115091  1
  O2-  O232  1  0.21010289  0.83227165  0.39910493  1
  O2-  O233  1  0.19842257  0.83215188  0.72859444  1
  O2-  O234  1  0.71041458  0.33222617  0.06920491  1
  O2-  O235  1  0.69884238  0.33054542  0.39639750  1
  O2-  O236  1  0.70964898  0.33757026  0.73000848  1
  O2-  O237  1  0.70794947  0.83618833  0.06423783  1
  O2-  O238  1  0.70093428  0.83627567  0.39697407  1
  O2-  O239  1  0.69920082  0.83141567  0.72815810  1
  O2-  O240  1  0.46125048  0.41732622  0.26660360  1
  O2-  O241  1  0.45906518  0.40790030  0.60309951  1
  O2-  O242  1  0.46173953  0.42165236  0.93199067  1
  O2-  O243  1  0.46549349  0.91565760  0.26304928  1
  O2-  O244  1  0.46320659  0.91870257  0.59881226  1
  O2-  O245  1  0.46043047  0.91199622  0.94092432  1
  O2-  O246  1  0.95379418  0.41993701  0.26381925  1
  O2-  O247  1  0.95349456  0.41738821  0.60279701  1
  O2-  O248  1  0.95317990  0.41442870  0.93954027  1
  O2-  O249  1  0.95546396  0.91981886  0.26592290  1
  O2-  O250  1  0.95509216  0.92542115  0.60382494  1
  O2-  O251  1  0.96009226  0.91745530  0.93115069  1
  O2-  O252  1  0.33583253  0.29076441  0.26303164  1
  O2-  O253  1  0.33494507  0.29067135  0.60874514  1
  O2-  O254  1  0.32763432  0.29728148  0.93138217  1
  O2-  O255  1  0.33337205  0.79435372  0.26152665  1
  O2-  O256  1  0.32880426  0.80032108  0.60165990  1
  O2-  O257  1  0.33400116  0.79871079  0.94221421  1
  O2-  O258  1  0.82897313  0.29170383  0.26562383  1
  O2-  O259  1  0.83293464  0.28556481  0.59927972  1
  O2-  O260  1  0.83788602  0.29045621  0.93970819  1
  O2-  O261  1  0.82805736  0.79346215  0.26835847  1
  O2-  O262  1  0.82891940  0.80038348  0.60189969  1
  O2-  O263  1  0.83145046  0.79242228  0.92981058  1
  O2-  O264  1  0.41970392  0.04146396  0.06947177  1
  O2-  O265  1  0.41784691  0.04646697  0.39272169  1
  O2-  O266  1  0.42062303  0.04136765  0.73420969  1
  O2-  O267  1  0.41665149  0.54433400  0.07044577  1
  O2-  O268  1  0.41961203  0.54872754  0.39310915  1
  O2-  O269  1  0.42035137  0.53930332  0.73217393  1
  O2-  O270  1  0.91449400  0.04224778  0.06276807  1
  O2-  O271  1  0.91257260  0.04491557  0.39475480  1
  O2-  O272  1  0.91881742  0.04677869  0.73746337  1
  O2-  O273  1  0.91775270  0.55179363  0.05797458  1
  O2-  O274  1  0.91662456  0.54115779  0.40090496  1
  O2-  O275  1  0.90889304  0.54349516  0.73177990  1
  O2-  O276  1  0.29094171  0.16874898  0.06633360  1
  O2-  O277  1  0.29782474  0.16560601  0.39207283  1
  O2-  O278  1  0.29068573  0.16352431  0.73867306  1
  O2-  O279  1  0.28856315  0.66837016  0.06879356  1
  O2-  O280  1  0.30131207  0.66868525  0.39198883  1
  O2-  O281  1  0.29677845  0.67066913  0.73139643  1
  O2-  O282  1  0.79339051  0.16105012  0.06580846  1
  O2-  O283  1  0.79051001  0.16187811  0.39626702  1
  O2-  O284  1  0.78421303  0.16514112  0.73629283  1
  O2-  O285  1  0.79146708  0.66608245  0.06050136  1
  O2-  O286  1  0.78516699  0.66539947  0.40255586  1
  O2-  O287  1  0.79052869  0.66448152  0.72829999  1
