# generated using pymatgen
data_Ca2Al2SiO7
_symmetry_space_group_name_H-M   'P 1'
_cell_length_a   15.46507576
_cell_length_b   15.46338075
_cell_length_c   15.28870109
_cell_angle_alpha   90.00681478
_cell_angle_beta   90.00493458
_cell_angle_gamma   89.99820102
_symmetry_Int_Tables_number   1
_chemical_formula_structural   Ca2Al2SiO7
_chemical_formula_sum   'Ca48 Al48 Si24 O168'
_cell_volume   3656.17593948
_cell_formula_units_Z   24
loop_
 _symmetry_equiv_pos_site_id
 _symmetry_equiv_pos_as_xyz
  1  'x, y, z'
loop_
 _atom_type_symbol
 _atom_type_oxidation_number
  Ca2+  2.0
  Al0+  0.0
  Si0+  0.0
  O2-  -2.0
loop_
 _atom_site_type_symbol
 _atom_site_label
 _atom_site_symmetry_multiplicity
 _atom_site_fract_x
 _atom_site_fract_y
 _atom_site_fract_z
 _atom_site_occupancy
  Ca2+  Ca0  1  0.17094114  0.07385769  0.17089418  1
  Ca2+  Ca1  1  0.16376227  0.08205130  0.50285520  1
  Ca2+  Ca2  1  0.17371541  0.07784895  0.83815969  1
  Ca2+  Ca3  1  0.18178098  0.58060628  0.17543951  1
  Ca2+  Ca4  1  0.17283978  0.57438346  0.50633091  1
  Ca2+  Ca5  1  0.16949662  0.58106444  0.83571653  1
  Ca2+  Ca6  1  0.66819428  0.08146313  0.17002505  1
  Ca2+  Ca7  1  0.67161135  0.07911271  0.51597652  1
  Ca2+  Ca8  1  0.66533304  0.08074742  0.82940565  1
  Ca2+  Ca9  1  0.66839878  0.58607652  0.16780098  1
  Ca2+  Ca10  1  0.65923310  0.58362255  0.50808726  1
  Ca2+  Ca11  1  0.66069659  0.57447421  0.83557921  1
  Ca2+  Ca12  1  0.09499888  0.32806244  0.16896536  1
  Ca2+  Ca13  1  0.09441254  0.32380153  0.49591414  1
  Ca2+  Ca14  1  0.08437721  0.32726970  0.82074732  1
  Ca2+  Ca15  1  0.08865123  0.83693581  0.16290515  1
  Ca2+  Ca16  1  0.07964307  0.83242052  0.49979256  1
  Ca2+  Ca17  1  0.07994153  0.82783565  0.82385194  1
  Ca2+  Ca18  1  0.57840786  0.33688919  0.16524022  1
  Ca2+  Ca19  1  0.57286359  0.33805906  0.50006330  1
  Ca2+  Ca20  1  0.58049953  0.33266737  0.82294085  1
  Ca2+  Ca21  1  0.56836587  0.82745341  0.16382646  1
  Ca2+  Ca22  1  0.57592315  0.82877338  0.49660483  1
  Ca2+  Ca23  1  0.57235417  0.82947635  0.82105632  1
  Ca2+  Ca24  1  0.33529310  0.42851806  0.17679557  1
  Ca2+  Ca25  1  0.33135927  0.41486286  0.50327006  1
  Ca2+  Ca26  1  0.33219219  0.42150138  0.83416943  1
  Ca2+  Ca27  1  0.32685858  0.91336906  0.17037492  1
  Ca2+  Ca28  1  0.33231034  0.90986899  0.50250783  1
  Ca2+  Ca29  1  0.33384325  0.91971854  0.84318154  1
  Ca2+  Ca30  1  0.82702911  0.42029131  0.16502073  1
  Ca2+  Ca31  1  0.82395392  0.41869289  0.50959264  1
  Ca2+  Ca32  1  0.82034916  0.42308436  0.83856945  1
  Ca2+  Ca33  1  0.83019458  0.91694386  0.17185964  1
  Ca2+  Ca34  1  0.82760057  0.92086972  0.51301429  1
  Ca2+  Ca35  1  0.83035662  0.91554349  0.82665162  1
  Ca2+  Ca36  1  0.40905045  0.17382989  0.16413947  1
  Ca2+  Ca37  1  0.41917131  0.17858913  0.50125320  1
  Ca2+  Ca38  1  0.42039450  0.17184308  0.82364136  1
  Ca2+  Ca39  1  0.40873277  0.67203636  0.16432006  1
  Ca2+  Ca40  1  0.42536969  0.67237624  0.49544319  1
  Ca2+  Ca41  1  0.41480510  0.67661827  0.82753759  1
  Ca2+  Ca42  1  0.92513905  0.16797111  0.16558333  1
  Ca2+  Ca43  1  0.92718248  0.16086073  0.49919029  1
  Ca2+  Ca44  1  0.92372121  0.16518021  0.82330698  1
  Ca2+  Ca45  1  0.91967833  0.66416069  0.16072772  1
  Ca2+  Ca46  1  0.92166505  0.66846346  0.50218588  1
  Ca2+  Ca47  1  0.92179827  0.66825800  0.82472090  1
  Al0+  Al48  1  -0.00083819  -0.00024904  0.00158666  1
  Al0+  Al49  1  0.00110902  0.00125827  0.33111482  1
  Al0+  Al50  1  0.00019925  -0.00004480  0.66421510  1
  Al0+  Al51  1  -0.00295280  0.49802266  0.00231547  1
  Al0+  Al52  1  -0.00194140  0.49951761  0.33588588  1
  Al0+  Al53  1  0.00074329  0.49801002  0.66696849  1
  Al0+  Al54  1  0.50060261  0.00202530  0.00180297  1
  Al0+  Al55  1  0.50040093  -0.00107234  0.32980171  1
  Al0+  Al56  1  0.49944320  0.00179564  0.66320065  1
  Al0+  Al57  1  0.49889130  0.49903362  0.00731281  1
  Al0+  Al58  1  0.50299595  0.49991984  0.32888812  1
  Al0+  Al59  1  0.49744783  0.50250070  0.66572385  1
  Al0+  Al60  1  0.25067969  0.24781903  -0.00010133  1
  Al0+  Al61  1  0.25101762  0.24771590  0.32587911  1
  Al0+  Al62  1  0.24931003  0.24953742  0.66456727  1
  Al0+  Al63  1  0.24800921  0.74909030  0.00169065  1
  Al0+  Al64  1  0.24876295  0.74980593  0.34008105  1
  Al0+  Al65  1  0.24857134  0.74845453  0.65969122  1
  Al0+  Al66  1  0.75058020  0.24967421  0.00433878  1
  Al0+  Al67  1  0.75284365  0.25142324  0.33300879  1
  Al0+  Al68  1  0.75172845  0.25024015  0.67300575  1
  Al0+  Al69  1  0.75018653  0.74981264  0.00267409  1
  Al0+  Al70  1  0.75058093  0.75092656  0.32969532  1
  Al0+  Al71  1  0.75061502  0.75144910  0.66527398  1
  Al0+  Al72  1  0.57070538  0.67931948  0.65526549  1
  Al0+  Al73  1  0.42705752  0.82403563  0.65244493  1
  Al0+  Al74  1  0.82116740  0.57218556  0.01493815  1
  Al0+  Al75  1  0.17974464  0.42733100  0.68063514  1
  Al0+  Al76  1  0.67644717  0.92810597  0.68145553  1
  Al0+  Al77  1  0.43080783  0.31915231  0.31786554  1
  Al0+  Al78  1  0.42878180  0.32203629  0.65396154  1
  Al0+  Al79  1  0.31833277  0.57006990  0.01217552  1
  Al0+  Al80  1  0.92984342  0.82077340  0.65200970  1
  Al0+  Al81  1  0.42798314  0.82051650  0.98633834  1
  Al0+  Al82  1  0.17866708  0.92957404  0.01262743  1
  Al0+  Al83  1  0.57292476  0.67905823  0.31572655  1
  Al0+  Al84  1  0.42622553  0.82072706  0.31610596  1
  Al0+  Al85  1  0.32446807  0.57131785  0.35211984  1
  Al0+  Al86  1  0.57374767  0.17975711  0.65368374  1
  Al0+  Al87  1  0.07153896  0.67503596  0.65065326  1
  Al0+  Al88  1  0.17875961  0.93027188  0.35021765  1
  Al0+  Al89  1  0.32367937  0.07212611  0.01504670  1
  Al0+  Al90  1  0.07026152  0.17940206  0.31661515  1
  Al0+  Al91  1  0.17983192  0.42774115  0.34809993  1
  Al0+  Al92  1  0.67802724  0.42797972  0.01715603  1
  Al0+  Al93  1  0.07064015  0.17954311  0.65400613  1
  Al0+  Al94  1  0.82312785  0.07114144  0.68226031  1
  Al0+  Al95  1  0.67662860  0.43108130  0.67890340  1
  Si0+  Si96  1  0.42933342  0.32131893  0.98494239  1
  Si0+  Si97  1  0.06995968  0.17937089  0.98381845  1
  Si0+  Si98  1  0.32000442  0.07102304  0.67943177  1
  Si0+  Si99  1  0.06906531  0.67711679  0.31795669  1
  Si0+  Si100  1  0.17946227  0.92778317  0.68003398  1
  Si0+  Si101  1  0.82135588  0.07023862  0.01669308  1
  Si0+  Si102  1  0.57227418  0.67810297  0.98345127  1
  Si0+  Si103  1  0.32356027  0.07178210  0.35130370  1
  Si0+  Si104  1  0.92699423  0.82235468  0.98525107  1
  Si0+  Si105  1  0.57553047  0.17820691  0.31687328  1
  Si0+  Si106  1  0.67842385  0.92882536  0.01593039  1
  Si0+  Si107  1  0.92747076  0.31988693  0.98398216  1
  Si0+  Si108  1  0.32008926  0.57309898  0.68411169  1
  Si0+  Si109  1  0.68008236  0.92957618  0.34674494  1
  Si0+  Si110  1  0.93096195  0.82082545  0.31697353  1
  Si0+  Si111  1  0.06927051  0.67795031  0.98750346  1
  Si0+  Si112  1  0.82302368  0.57264138  0.68196920  1
  Si0+  Si113  1  0.92756344  0.32219551  0.65134533  1
  Si0+  Si114  1  0.68156840  0.42891098  0.34931637  1
  Si0+  Si115  1  0.82069267  0.07124779  0.34712180  1
  Si0+  Si116  1  0.82105225  0.57366078  0.35021763  1
  Si0+  Si117  1  0.92604445  0.32366715  0.31463174  1
  Si0+  Si118  1  0.17621572  0.42601225  0.01495935  1
  Si0+  Si119  1  0.57362703  0.17955831  0.98536800  1
  O2-  O120  1  0.25326643  -0.00195556  0.06398936  1
  O2-  O121  1  0.25724392  0.00126795  0.39650041  1
  O2-  O122  1  0.25428043  -0.00532423  0.72169861  1
  O2-  O123  1  0.24440069  0.49441430  0.05878548  1
  O2-  O124  1  0.25247805  0.49757221  0.39979899  1
  O2-  O125  1  0.25108110  0.50412802  0.72832755  1
  O2-  O126  1  0.75082578  -0.00099650  0.05903772  1
  O2-  O127  1  0.74593723  0.00518108  0.38877094  1
  O2-  O128  1  0.74847699  0.00108762  0.73185379  1
  O2-  O129  1  0.74745132  0.50314123  0.06674765  1
  O2-  O130  1  0.74933203  0.50320418  0.39122538  1
  O2-  O131  1  0.75066125  0.50724641  0.72521199  1
  O2-  O132  1  -0.00095744  0.25874264  0.27074602  1
  O2-  O133  1  -0.00389822  0.25404742  0.60654093  1
  O2-  O134  1  0.00199925  0.25292985  0.94140428  1
  O2-  O135  1  0.00120277  0.75033682  0.27313442  1
  O2-  O136  1  -0.00000284  0.74792758  0.60084580  1
  O2-  O137  1  -0.00274974  0.74911605  0.94623075  1
  O2-  O138  1  0.50530085  0.24364575  0.27032126  1
  O2-  O139  1  0.50512181  0.25432698  0.60384655  1
  O2-  O140  1  0.50114382  0.24995479  0.94459785  1
  O2-  O141  1  0.49556031  0.74567891  0.26612769  1
  O2-  O142  1  0.50245443  0.75436947  0.60513358  1
  O2-  O143  1  0.50351888  0.74660356  0.93977084  1
  O2-  O144  1  0.06767186  0.17936975  0.08891293  1
  O2-  O145  1  0.06663567  0.17727071  0.42929020  1
  O2-  O146  1  0.07088553  0.18004154  0.76769763  1
  O2-  O147  1  0.06795112  0.67824791  0.09284230  1
  O2-  O148  1  0.06408163  0.67592626  0.42233472  1
  O2-  O149  1  0.07100443  0.67696131  0.76529401  1
  O2-  O150  1  0.57654860  0.18013352  0.09070963  1
  O2-  O151  1  0.57915199  0.18093317  0.42167657  1
  O2-  O152  1  0.56962535  0.17987115  0.76787754  1
  O2-  O153  1  0.57363331  0.68162015  0.08889304  1
  O2-  O154  1  0.57783538  0.68396448  0.42872015  1
  O2-  O155  1  0.56676626  0.67764817  0.76925300  1
  O2-  O156  1  0.18057427  0.43158622  0.23372403  1
  O2-  O157  1  0.18203842  0.42533551  0.56818531  1
  O2-  O158  1  0.17586994  0.42573663  0.90936594  1
  O2-  O159  1  0.17553397  0.93288686  0.23704632  1
  O2-  O160  1  0.17811259  0.93067494  0.57505995  1
  O2-  O161  1  0.17564368  0.93186094  0.89893011  1
  O2-  O162  1  0.68574294  0.42530222  0.24436296  1
  O2-  O163  1  0.67897846  0.43180030  0.56551641  1
  O2-  O164  1  0.67936012  0.42674427  0.90370235  1
  O2-  O165  1  0.68414554  0.93079209  0.24098424  1
  O2-  O166  1  0.67887875  0.93026962  0.56748318  1
  O2-  O167  1  0.67850845  0.92946338  0.91148175  1
  O2-  O168  1  0.42918664  0.31990694  0.09002129  1
  O2-  O169  1  0.43203468  0.31818260  0.43052951  1
  O2-  O170  1  0.42808277  0.31978515  0.76815730  1
  O2-  O171  1  0.42806084  0.81930185  0.09908349  1
  O2-  O172  1  0.43185195  0.82364039  0.42898400  1
  O2-  O173  1  0.42514903  0.82258470  0.76671057  1
  O2-  O174  1  0.92623865  0.31732697  0.08911826  1
  O2-  O175  1  0.91912536  0.32118496  0.41943901  1
  O2-  O176  1  0.93003946  0.32192175  0.75734296  1
  O2-  O177  1  0.92673030  0.82447541  0.09072376  1
  O2-  O178  1  0.92999567  0.82078468  0.42135134  1
  O2-  O179  1  0.93315120  0.82049125  0.76631413  1
  O2-  O180  1  0.32109105  0.07177614  0.24557847  1
  O2-  O181  1  0.31701231  0.07408989  0.57454942  1
  O2-  O182  1  0.32104678  0.07482787  0.90114505  1
  O2-  O183  1  0.32005018  0.57077813  0.23777068  1
  O2-  O184  1  0.32019445  0.57242834  0.57908076  1
  O2-  O185  1  0.31686443  0.56958598  0.89914677  1
  O2-  O186  1  0.82023678  0.06944810  0.24123140  1
  O2-  O187  1  0.82431405  0.06874381  0.56821836  1
  O2-  O188  1  0.82355295  0.07090154  0.91242583  1
  O2-  O189  1  0.82233423  0.57345205  0.24510524  1
  O2-  O190  1  0.82465873  0.56929259  0.57605843  1
  O2-  O191  1  0.82424948  0.57027413  0.90192383  1
  O2-  O192  1  0.03232235  0.08547249  0.26052409  1
  O2-  O193  1  0.03938936  0.08435875  0.59860138  1
  O2-  O194  1  0.03783797  0.08815575  0.93788062  1
  O2-  O195  1  0.03795427  0.58652270  0.26928318  1
  O2-  O196  1  0.04190318  0.57720037  0.59765119  1
  O2-  O197  1  0.04177061  0.58526959  0.94087342  1
  O2-  O198  1  0.55358411  0.08336062  0.27122671  1
  O2-  O199  1  0.54349618  0.08378106  0.59824186  1
  O2-  O200  1  0.54793186  0.08720471  0.93869873  1
  O2-  O201  1  0.55410535  0.57811323  0.26476291  1
  O2-  O202  1  0.53933577  0.58363491  0.59902621  1
  O2-  O203  1  0.54664882  0.58216500  0.94279905  1
  O2-  O204  1  0.16644032  0.20604858  0.25996551  1
  O2-  O205  1  0.16538771  0.21057599  0.59800662  1
  O2-  O206  1  0.16313400  0.20385242  0.93752170  1
  O2-  O207  1  0.16214762  0.70402522  0.27373367  1
  O2-  O208  1  0.16779879  0.70314696  0.59561329  1
  O2-  O209  1  0.15954632  0.70592583  0.93837156  1
  O2-  O210  1  0.66880367  0.20612891  0.26907702  1
  O2-  O211  1  0.67494631  0.20241815  0.60481974  1
  O2-  O212  1  0.66583674  0.20762008  0.93886006  1
  O2-  O213  1  0.67010922  0.71332413  0.26081621  1
  O2-  O214  1  0.67102777  0.70035250  0.60396416  1
  O2-  O215  1  0.66709547  0.70275432  0.93926397  1
  O2-  O216  1  0.08185881  0.44813898  0.06058964  1
  O2-  O217  1  0.07901754  0.45320967  0.39805355  1
  O2-  O218  1  0.08162655  0.45477022  0.73451835  1
  O2-  O219  1  0.08073786  0.96020910  0.06741090  1
  O2-  O220  1  0.08205183  0.96570265  0.40195829  1
  O2-  O221  1  0.08935370  0.95935180  0.72791732  1
  O2-  O222  1  0.57997965  0.45297512  0.07122788  1
  O2-  O223  1  0.58855471  0.45315748  0.39378966  1
  O2-  O224  1  0.58015502  0.46144577  0.73405314  1
  O2-  O225  1  0.58889298  0.95982732  0.06570520  1
  O2-  O226  1  0.58631033  0.95195192  0.39128585  1
  O2-  O227  1  0.57810466  0.95856075  0.73435841  1
  O2-  O228  1  0.20248572  0.33222017  0.05965596  1
  O2-  O229  1  0.20694148  0.32636995  0.39467679  1
  O2-  O230  1  0.21210107  0.33129764  0.73593763  1
  O2-  O231  1  0.20258544  0.83065298  0.06594196  1
  O2-  O232  1  0.20191739  0.83221007  0.40371332  1
  O2-  O233  1  0.20178092  0.83345888  0.72489966  1
  O2-  O234  1  0.71214749  0.33128473  0.07186447  1
  O2-  O235  1  0.71317095  0.33808919  0.39693828  1
  O2-  O236  1  0.70828887  0.33573609  0.73484219  1
  O2-  O237  1  0.70709806  0.83791565  0.06442510  1
  O2-  O238  1  0.71408097  0.83976174  0.39302500  1
  O2-  O239  1  0.70714124  0.83053173  0.73576430  1
  O2-  O240  1  0.46393331  0.41452002  0.26293718  1
  O2-  O241  1  0.45329124  0.42047671  0.60110200  1
  O2-  O242  1  0.45662896  0.41388154  0.93918559  1
  O2-  O243  1  0.45762478  0.91917900  0.26237233  1
  O2-  O244  1  0.45101976  0.92260679  0.59908486  1
  O2-  O245  1  0.45866345  0.91943297  0.93638745  1
  O2-  O246  1  0.94742375  0.41901287  0.26992926  1
  O2-  O247  1  0.95065924  0.41540669  0.60446813  1
  O2-  O248  1  0.95059482  0.41346128  0.93802955  1
  O2-  O249  1  0.95796791  0.91261181  0.26844144  1
  O2-  O250  1  0.96042636  0.91743435  0.59738131  1
  O2-  O251  1  0.95563268  0.91396164  0.93806562  1
  O2-  O252  1  0.33560027  0.28871538  0.26079985  1
  O2-  O253  1  0.33394556  0.28658637  0.59932407  1
  O2-  O254  1  0.33701938  0.29335801  0.93804382  1
  O2-  O255  1  0.32487490  0.79440051  0.26761764  1
  O2-  O256  1  0.33043191  0.79404052  0.59835239  1
  O2-  O257  1  0.33032477  0.78976957  0.93395586  1
  O2-  O258  1  0.83574426  0.29145170  0.26392743  1
  O2-  O259  1  0.83396942  0.29709306  0.60597007  1
  O2-  O260  1  0.83677858  0.28779781  0.93722993  1
  O2-  O261  1  0.83971336  0.79307999  0.26780749  1
  O2-  O262  1  0.83117970  0.79640221  0.59850034  1
  O2-  O263  1  0.83470522  0.79597556  0.93838524  1
  O2-  O264  1  0.42352123  0.05099306  0.06817861  1
  O2-  O265  1  0.41974705  0.05046199  0.39385396  1
  O2-  O266  1  0.41314799  0.04909097  0.72647752  1
  O2-  O267  1  0.41384003  0.54113939  0.06846914  1
  O2-  O268  1  0.42515565  0.54316739  0.39916584  1
  O2-  O269  1  0.41261820  0.54710304  0.73160699  1
  O2-  O270  1  0.91214268  0.04148257  0.06608607  1
  O2-  O271  1  0.91101678  0.03923557  0.39314854  1
  O2-  O272  1  0.92046022  0.03808336  0.73648813  1
  O2-  O273  1  0.91794678  0.53982307  0.07118604  1
  O2-  O274  1  0.91177611  0.54474676  0.39856383  1
  O2-  O275  1  0.91488807  0.54321435  0.72974921  1
  O2-  O276  1  0.29047902  0.16905870  0.06911922  1
  O2-  O277  1  0.29415703  0.16480916  0.39526218  1
  O2-  O278  1  0.28661069  0.15980949  0.72950780  1
  O2-  O279  1  0.28439075  0.66433656  0.06830173  1
  O2-  O280  1  0.29486720  0.66886320  0.40416468  1
  O2-  O281  1  0.29154782  0.66666830  0.72965496  1
  O2-  O282  1  0.79293539  0.16088135  0.06627056  1
  O2-  O283  1  0.79874714  0.16499156  0.39266293  1
  O2-  O284  1  0.79986016  0.16967453  0.73757153  1
  O2-  O285  1  0.79707505  0.67171183  0.06946306  1
  O2-  O286  1  0.79508183  0.66681788  0.39548502  1
  O2-  O287  1  0.80383382  0.66795506  0.72602472  1
