# generated using pymatgen
data_Ca2Al2SiO7
_symmetry_space_group_name_H-M   'P 1'
_cell_length_a   15.45894435
_cell_length_b   15.45887439
_cell_length_c   15.28461693
_cell_angle_alpha   90.00214094
_cell_angle_beta   89.98694779
_cell_angle_gamma   90.00705453
_symmetry_Int_Tables_number   1
_chemical_formula_structural   Ca2Al2SiO7
_chemical_formula_sum   'Ca48 Al48 Si24 O168'
_cell_volume   3652.68520901
_cell_formula_units_Z   24
loop_
 _symmetry_equiv_pos_site_id
 _symmetry_equiv_pos_as_xyz
  1  'x, y, z'
loop_
 _atom_type_symbol
 _atom_type_oxidation_number
  Ca2+  2.0
  Al0+  0.0
  Si0+  0.0
  O2-  -2.0
loop_
 _atom_site_type_symbol
 _atom_site_label
 _atom_site_symmetry_multiplicity
 _atom_site_fract_x
 _atom_site_fract_y
 _atom_site_fract_z
 _atom_site_occupancy
  Ca2+  Ca0  1  0.17388983  0.08243277  0.16638723  1
  Ca2+  Ca1  1  0.17407377  0.07624230  0.50306642  1
  Ca2+  Ca2  1  0.17133966  0.07217055  0.84214455  1
  Ca2+  Ca3  1  0.17845577  0.58049158  0.16544068  1
  Ca2+  Ca4  1  0.18228331  0.58978830  0.50202694  1
  Ca2+  Ca5  1  0.17955403  0.58430734  0.84067025  1
  Ca2+  Ca6  1  0.66214587  0.07774726  0.16998330  1
  Ca2+  Ca7  1  0.66410094  0.06554337  0.50299951  1
  Ca2+  Ca8  1  0.66241052  0.07735676  0.83859028  1
  Ca2+  Ca9  1  0.66815417  0.58121962  0.17279475  1
  Ca2+  Ca10  1  0.67242806  0.59806628  0.50268061  1
  Ca2+  Ca11  1  0.67018837  0.58404007  0.83392434  1
  Ca2+  Ca12  1  0.07946079  0.33083033  0.15340678  1
  Ca2+  Ca13  1  0.08435004  0.33186826  0.49498835  1
  Ca2+  Ca14  1  0.08979979  0.33192535  0.83743926  1
  Ca2+  Ca15  1  0.07799637  0.83770185  0.16202794  1
  Ca2+  Ca16  1  0.07206494  0.83940229  0.49904501  1
  Ca2+  Ca17  1  0.08135115  0.83869024  0.82683238  1
  Ca2+  Ca18  1  0.57874440  0.33008850  0.15914818  1
  Ca2+  Ca19  1  0.57670920  0.32930819  0.49419133  1
  Ca2+  Ca20  1  0.59012480  0.32796319  0.83597264  1
  Ca2+  Ca21  1  0.57453657  0.82942543  0.16725675  1
  Ca2+  Ca22  1  0.57838511  0.82699343  0.49501149  1
  Ca2+  Ca23  1  0.56892657  0.82936007  0.82431928  1
  Ca2+  Ca24  1  0.33600660  0.42505233  0.17252325  1
  Ca2+  Ca25  1  0.34346322  0.42966698  0.50012617  1
  Ca2+  Ca26  1  0.33270434  0.43237185  0.84120322  1
  Ca2+  Ca27  1  0.34035825  0.92518734  0.16805172  1
  Ca2+  Ca28  1  0.33592396  0.91614458  0.50490538  1
  Ca2+  Ca29  1  0.32537911  0.91189509  0.84281933  1
  Ca2+  Ca30  1  0.82807644  0.41692059  0.16938471  1
  Ca2+  Ca31  1  0.83131808  0.43243764  0.50487279  1
  Ca2+  Ca32  1  0.83004840  0.42106020  0.84145205  1
  Ca2+  Ca33  1  0.82566251  0.91530169  0.17699669  1
  Ca2+  Ca34  1  0.82071366  0.90129362  0.50305356  1
  Ca2+  Ca35  1  0.82528603  0.90970800  0.83226255  1
  Ca2+  Ca36  1  0.41526351  0.16771866  0.16067713  1
  Ca2+  Ca37  1  0.41215820  0.17278739  0.49064515  1
  Ca2+  Ca38  1  0.41728389  0.16370775  0.83719302  1
  Ca2+  Ca39  1  0.40902284  0.67549579  0.16392025  1
  Ca2+  Ca40  1  0.42256418  0.67407504  0.49245039  1
  Ca2+  Ca41  1  0.41546632  0.67223245  0.82533767  1
  Ca2+  Ca42  1  0.92561636  0.17251020  0.15245591  1
  Ca2+  Ca43  1  0.91986894  0.16707767  0.49622757  1
  Ca2+  Ca44  1  0.92223753  0.17301391  0.83523755  1
  Ca2+  Ca45  1  0.91349263  0.66956173  0.16842334  1
  Ca2+  Ca46  1  0.91095470  0.67324977  0.49505411  1
  Ca2+  Ca47  1  0.92037020  0.66936794  0.82432060  1
  Al0+  Al48  1  -0.00153631  0.00169830  -0.00196253  1
  Al0+  Al49  1  0.00008799  0.00060112  0.32897497  1
  Al0+  Al50  1  0.00070496  0.00229629  0.66485080  1
  Al0+  Al51  1  0.00019061  0.50363981  -0.00082865  1
  Al0+  Al52  1  -0.00086273  0.49956167  0.33721622  1
  Al0+  Al53  1  -0.00006979  0.49897283  0.66896371  1
  Al0+  Al54  1  0.49912522  -0.00155170  -0.00532135  1
  Al0+  Al55  1  0.50001556  -0.00067088  0.34034211  1
  Al0+  Al56  1  0.50112973  0.00141866  0.66783373  1
  Al0+  Al57  1  0.50408235  0.50114953  0.00733800  1
  Al0+  Al58  1  0.50049157  0.49768431  0.33012120  1
  Al0+  Al59  1  0.50195441  0.49813727  0.66834369  1
  Al0+  Al60  1  0.25025139  0.24982134  -0.00142858  1
  Al0+  Al61  1  0.24976471  0.24860706  0.33297879  1
  Al0+  Al62  1  0.24979280  0.24907885  0.66524181  1
  Al0+  Al63  1  0.24622957  0.75120353  0.00486064  1
  Al0+  Al64  1  0.24762368  0.74959110  0.33352919  1
  Al0+  Al65  1  0.24886284  0.75070272  0.67007113  1
  Al0+  Al66  1  0.74997191  0.25054356  -0.00414252  1
  Al0+  Al67  1  0.75098416  0.24947685  0.33545383  1
  Al0+  Al68  1  0.75147070  0.25002074  0.66278401  1
  Al0+  Al69  1  0.74819208  0.74991809  0.00016499  1
  Al0+  Al70  1  0.75002173  0.74946236  0.33034790  1
  Al0+  Al71  1  0.74995952  0.75013126  0.67248192  1
  Al0+  Al72  1  0.32273832  0.06923654  0.01395769  1
  Al0+  Al73  1  0.31987260  0.06983321  0.34765782  1
  Al0+  Al74  1  0.42858554  0.81829275  0.98647715  1
  Al0+  Al75  1  0.68012911  0.92958505  0.34597649  1
  Al0+  Al76  1  0.92953139  0.32359639  0.98446202  1
  Al0+  Al77  1  0.32205966  0.57005537  0.67914271  1
  Al0+  Al78  1  0.32199090  0.57159425  0.34815662  1
  Al0+  Al79  1  0.17523592  0.92916356  0.01704270  1
  Al0+  Al80  1  0.93061442  0.82052037  0.65430373  1
  Al0+  Al81  1  0.57155297  0.67885861  0.31691052  1
  Al0+  Al82  1  0.17873052  0.42970042  0.01337581  1
  Al0+  Al83  1  0.67927882  0.92961707  0.68282942  1
  Al0+  Al84  1  0.17914645  0.93073307  0.67875987  1
  Al0+  Al85  1  0.07394116  0.17852720  0.98267970  1
  Al0+  Al86  1  0.42590946  0.82189205  0.65186054  1
  Al0+  Al87  1  0.68172492  0.42781725  0.01422137  1
  Al0+  Al88  1  0.42651422  0.82226036  0.31780806  1
  Al0+  Al89  1  0.32320043  0.57219277  0.01608109  1
  Al0+  Al90  1  0.57012664  0.67760393  0.65308748  1
  Al0+  Al91  1  0.56974051  0.17912291  0.98703603  1
  Al0+  Al92  1  0.42922676  0.31943803  0.31922824  1
  Al0+  Al93  1  0.92996574  0.81963600  0.31901642  1
  Al0+  Al94  1  0.82064646  0.57126053  0.68143708  1
  Al0+  Al95  1  0.81955436  0.56886838  0.34681258  1
  Si0+  Si96  1  0.07221264  0.67524942  0.65008640  1
  Si0+  Si97  1  0.57341354  0.17855589  0.65028460  1
  Si0+  Si98  1  0.07085633  0.18055896  0.64917404  1
  Si0+  Si99  1  0.42855948  0.32515089  0.98308771  1
  Si0+  Si100  1  0.42904979  0.31891556  0.65333563  1
  Si0+  Si101  1  0.32228914  0.07421178  0.68372041  1
  Si0+  Si102  1  0.17462055  0.92818305  0.35051735  1
  Si0+  Si103  1  0.17848957  0.42759570  0.34992541  1
  Si0+  Si104  1  0.06932137  0.68126678  0.98489922  1
  Si0+  Si105  1  0.82450975  0.07298440  0.34895185  1
  Si0+  Si106  1  0.81914162  0.07074865  0.01314508  1
  Si0+  Si107  1  0.67923168  0.42458195  0.68335770  1
  Si0+  Si108  1  0.57290677  0.17728315  0.31886931  1
  Si0+  Si109  1  0.67756999  0.42473120  0.35139066  1
  Si0+  Si110  1  0.92830455  0.32227184  0.64883436  1
  Si0+  Si111  1  0.82222249  0.07479979  0.68385757  1
  Si0+  Si112  1  0.57391896  0.67691590  0.98251151  1
  Si0+  Si113  1  0.92616046  0.82202903  0.98466008  1
  Si0+  Si114  1  0.17808773  0.42565664  0.68228627  1
  Si0+  Si115  1  0.92928943  0.32190720  0.31964182  1
  Si0+  Si116  1  0.82208209  0.57420710  0.01749907  1
  Si0+  Si117  1  0.07194796  0.67530565  0.31597118  1
  Si0+  Si118  1  0.67881053  0.92865126  0.01502377  1
  Si0+  Si119  1  0.07031236  0.17972131  0.31756240  1
  O2-  O120  1  0.24918672  -0.00026436  0.06559398  1
  O2-  O121  1  0.24891080  -0.00870567  0.39426751  1
  O2-  O122  1  0.25937138  -0.00041298  0.72520123  1
  O2-  O123  1  0.25583666  0.49446751  0.06499669  1
  O2-  O124  1  0.24697882  0.49589595  0.39472423  1
  O2-  O125  1  0.24489102  0.49656363  0.72424946  1
  O2-  O126  1  0.75067133  -0.00120729  0.05746125  1
  O2-  O127  1  0.75640175  0.00418455  0.39277069  1
  O2-  O128  1  0.75401143  0.00603440  0.72850635  1
  O2-  O129  1  0.75541303  0.50344341  0.06080342  1
  O2-  O130  1  0.74310130  0.49647115  0.39508686  1
  O2-  O131  1  0.74663027  0.49511728  0.72623330  1
  O2-  O132  1  -0.00214317  0.24973638  0.27676252  1
  O2-  O133  1  0.00101121  0.25291637  0.60613370  1
  O2-  O134  1  0.00480753  0.25489587  0.93375531  1
  O2-  O135  1  0.00565557  0.74671182  0.27147949  1
  O2-  O136  1  0.00339289  0.74427147  0.60626266  1
  O2-  O137  1  -0.00156637  0.75283229  0.94279224  1
  O2-  O138  1  0.50540616  0.24585097  0.27367472  1
  O2-  O139  1  0.49906344  0.24685530  0.61006025  1
  O2-  O140  1  0.49577474  0.25444498  0.93874735  1
  O2-  O141  1  0.49501786  0.74657557  0.26753214  1
  O2-  O142  1  0.49711727  0.74849454  0.60292203  1
  O2-  O143  1  0.49998132  0.74020209  0.93993783  1
  O2-  O144  1  0.06818368  0.17707111  0.09665964  1
  O2-  O145  1  0.06907647  0.18047713  0.42334834  1
  O2-  O146  1  0.07090010  0.18157200  0.75342522  1
  O2-  O147  1  0.06682691  0.67995953  0.08995865  1
  O2-  O148  1  0.07093046  0.67405042  0.42165621  1
  O2-  O149  1  0.07030502  0.67419519  0.75585026  1
  O2-  O150  1  0.57062743  0.17934593  0.10008471  1
  O2-  O151  1  0.57337635  0.17992829  0.42488446  1
  O2-  O152  1  0.57617754  0.18001098  0.75520509  1
  O2-  O153  1  0.58081740  0.68089904  0.08747822  1
  O2-  O154  1  0.57273941  0.68274534  0.43046396  1
  O2-  O155  1  0.56837407  0.67736000  0.76691177  1
  O2-  O156  1  0.17675598  0.42724902  0.24486114  1
  O2-  O157  1  0.17857896  0.42230804  0.57653323  1
  O2-  O158  1  0.17993002  0.43539586  0.89942856  1
  O2-  O159  1  0.16870739  0.93346954  0.24567706  1
  O2-  O160  1  0.17504531  0.93611335  0.56568999  1
  O2-  O161  1  0.17454351  0.92968356  0.90323784  1
  O2-  O162  1  0.68241681  0.41910970  0.24617926  1
  O2-  O163  1  0.68134317  0.41858134  0.57802784  1
  O2-  O164  1  0.68389019  0.42795363  0.90088045  1
  O2-  O165  1  0.68167506  0.93305402  0.23240422  1
  O2-  O166  1  0.68111892  0.93033282  0.56973374  1
  O2-  O167  1  0.68131419  0.92868800  0.90995090  1
  O2-  O168  1  0.43042153  0.32448294  0.08860613  1
  O2-  O169  1  0.43053166  0.31780772  0.43329034  1
  O2-  O170  1  0.42810731  0.31802991  0.75810608  1
  O2-  O171  1  0.43285694  0.82110462  0.09931584  1
  O2-  O172  1  0.42791240  0.82275006  0.43131097  1
  O2-  O173  1  0.42599122  0.82063558  0.76565054  1
  O2-  O174  1  0.92865412  0.31933953  0.09871057  1
  O2-  O175  1  0.93114530  0.32069273  0.42516891  1
  O2-  O176  1  0.92570934  0.32105995  0.75319514  1
  O2-  O177  1  0.92386883  0.82070142  0.08979743  1
  O2-  O178  1  0.93028889  0.81931487  0.43213752  1
  O2-  O179  1  0.93225710  0.81973407  0.76780524  1
  O2-  O180  1  0.31820472  0.07340963  0.23527471  1
  O2-  O181  1  0.31827187  0.08008502  0.57801955  1
  O2-  O182  1  0.32329732  0.06541977  0.90010018  1
  O2-  O183  1  0.31915216  0.56991173  0.23568782  1
  O2-  O184  1  0.32242754  0.56751939  0.56589655  1
  O2-  O185  1  0.32120341  0.57251804  0.90209889  1
  O2-  O186  1  0.82483496  0.07476536  0.24334954  1
  O2-  O187  1  0.82046848  0.07853936  0.57814253  1
  O2-  O188  1  0.81837990  0.06949330  0.90799658  1
  O2-  O189  1  0.82144416  0.56474208  0.23378643  1
  O2-  O190  1  0.82105557  0.56970605  0.56830993  1
  O2-  O191  1  0.82071469  0.57651388  0.91188684  1
  O2-  O192  1  0.04326117  0.08871803  0.26920476  1
  O2-  O193  1  0.04032596  0.09103580  0.59892635  1
  O2-  O194  1  0.03736211  0.08254917  0.92851307  1
  O2-  O195  1  0.04154231  0.58261881  0.27028313  1
  O2-  O196  1  0.04810464  0.58087124  0.60427132  1
  O2-  O197  1  0.04146519  0.59094896  0.93450233  1
  O2-  O198  1  0.54749947  0.08344453  0.27520294  1
  O2-  O199  1  0.54807859  0.08636541  0.60318500  1
  O2-  O200  1  0.53914757  0.08405935  0.92941586  1
  O2-  O201  1  0.55163222  0.57698757  0.26833373  1
  O2-  O202  1  0.54877344  0.57628114  0.60179684  1
  O2-  O203  1  0.55542439  0.58021436  0.94043490  1
  O2-  O204  1  0.16101861  0.20875384  0.27036185  1
  O2-  O205  1  0.16259198  0.20857612  0.60022138  1
  O2-  O206  1  0.17283207  0.20295278  0.92823908  1
  O2-  O207  1  0.16557568  0.69819086  0.26975134  1
  O2-  O208  1  0.16530682  0.70237386  0.60476642  1
  O2-  O209  1  0.16056999  0.70883625  0.93671949  1
  O2-  O210  1  0.66820703  0.20067134  0.27398791  1
  O2-  O211  1  0.66373171  0.20854990  0.60060657  1
  O2-  O212  1  0.66518864  0.21020113  0.93029205  1
  O2-  O213  1  0.66805676  0.71065361  0.26192225  1
  O2-  O214  1  0.66908222  0.70958342  0.60383617  1
  O2-  O215  1  0.66569813  0.70797307  0.93398510  1
  O2-  O216  1  0.08109172  0.46225049  0.06678168  1
  O2-  O217  1  0.08494451  0.45243519  0.39770190  1
  O2-  O218  1  0.08327567  0.44677094  0.72717948  1
  O2-  O219  1  0.07592281  0.95937098  0.06837685  1
  O2-  O220  1  0.08327377  0.96186987  0.39842634  1
  O2-  O221  1  0.08407117  0.96738715  0.73312714  1
  O2-  O222  1  0.58614440  0.45520094  0.07112421  1
  O2-  O223  1  0.58245956  0.44556526  0.39497318  1
  O2-  O224  1  0.58546033  0.44678095  0.72983947  1
  O2-  O225  1  0.58806612  0.95951838  0.06060966  1
  O2-  O226  1  0.58634087  0.96098674  0.40457012  1
  O2-  O227  1  0.58316407  0.96297169  0.73706814  1
  O2-  O228  1  0.19702283  0.32763527  0.06167655  1
  O2-  O229  1  0.20340896  0.33379256  0.39636861  1
  O2-  O230  1  0.20605170  0.33269590  0.72879572  1
  O2-  O231  1  0.19765086  0.83025303  0.06987940  1
  O2-  O232  1  0.19139915  0.83171946  0.39313077  1
  O2-  O233  1  0.20096369  0.83244060  0.73312493  1
  O2-  O234  1  0.71365361  0.33128663  0.06819465  1
  O2-  O235  1  0.70635981  0.33236444  0.40050363  1
  O2-  O236  1  0.70903470  0.33192774  0.73011813  1
  O2-  O237  1  0.70741673  0.83717288  0.06245312  1
  O2-  O238  1  0.71444779  0.83413786  0.39894814  1
  O2-  O239  1  0.71224939  0.83562485  0.73957816  1
  O2-  O240  1  0.45893988  0.41470398  0.26367316  1
  O2-  O241  1  0.45942032  0.40939770  0.60494212  1
  O2-  O242  1  0.45888239  0.41838916  0.93839821  1
  O2-  O243  1  0.46021596  0.92111438  0.26824185  1
  O2-  O244  1  0.45480786  0.92240606  0.60260167  1
  O2-  O245  1  0.46280776  0.91240034  0.93008031  1
  O2-  O246  1  0.95755043  0.41307671  0.27229415  1
  O2-  O247  1  0.95614166  0.41433195  0.60143324  1
  O2-  O248  1  0.95350217  0.42394355  0.93322511  1
  O2-  O249  1  0.95749312  0.91773428  0.26486439  1
  O2-  O250  1  0.96013127  0.91795885  0.60026019  1
  O2-  O251  1  0.95045617  0.91456237  0.93781811  1
  O2-  O252  1  0.33232781  0.28838185  0.26653099  1
  O2-  O253  1  0.33745743  0.29166334  0.60421542  1
  O2-  O254  1  0.33477835  0.30212361  0.93670960  1
  O2-  O255  1  0.32546060  0.79834305  0.26764056  1
  O2-  O256  1  0.32601707  0.79645600  0.60060926  1
  O2-  O257  1  0.32865528  0.79130183  0.93731279  1
  O2-  O258  1  0.83606106  0.29610065  0.27406408  1
  O2-  O259  1  0.83811827  0.29232626  0.59867678  1
  O2-  O260  1  0.83407852  0.28915983  0.92928757  1
  O2-  O261  1  0.83545920  0.78739456  0.26274372  1
  O2-  O262  1  0.83360584  0.78820151  0.60326687  1
  O2-  O263  1  0.83471717  0.79202180  0.93698365  1
  O2-  O264  1  0.42106037  0.03878680  0.06686931  1
  O2-  O265  1  0.41700211  0.04580294  0.40386048  1
  O2-  O266  1  0.41903719  0.05769987  0.72544611  1
  O2-  O267  1  0.42313756  0.55072148  0.06780890  1
  O2-  O268  1  0.41870396  0.53734159  0.40014867  1
  O2-  O269  1  0.41710890  0.53559954  0.73409280  1
  O2-  O270  1  0.91101760  0.04505819  0.06098548  1
  O2-  O271  1  0.91853338  0.04854054  0.39485579  1
  O2-  O272  1  0.91653653  0.05038583  0.72782851  1
  O2-  O273  1  0.91650030  0.55242661  0.06227484  1
  O2-  O274  1  0.91515207  0.53678720  0.40341428  1
  O2-  O275  1  0.91774322  0.53988084  0.73498666  1
  O2-  O276  1  0.29912889  0.17034725  0.06305937  1
  O2-  O277  1  0.28383833  0.16516907  0.40320898  1
  O2-  O278  1  0.29011058  0.16541235  0.73135672  1
  O2-  O279  1  0.28502009  0.66661179  0.06982612  1
  O2-  O280  1  0.28879071  0.66785366  0.40227904  1
  O2-  O281  1  0.29059633  0.66575306  0.73367580  1
  O2-  O282  1  0.79060532  0.16192938  0.06062793  1
  O2-  O283  1  0.80034346  0.16665780  0.39705811  1
  O2-  O284  1  0.79583398  0.16851332  0.72970636  1
  O2-  O285  1  0.79314387  0.66700290  0.06453213  1
  O2-  O286  1  0.79043895  0.66653117  0.39873934  1
  O2-  O287  1  0.79092445  0.66573152  0.73897234  1
