# generated using pymatgen
data_Ca2Al2SiO7
_symmetry_space_group_name_H-M   'P 1'
_cell_length_a   15.46304093
_cell_length_b   15.46145067
_cell_length_c   15.28805421
_cell_angle_alpha   89.99613666
_cell_angle_beta   90.00343574
_cell_angle_gamma   90.01117942
_symmetry_Int_Tables_number   1
_chemical_formula_structural   Ca2Al2SiO7
_chemical_formula_sum   'Ca48 Al48 Si24 O168'
_cell_volume   3655.08388333
_cell_formula_units_Z   24
loop_
 _symmetry_equiv_pos_site_id
 _symmetry_equiv_pos_as_xyz
  1  'x, y, z'
loop_
 _atom_type_symbol
 _atom_type_oxidation_number
  Ca2+  2.0
  Al0+  0.0
  Si0+  0.0
  O2-  -2.0
loop_
 _atom_site_type_symbol
 _atom_site_label
 _atom_site_symmetry_multiplicity
 _atom_site_fract_x
 _atom_site_fract_y
 _atom_site_fract_z
 _atom_site_occupancy
  Ca2+  Ca0  1  0.17494554  0.07576080  0.16835926  1
  Ca2+  Ca1  1  0.16538803  0.07171923  0.50232658  1
  Ca2+  Ca2  1  0.16535582  0.07341549  0.84345306  1
  Ca2+  Ca3  1  0.16613884  0.57417847  0.17163617  1
  Ca2+  Ca4  1  0.17598444  0.58736525  0.50422402  1
  Ca2+  Ca5  1  0.16564190  0.58317225  0.83910554  1
  Ca2+  Ca6  1  0.66666519  0.07714891  0.17569436  1
  Ca2+  Ca7  1  0.66293493  0.07872190  0.49740771  1
  Ca2+  Ca8  1  0.67198858  0.08160143  0.83753785  1
  Ca2+  Ca9  1  0.67570659  0.58733676  0.17219811  1
  Ca2+  Ca10  1  0.67317086  0.58260212  0.49777937  1
  Ca2+  Ca11  1  0.67423978  0.59181247  0.84242887  1
  Ca2+  Ca12  1  0.09437644  0.33006777  0.15851290  1
  Ca2+  Ca13  1  0.09142701  0.32665512  0.49591518  1
  Ca2+  Ca14  1  0.09605179  0.32026019  0.83392963  1
  Ca2+  Ca15  1  0.07597572  0.83276744  0.15894389  1
  Ca2+  Ca16  1  0.08558003  0.83070511  0.49494554  1
  Ca2+  Ca17  1  0.09160682  0.82486872  0.83077154  1
  Ca2+  Ca18  1  0.57878103  0.33070595  0.16380587  1
  Ca2+  Ca19  1  0.58359718  0.32781897  0.48794524  1
  Ca2+  Ca20  1  0.57377870  0.33517300  0.83324692  1
  Ca2+  Ca21  1  0.57726422  0.83005738  0.15836964  1
  Ca2+  Ca22  1  0.57453047  0.83734059  0.49388329  1
  Ca2+  Ca23  1  0.56930930  0.82835180  0.83545360  1
  Ca2+  Ca24  1  0.32676735  0.41960825  0.17011255  1
  Ca2+  Ca25  1  0.33100993  0.42957100  0.49812518  1
  Ca2+  Ca26  1  0.32958545  0.42280528  0.84113320  1
  Ca2+  Ca27  1  0.32397809  0.91894962  0.17096983  1
  Ca2+  Ca28  1  0.32402756  0.91800120  0.50471530  1
  Ca2+  Ca29  1  0.32490199  0.91727369  0.84081659  1
  Ca2+  Ca30  1  0.82987736  0.43262918  0.17371740  1
  Ca2+  Ca31  1  0.82944069  0.41815634  0.49761849  1
  Ca2+  Ca32  1  0.83089734  0.42434683  0.84276608  1
  Ca2+  Ca33  1  0.82932989  0.90813455  0.17393486  1
  Ca2+  Ca34  1  0.82831519  0.90880648  0.49615206  1
  Ca2+  Ca35  1  0.83397460  0.91191109  0.83986103  1
  Ca2+  Ca36  1  0.41353383  0.16661290  0.16159462  1
  Ca2+  Ca37  1  0.42032965  0.16597609  0.48925103  1
  Ca2+  Ca38  1  0.40453573  0.17376377  0.83619597  1
  Ca2+  Ca39  1  0.42181985  0.66932012  0.15889733  1
  Ca2+  Ca40  1  0.40801010  0.66978681  0.49824625  1
  Ca2+  Ca41  1  0.40660648  0.67986703  0.82994268  1
  Ca2+  Ca42  1  0.92615391  0.17157894  0.16020600  1
  Ca2+  Ca43  1  0.92382345  0.16626072  0.49693030  1
  Ca2+  Ca44  1  0.93364938  0.16463007  0.83061391  1
  Ca2+  Ca45  1  0.91654161  0.67282204  0.15882178  1
  Ca2+  Ca46  1  0.92383774  0.66955402  0.49257425  1
  Ca2+  Ca47  1  0.92859353  0.66718067  0.83747948  1
  Al0+  Al48  1  -0.00162008  0.00157642  -0.00250534  1
  Al0+  Al49  1  -0.00049961  0.00037591  0.33133791  1
  Al0+  Al50  1  -0.00191092  0.00061420  0.66509099  1
  Al0+  Al51  1  -0.00254879  0.50106515  0.00551115  1
  Al0+  Al52  1  -0.00018830  0.49814308  0.34169012  1
  Al0+  Al53  1  -0.00158002  0.49937698  0.66282505  1
  Al0+  Al54  1  0.50238742  0.00062966  -0.00254075  1
  Al0+  Al55  1  0.50117495  0.00068065  0.33514617  1
  Al0+  Al56  1  0.50022452  0.00020447  0.66500265  1
  Al0+  Al57  1  0.50210216  0.49702656  -0.00834067  1
  Al0+  Al58  1  0.49987794  0.49960181  0.33956002  1
  Al0+  Al59  1  0.50043674  0.50052872  0.67036410  1
  Al0+  Al60  1  0.25188675  0.25022310  -0.00157512  1
  Al0+  Al61  1  0.25256379  0.25013001  0.33970024  1
  Al0+  Al62  1  0.25114292  0.25040368  0.65735338  1
  Al0+  Al63  1  0.24944937  0.74986337  -0.00084531  1
  Al0+  Al64  1  0.24888619  0.74988378  0.33619009  1
  Al0+  Al65  1  0.24981327  0.75099857  0.66521748  1
  Al0+  Al66  1  0.74968493  0.25007684  -0.00022947  1
  Al0+  Al67  1  0.75121542  0.24902788  0.33073988  1
  Al0+  Al68  1  0.74961448  0.24977365  0.66861236  1
  Al0+  Al69  1  0.75015509  0.75062739  -0.00404952  1
  Al0+  Al70  1  0.74968297  0.75067518  0.34045725  1
  Al0+  Al71  1  0.74855702  0.74901237  0.66852597  1
  Al0+  Al72  1  0.82119562  0.57305953  0.35075070  1
  Al0+  Al73  1  0.57146351  0.17814096  0.31852100  1
  Al0+  Al74  1  0.92960437  0.81917435  0.32058629  1
  Al0+  Al75  1  0.17832887  0.93113351  0.68124386  1
  Al0+  Al76  1  0.07008434  0.67925975  0.65170548  1
  Al0+  Al77  1  0.32133589  0.57226943  0.34616398  1
  Al0+  Al78  1  0.07139340  0.67692202  0.98802387  1
  Al0+  Al79  1  0.32205482  0.06962175  0.34875974  1
  Al0+  Al80  1  0.17632714  0.92962952  0.34819931  1
  Al0+  Al81  1  0.17811724  0.42732143  0.34937055  1
  Al0+  Al82  1  0.81839809  0.57137144  0.01354663  1
  Al0+  Al83  1  0.67970997  0.42775216  0.34678382  1
  Al0+  Al84  1  0.18010504  0.43070740  0.01071137  1
  Al0+  Al85  1  0.42964763  0.31959272  0.98670038  1
  Al0+  Al86  1  0.17686720  0.92621278  0.01540760  1
  Al0+  Al87  1  0.31967032  0.57037171  0.68293756  1
  Al0+  Al88  1  0.07109534  0.17850464  0.65044088  1
  Al0+  Al89  1  0.07144621  0.18096389  0.98860033  1
  Al0+  Al90  1  0.67926134  0.92916681  0.34601876  1
  Al0+  Al91  1  0.43025320  0.82039356  0.65072559  1
  Al0+  Al92  1  0.92907099  0.82204446  0.98528867  1
  Al0+  Al93  1  0.57113951  0.67832187  0.98693638  1
  Al0+  Al94  1  0.42738508  0.82228757  0.98693722  1
  Al0+  Al95  1  0.32199695  0.07084731  0.01336073  1
  Si0+  Si96  1  0.92562290  0.32062131  0.64946832  1
  Si0+  Si97  1  0.82257420  0.07260342  0.34944546  1
  Si0+  Si98  1  0.67628192  0.42541077  0.01636598  1
  Si0+  Si99  1  0.43015263  0.32291556  0.64864067  1
  Si0+  Si100  1  0.07293653  0.67591808  0.31720092  1
  Si0+  Si101  1  0.57233699  0.18080599  0.65130583  1
  Si0+  Si102  1  0.32480122  0.57243464  0.01402121  1
  Si0+  Si103  1  0.92871062  0.32181776  0.31772493  1
  Si0+  Si104  1  0.57471448  0.17732399  0.98153958  1
  Si0+  Si105  1  0.82102386  0.57086111  0.68393145  1
  Si0+  Si106  1  0.81923759  0.07150388  0.68218952  1
  Si0+  Si107  1  0.67749376  0.92880729  0.68355827  1
  Si0+  Si108  1  0.67980032  0.42735747  0.68368974  1
  Si0+  Si109  1  0.42813756  0.82118455  0.31913295  1
  Si0+  Si110  1  0.82168495  0.07389795  0.01516816  1
  Si0+  Si111  1  0.17763757  0.42668038  0.68301273  1
  Si0+  Si112  1  0.57013920  0.67878589  0.32143079  1
  Si0+  Si113  1  0.68162276  0.93088701  0.01362397  1
  Si0+  Si114  1  0.57362605  0.67750942  0.64789088  1
  Si0+  Si115  1  0.07225802  0.18087742  0.31747675  1
  Si0+  Si116  1  0.92658057  0.32255651  0.98504270  1
  Si0+  Si117  1  0.42889532  0.32260793  0.31652900  1
  Si0+  Si118  1  0.32355514  0.07324546  0.68259030  1
  Si0+  Si119  1  0.92509880  0.82177656  0.64911561  1
  O2-  O120  1  0.25292140  -0.00406470  0.06283403  1
  O2-  O121  1  0.24988945  -0.00086388  0.39986078  1
  O2-  O122  1  0.25242678  0.00766147  0.72646297  1
  O2-  O123  1  0.25252255  0.50752369  0.05767433  1
  O2-  O124  1  0.24572936  0.50416833  0.39723497  1
  O2-  O125  1  0.24384816  0.49631660  0.72889555  1
  O2-  O126  1  0.75220851  0.00168840  0.05674370  1
  O2-  O127  1  0.75405433  0.00373221  0.39385736  1
  O2-  O128  1  0.75145561  -0.00259052  0.72496527  1
  O2-  O129  1  0.74213876  0.49713963  0.05867979  1
  O2-  O130  1  0.75059915  0.49870138  0.40013690  1
  O2-  O131  1  0.74907781  0.49994600  0.72564094  1
  O2-  O132  1  0.00472350  0.25593560  0.27567603  1
  O2-  O133  1  -0.00211797  0.25596507  0.60467951  1
  O2-  O134  1  -0.00320971  0.25602058  0.94023053  1
  O2-  O135  1  0.00355954  0.74431735  0.27388830  1
  O2-  O136  1  -0.00479909  0.75472701  0.60579014  1
  O2-  O137  1  0.00599167  0.75501611  0.93635067  1
  O2-  O138  1  0.49693046  0.25282648  0.27269331  1
  O2-  O139  1  0.50042896  0.25002848  0.60828559  1
  O2-  O140  1  0.50395764  0.24412188  0.93805763  1
  O2-  O141  1  0.49774083  0.74779114  0.27860310  1
  O2-  O142  1  0.50456512  0.74499990  0.60300315  1
  O2-  O143  1  0.49335857  0.74383671  0.93667825  1
  O2-  O144  1  0.06978618  0.18276307  0.10176101  1
  O2-  O145  1  0.06801055  0.18024899  0.42284873  1
  O2-  O146  1  0.07026587  0.17945844  0.76353766  1
  O2-  O147  1  0.06735203  0.67290820  0.10121856  1
  O2-  O148  1  0.07240068  0.67829254  0.42317052  1
  O2-  O149  1  0.06782278  0.67680512  0.76450781  1
  O2-  O150  1  0.57914745  0.17799144  0.08657667  1
  O2-  O151  1  0.57098201  0.17986674  0.43244481  1
  O2-  O152  1  0.57592019  0.18267169  0.75629052  1
  O2-  O153  1  0.57220148  0.68154289  0.10109524  1
  O2-  O154  1  0.57023505  0.68063762  0.42666519  1
  O2-  O155  1  0.57734281  0.68031335  0.75309898  1
  O2-  O156  1  0.18083846  0.42622585  0.23558504  1
  O2-  O157  1  0.18069671  0.42649600  0.57771460  1
  O2-  O158  1  0.18225314  0.42885748  0.89739347  1
  O2-  O159  1  0.17548351  0.93080362  0.23509947  1
  O2-  O160  1  0.17869767  0.93244878  0.56822264  1
  O2-  O161  1  0.17668806  0.92911338  0.90147093  1
  O2-  O162  1  0.68052786  0.42974647  0.23352276  1
  O2-  O163  1  0.68151988  0.42413867  0.57896844  1
  O2-  O164  1  0.68004925  0.42139607  0.91035132  1
  O2-  O165  1  0.67976995  0.92892218  0.23292099  1
  O2-  O166  1  0.67694251  0.93037674  0.57855780  1
  O2-  O167  1  0.68254965  0.93355174  0.90799451  1
  O2-  O168  1  0.43135852  0.32031281  0.09941369  1
  O2-  O169  1  0.43167471  0.32201979  0.42254637  1
  O2-  O170  1  0.43000107  0.32172683  0.75384504  1
  O2-  O171  1  0.43177179  0.82357533  0.10084869  1
  O2-  O172  1  0.43004247  0.82134630  0.42446466  1
  O2-  O173  1  0.43252778  0.82150709  0.76348051  1
  O2-  O174  1  0.92365592  0.31903238  0.09046059  1
  O2-  O175  1  0.92547144  0.31728322  0.42296120  1
  O2-  O176  1  0.92092069  0.31787116  0.75482664  1
  O2-  O177  1  0.92504932  0.81916229  0.09875157  1
  O2-  O178  1  0.92933322  0.81811537  0.43396454  1
  O2-  O179  1  0.92165326  0.82044993  0.75427542  1
  O2-  O180  1  0.32097656  0.06914915  0.23541256  1
  O2-  O181  1  0.32599280  0.07128181  0.57724258  1
  O2-  O182  1  0.31842047  0.07212251  0.89927737  1
  O2-  O183  1  0.32477669  0.57090971  0.23257678  1
  O2-  O184  1  0.32056869  0.56799383  0.57007976  1
  O2-  O185  1  0.32427609  0.56965786  0.90823223  1
  O2-  O186  1  0.82219076  0.07354850  0.24391339  1
  O2-  O187  1  0.81667808  0.07498069  0.57740612  1
  O2-  O188  1  0.81876069  0.07658565  0.90965208  1
  O2-  O189  1  0.81842922  0.57401891  0.23726548  1
  O2-  O190  1  0.81922711  0.57089207  0.57920073  1
  O2-  O191  1  0.81818039  0.56833927  0.89979165  1
  O2-  O192  1  0.04011453  0.09093017  0.26981708  1
  O2-  O193  1  0.03373827  0.08418049  0.59568878  1
  O2-  O194  1  0.03702601  0.08694568  0.93200441  1
  O2-  O195  1  0.04815142  0.57979043  0.27633448  1
  O2-  O196  1  0.03936981  0.58207953  0.59754341  1
  O2-  O197  1  0.03537832  0.58064100  0.93332798  1
  O2-  O198  1  0.54230363  0.08099279  0.26491529  1
  O2-  O199  1  0.54679357  0.08787964  0.60516696  1
  O2-  O200  1  0.55346648  0.08358491  0.93418149  1
  O2-  O201  1  0.54500372  0.58581455  0.27533323  1
  O2-  O202  1  0.55017852  0.58174778  0.60550379  1
  O2-  O203  1  0.55591685  0.57737823  0.93420609  1
  O2-  O204  1  0.16602259  0.20719643  0.27418403  1
  O2-  O205  1  0.16737384  0.20730196  0.59432798  1
  O2-  O206  1  0.16610100  0.21236093  0.93204246  1
  O2-  O207  1  0.16698625  0.69999683  0.27180428  1
  O2-  O208  1  0.16581615  0.71136944  0.59768901  1
  O2-  O209  1  0.17144163  0.69796008  0.93515272  1
  O2-  O210  1  0.66896337  0.20675244  0.26474174  1
  O2-  O211  1  0.66369000  0.20999184  0.60337589  1
  O2-  O212  1  0.66721462  0.20630821  0.93284333  1
  O2-  O213  1  0.66164414  0.70944661  0.27577353  1
  O2-  O214  1  0.66717172  0.70444781  0.60149012  1
  O2-  O215  1  0.66478373  0.71547479  0.92977375  1
  O2-  O216  1  0.08245736  0.45511010  0.06564659  1
  O2-  O217  1  0.07803154  0.44525830  0.40278171  1
  O2-  O218  1  0.08087987  0.44695713  0.72452992  1
  O2-  O219  1  0.07808080  0.95895040  0.06534396  1
  O2-  O220  1  0.07888500  0.96154658  0.40167725  1
  O2-  O221  1  0.07948634  0.96001712  0.73211659  1
  O2-  O222  1  0.58095750  0.44660021  0.05941254  1
  O2-  O223  1  0.58250587  0.45431648  0.40269315  1
  O2-  O224  1  0.58741429  0.45307261  0.73066424  1
  O2-  O225  1  0.59014755  0.95825472  0.06109796  1
  O2-  O226  1  0.58528100  0.96249619  0.40317138  1
  O2-  O227  1  0.58770330  0.96155824  0.73177866  1
  O2-  O228  1  0.21472661  0.33566429  0.06468819  1
  O2-  O229  1  0.21151738  0.33205026  0.40545502  1
  O2-  O230  1  0.20767216  0.33237853  0.72598058  1
  O2-  O231  1  0.20131641  0.82648947  0.06770857  1
  O2-  O232  1  0.20313655  0.83075634  0.39985302  1
  O2-  O233  1  0.21160478  0.83490016  0.73292030  1
  O2-  O234  1  0.70375055  0.33252313  0.06319305  1
  O2-  O235  1  0.71073330  0.32936175  0.39995784  1
  O2-  O236  1  0.70900325  0.33633067  0.73270293  1
  O2-  O237  1  0.70969876  0.83935776  0.06015329  1
  O2-  O238  1  0.70917876  0.83553188  0.40575794  1
  O2-  O239  1  0.70355169  0.83605301  0.72990080  1
  O2-  O240  1  0.45600208  0.41627306  0.27159674  1
  O2-  O241  1  0.46162712  0.41431126  0.60295478  1
  O2-  O242  1  0.46127529  0.41310084  0.92603036  1
  O2-  O243  1  0.46006856  0.91158402  0.27283993  1
  O2-  O244  1  0.46417390  0.91707965  0.59719335  1
  O2-  O245  1  0.46340152  0.91767777  0.93134335  1
  O2-  O246  1  0.95069044  0.41661213  0.27396746  1
  O2-  O247  1  0.94576492  0.41533346  0.60396656  1
  O2-  O248  1  0.94924294  0.41677165  0.94047894  1
  O2-  O249  1  0.95549189  0.91776939  0.26727346  1
  O2-  O250  1  0.94570068  0.91722499  0.60502681  1
  O2-  O251  1  0.94694402  0.92341405  0.93392729  1
  O2-  O252  1  0.33471874  0.29632706  0.27238526  1
  O2-  O253  1  0.33911308  0.29762821  0.59911466  1
  O2-  O254  1  0.33532209  0.28816048  0.92831462  1
  O2-  O255  1  0.33565034  0.79512257  0.27278741  1
  O2-  O256  1  0.33434155  0.78921360  0.59683250  1
  O2-  O257  1  0.32854771  0.79837621  0.93323328  1
  O2-  O258  1  0.83985968  0.28962326  0.26749202  1
  O2-  O259  1  0.83372290  0.28908632  0.60175489  1
  O2-  O260  1  0.83376377  0.29515883  0.93677903  1
  O2-  O261  1  0.83052139  0.78926819  0.27012395  1
  O2-  O262  1  0.83117539  0.79360154  0.60354997  1
  O2-  O263  1  0.83328498  0.78923729  0.92919010  1
  O2-  O264  1  0.42438072  0.04982245  0.06164730  1
  O2-  O265  1  0.42033503  0.04223660  0.40216479  1
  O2-  O266  1  0.41768676  0.04819338  0.72850154  1
  O2-  O267  1  0.41841231  0.54178743  0.05723937  1
  O2-  O268  1  0.41719934  0.54174203  0.40397186  1
  O2-  O269  1  0.41757857  0.54043536  0.73572734  1
  O2-  O270  1  0.91377735  0.05017375  0.06248131  1
  O2-  O271  1  0.91507416  0.04623957  0.39671819  1
  O2-  O272  1  0.91136991  0.04592945  0.72949605  1
  O2-  O273  1  0.91214562  0.53923984  0.07113314  1
  O2-  O274  1  0.91835224  0.54424277  0.40511535  1
  O2-  O275  1  0.91274698  0.54124072  0.73016813  1
  O2-  O276  1  0.29152736  0.16826463  0.06643392  1
  O2-  O277  1  0.29727383  0.16829060  0.40237807  1
  O2-  O278  1  0.29953049  0.16980813  0.72325957  1
  O2-  O279  1  0.30602687  0.66758394  0.05827980  1
  O2-  O280  1  0.29492466  0.67014779  0.40132124  1
  O2-  O281  1  0.28823855  0.66738022  0.73409461  1
  O2-  O282  1  0.79231419  0.16489187  0.06378864  1
  O2-  O283  1  0.79626752  0.16510246  0.39709601  1
  O2-  O284  1  0.78730528  0.16124894  0.73210186  1
  O2-  O285  1  0.78557403  0.66795898  0.06593401  1
  O2-  O286  1  0.78842331  0.66778976  0.40790977  1
  O2-  O287  1  0.79197308  0.66264703  0.73103850  1
