# generated using pymatgen
data_Ca2Al2SiO7
_symmetry_space_group_name_H-M   'P 1'
_cell_length_a   15.46381479
_cell_length_b   15.46639870
_cell_length_c   15.28935474
_cell_angle_alpha   89.99698675
_cell_angle_beta   90.00452600
_cell_angle_gamma   89.99461783
_symmetry_Int_Tables_number   1
_chemical_formula_structural   Ca2Al2SiO7
_chemical_formula_sum   'Ca48 Al48 Si24 O168'
_cell_volume   3656.74767679
_cell_formula_units_Z   24
loop_
 _symmetry_equiv_pos_site_id
 _symmetry_equiv_pos_as_xyz
  1  'x, y, z'
loop_
 _atom_type_symbol
 _atom_type_oxidation_number
  Ca2+  2.0
  Al0+  0.0
  Si0+  0.0
  O2-  -2.0
loop_
 _atom_site_type_symbol
 _atom_site_label
 _atom_site_symmetry_multiplicity
 _atom_site_fract_x
 _atom_site_fract_y
 _atom_site_fract_z
 _atom_site_occupancy
  Ca2+  Ca0  1  0.17772639  0.09019370  0.16894915  1
  Ca2+  Ca1  1  0.17335742  0.08573943  0.50421212  1
  Ca2+  Ca2  1  0.16917836  0.08958016  0.84005909  1
  Ca2+  Ca3  1  0.17388160  0.57078598  0.16668780  1
  Ca2+  Ca4  1  0.16741956  0.57248722  0.50941344  1
  Ca2+  Ca5  1  0.17104888  0.57402727  0.83822217  1
  Ca2+  Ca6  1  0.67317281  0.09438286  0.16516927  1
  Ca2+  Ca7  1  0.65874711  0.07582628  0.51039641  1
  Ca2+  Ca8  1  0.66117942  0.08110923  0.83901728  1
  Ca2+  Ca9  1  0.66892854  0.59185075  0.16765856  1
  Ca2+  Ca10  1  0.67169638  0.58228862  0.51031271  1
  Ca2+  Ca11  1  0.67398815  0.57727786  0.83795312  1
  Ca2+  Ca12  1  0.08205934  0.33353105  0.15727934  1
  Ca2+  Ca13  1  0.08297387  0.33695685  0.50313910  1
  Ca2+  Ca14  1  0.07802434  0.33296803  0.82784090  1
  Ca2+  Ca15  1  0.08144779  0.83236729  0.16171950  1
  Ca2+  Ca16  1  0.08248006  0.82462837  0.50079992  1
  Ca2+  Ca17  1  0.08078452  0.82445224  0.82539065  1
  Ca2+  Ca18  1  0.57273024  0.32900096  0.15909190  1
  Ca2+  Ca19  1  0.57253893  0.33998106  0.49894652  1
  Ca2+  Ca20  1  0.58082726  0.32252677  0.82298516  1
  Ca2+  Ca21  1  0.57907192  0.82372281  0.16501527  1
  Ca2+  Ca22  1  0.57682815  0.83074420  0.49781849  1
  Ca2+  Ca23  1  0.58038551  0.82899576  0.82796742  1
  Ca2+  Ca24  1  0.32260997  0.41049066  0.17102299  1
  Ca2+  Ca25  1  0.32658812  0.40773300  0.50511801  1
  Ca2+  Ca26  1  0.32236952  0.41112564  0.83713554  1
  Ca2+  Ca27  1  0.34092173  0.92886103  0.16993423  1
  Ca2+  Ca28  1  0.34597962  0.92122056  0.50352260  1
  Ca2+  Ca29  1  0.33393002  0.92165475  0.83777509  1
  Ca2+  Ca30  1  0.83366762  0.41829267  0.16394513  1
  Ca2+  Ca31  1  0.82515393  0.42048623  0.51379860  1
  Ca2+  Ca32  1  0.83754748  0.42062046  0.83557223  1
  Ca2+  Ca33  1  0.83272703  0.92591944  0.16683473  1
  Ca2+  Ca34  1  0.82391994  0.92066449  0.51006426  1
  Ca2+  Ca35  1  0.82647675  0.92561357  0.83742142  1
  Ca2+  Ca36  1  0.41391603  0.16795749  0.16239084  1
  Ca2+  Ca37  1  0.41876457  0.17633453  0.50113142  1
  Ca2+  Ca38  1  0.42172549  0.16945027  0.82848338  1
  Ca2+  Ca39  1  0.42525668  0.66568825  0.15918267  1
  Ca2+  Ca40  1  0.42143395  0.67862121  0.49047886  1
  Ca2+  Ca41  1  0.41610162  0.67011940  0.82945771  1
  Ca2+  Ca42  1  0.92428461  0.17434557  0.15021966  1
  Ca2+  Ca43  1  0.92090754  0.17292235  0.50237533  1
  Ca2+  Ca44  1  0.92507852  0.17560982  0.82938750  1
  Ca2+  Ca45  1  0.91594069  0.66681099  0.15936251  1
  Ca2+  Ca46  1  0.92350997  0.65398884  0.50419667  1
  Ca2+  Ca47  1  0.92003721  0.65738521  0.82719206  1
  Al0+  Al48  1  -0.00255301  -0.00029311  0.00003364  1
  Al0+  Al49  1  0.00159158  0.00022976  0.33465379  1
  Al0+  Al50  1  0.00134585  -0.00186095  0.66224803  1
  Al0+  Al51  1  -0.00134378  0.50154728  0.00605512  1
  Al0+  Al52  1  0.00004727  0.49931726  0.33545625  1
  Al0+  Al53  1  0.00166632  0.49868785  0.66558676  1
  Al0+  Al54  1  0.49803046  -0.00244643  0.00255737  1
  Al0+  Al55  1  0.50310481  -0.00012639  0.33339523  1
  Al0+  Al56  1  0.49967868  -0.00067677  0.66627036  1
  Al0+  Al57  1  0.50046583  0.50092376  -0.00388705  1
  Al0+  Al58  1  0.49940163  0.49907499  0.32374584  1
  Al0+  Al59  1  0.50056134  0.50112997  0.66733528  1
  Al0+  Al60  1  0.24909378  0.24794749  0.00516005  1
  Al0+  Al61  1  0.25023498  0.24799838  0.33963492  1
  Al0+  Al62  1  0.25136830  0.24858482  0.66477115  1
  Al0+  Al63  1  0.24869739  0.74951004  0.00439810  1
  Al0+  Al64  1  0.24861352  0.75126204  0.32747283  1
  Al0+  Al65  1  0.24858197  0.75120106  0.65775088  1
  Al0+  Al66  1  0.74921659  0.25020305  -0.00295330  1
  Al0+  Al67  1  0.75260828  0.25308097  0.33547002  1
  Al0+  Al68  1  0.75218197  0.24737531  0.66195086  1
  Al0+  Al69  1  0.74789067  0.74977575  0.00010285  1
  Al0+  Al70  1  0.75278487  0.75208335  0.33202716  1
  Al0+  Al71  1  0.75000903  0.75313178  0.67569058  1
  Al0+  Al72  1  0.07270949  0.17693466  0.65008812  1
  Al0+  Al73  1  0.56936655  0.17820054  0.98791326  1
  Al0+  Al74  1  0.67755315  0.93194659  0.68202252  1
  Al0+  Al75  1  0.81930305  0.07181157  0.01243279  1
  Al0+  Al76  1  0.32258706  0.06824049  0.35023298  1
  Al0+  Al77  1  0.07234989  0.17783058  0.98646977  1
  Al0+  Al78  1  0.92983097  0.32170983  0.65016069  1
  Al0+  Al79  1  0.42998081  0.32312105  0.65335939  1
  Al0+  Al80  1  0.57217564  0.67919020  0.31897238  1
  Al0+  Al81  1  0.92923205  0.32372463  0.98512284  1
  Al0+  Al82  1  0.57167530  0.67781794  0.98279475  1
  Al0+  Al83  1  0.18233539  0.42825074  0.68088544  1
  Al0+  Al84  1  0.57205548  0.17786266  0.65305168  1
  Al0+  Al85  1  0.42750775  0.31863368  0.31824652  1
  Al0+  Al86  1  0.32329259  0.57312894  0.01433595  1
  Al0+  Al87  1  0.18001511  0.42917807  0.01473521  1
  Al0+  Al88  1  0.82047521  0.56945354  0.68179707  1
  Al0+  Al89  1  0.32005959  0.06912827  0.01258469  1
  Al0+  Al90  1  0.17980207  0.43008650  0.35007105  1
  Al0+  Al91  1  0.06961885  0.67831652  0.65388803  1
  Al0+  Al92  1  0.67559098  0.42575308  0.68109064  1
  Al0+  Al93  1  0.42880257  0.81946172  0.65434938  1
  Al0+  Al94  1  0.42813313  0.82380994  0.31551594  1
  Al0+  Al95  1  0.81872951  0.57080443  0.01529757  1
  Si0+  Si96  1  0.06950002  0.17861546  0.31840859  1
  Si0+  Si97  1  0.17777427  0.92661032  0.68052840  1
  Si0+  Si98  1  0.57388952  0.67949742  0.65243546  1
  Si0+  Si99  1  0.32170301  0.57632333  0.67949394  1
  Si0+  Si100  1  0.67716704  0.92819393  0.01949805  1
  Si0+  Si101  1  0.82321336  0.07344046  0.34900589  1
  Si0+  Si102  1  0.92668369  0.82174406  0.65035474  1
  Si0+  Si103  1  0.67805432  0.42923628  0.34621303  1
  Si0+  Si104  1  0.93110769  0.82216657  0.31794598  1
  Si0+  Si105  1  0.31923639  0.06836274  0.68226574  1
  Si0+  Si106  1  0.17546393  0.92675445  0.01570172  1
  Si0+  Si107  1  0.06965800  0.68100102  0.98662757  1
  Si0+  Si108  1  0.81951370  0.57241740  0.34823453  1
  Si0+  Si109  1  0.42627537  0.32160386  0.98417382  1
  Si0+  Si110  1  0.17574605  0.92672524  0.35176289  1
  Si0+  Si111  1  0.42665625  0.81993601  0.98324133  1
  Si0+  Si112  1  0.32331323  0.57290070  0.34866723  1
  Si0+  Si113  1  0.92912348  0.32173904  0.31707176  1
  Si0+  Si114  1  0.82603996  0.07131614  0.68285975  1
  Si0+  Si115  1  0.68340441  0.93007058  0.34822622  1
  Si0+  Si116  1  0.67708161  0.42658957  0.01685134  1
  Si0+  Si117  1  0.57483949  0.17919674  0.31764981  1
  Si0+  Si118  1  0.92707944  0.82193937  0.98485016  1
  Si0+  Si119  1  0.06963769  0.67672991  0.31633184  1
  O2-  O120  1  0.24246897  -0.00317066  0.05958718  1
  O2-  O121  1  0.25018048  -0.01080244  0.39552061  1
  O2-  O122  1  0.24520168  -0.00029970  0.72374838  1
  O2-  O123  1  0.25651800  0.49667242  0.06514663  1
  O2-  O124  1  0.25543892  0.50516495  0.39544879  1
  O2-  O125  1  0.25955325  0.50207880  0.72436050  1
  O2-  O126  1  0.74321901  0.00001409  0.06355815  1
  O2-  O127  1  0.74956861  0.00561487  0.39135515  1
  O2-  O128  1  0.75120579  0.00879597  0.72635089  1
  O2-  O129  1  0.74331612  0.49744307  0.06330901  1
  O2-  O130  1  0.74481917  0.50488739  0.38782237  1
  O2-  O131  1  0.74901711  0.49675367  0.73114126  1
  O2-  O132  1  -0.00134508  0.24927170  0.27576379  1
  O2-  O133  1  0.00157063  0.24931615  0.59903942  1
  O2-  O134  1  0.00229757  0.25165823  0.93747957  1
  O2-  O135  1  0.00188795  0.75162557  0.27447893  1
  O2-  O136  1  -0.00852489  0.74970195  0.60563214  1
  O2-  O137  1  -0.00148848  0.75144311  0.94355320  1
  O2-  O138  1  0.50380790  0.24458642  0.27277129  1
  O2-  O139  1  0.50803876  0.25690559  0.60306773  1
  O2-  O140  1  0.49639889  0.25396804  0.94127540  1
  O2-  O141  1  0.49569597  0.74644109  0.26782250  1
  O2-  O142  1  0.50127076  0.74303126  0.60715136  1
  O2-  O143  1  0.49297786  0.74961053  0.93859077  1
  O2-  O144  1  0.07044555  0.17711626  0.10088209  1
  O2-  O145  1  0.06636191  0.17628367  0.42313013  1
  O2-  O146  1  0.07138165  0.17501901  0.76308493  1
  O2-  O147  1  0.06763995  0.68399790  0.09224097  1
  O2-  O148  1  0.06702851  0.67627883  0.42131003  1
  O2-  O149  1  0.07113511  0.68218181  0.76701978  1
  O2-  O150  1  0.56895078  0.18112162  0.10165064  1
  O2-  O151  1  0.57697436  0.18055407  0.42280335  1
  O2-  O152  1  0.56515278  0.17428960  0.76641918  1
  O2-  O153  1  0.57425212  0.68378105  0.09598450  1
  O2-  O154  1  0.57574369  0.68243077  0.43266482  1
  O2-  O155  1  0.57386675  0.68307033  0.75768529  1
  O2-  O156  1  0.17692861  0.43136943  0.23720027  1
  O2-  O157  1  0.18297151  0.43077735  0.56742873  1
  O2-  O158  1  0.17970061  0.43102869  0.90139912  1
  O2-  O159  1  0.16777342  0.93068744  0.24650998  1
  O2-  O160  1  0.17777525  0.92568048  0.57557948  1
  O2-  O161  1  0.17650710  0.92270928  0.91014204  1
  O2-  O162  1  0.68279224  0.42463941  0.24145710  1
  O2-  O163  1  0.67590723  0.43250159  0.56642779  1
  O2-  O164  1  0.67878926  0.42685558  0.91185745  1
  O2-  O165  1  0.68718634  0.92820528  0.24342038  1
  O2-  O166  1  0.67939353  0.93092887  0.56803731  1
  O2-  O167  1  0.67817178  0.92851354  0.91402348  1
  O2-  O168  1  0.42646932  0.31935320  0.09028038  1
  O2-  O169  1  0.42942766  0.31919174  0.43093114  1
  O2-  O170  1  0.42557316  0.31772810  0.76670193  1
  O2-  O171  1  0.42832919  0.82101563  0.08868455  1
  O2-  O172  1  0.43306516  0.82300844  0.42922301  1
  O2-  O173  1  0.42763506  0.81923183  0.76739676  1
  O2-  O174  1  0.93037799  0.32181548  0.09993450  1
  O2-  O175  1  0.92712603  0.32168836  0.42157309  1
  O2-  O176  1  0.93243805  0.32289410  0.76320598  1
  O2-  O177  1  0.92874164  0.82204792  0.09076359  1
  O2-  O178  1  0.93058114  0.82312464  0.42262824  1
  O2-  O179  1  0.93053582  0.82512973  0.75574394  1
  O2-  O180  1  0.31916523  0.06880027  0.23702054  1
  O2-  O181  1  0.31976245  0.06599954  0.57707488  1
  O2-  O182  1  0.32130413  0.06608395  0.89956817  1
  O2-  O183  1  0.32077237  0.57108623  0.24329380  1
  O2-  O184  1  0.31771689  0.58028021  0.57385029  1
  O2-  O185  1  0.31687269  0.57839749  0.90093153  1
  O2-  O186  1  0.82346531  0.07228195  0.24388467  1
  O2-  O187  1  0.82865495  0.06527369  0.57654914  1
  O2-  O188  1  0.82071838  0.06715704  0.90019564  1
  O2-  O189  1  0.82116044  0.57329345  0.24321157  1
  O2-  O190  1  0.81856944  0.57091844  0.56713169  1
  O2-  O191  1  0.82041221  0.57182458  0.90320940  1
  O2-  O192  1  0.04228345  0.08629518  0.27115449  1
  O2-  O193  1  0.04491594  0.07787969  0.59584426  1
  O2-  O194  1  0.04353529  0.07872417  0.93491541  1
  O2-  O195  1  0.03566977  0.58719390  0.26857042  1
  O2-  O196  1  0.03959516  0.58356887  0.59656633  1
  O2-  O197  1  0.04039023  0.58959426  0.94143397  1
  O2-  O198  1  0.55483084  0.08388096  0.27358911  1
  O2-  O199  1  0.53406323  0.08319323  0.59774870  1
  O2-  O200  1  0.53895888  0.08002047  0.93717224  1
  O2-  O201  1  0.55053335  0.58025815  0.26400727  1
  O2-  O202  1  0.55500291  0.58431706  0.60790595  1
  O2-  O203  1  0.54720963  0.57986406  0.92896028  1
  O2-  O204  1  0.16215596  0.20679845  0.27450879  1
  O2-  O205  1  0.17084464  0.20472637  0.59729260  1
  O2-  O206  1  0.17216422  0.20261940  0.93596193  1
  O2-  O207  1  0.16180545  0.70114583  0.26846213  1
  O2-  O208  1  0.16164292  0.71409101  0.59422548  1
  O2-  O209  1  0.16120272  0.70934758  0.93960985  1
  O2-  O210  1  0.66861832  0.20854286  0.27203807  1
  O2-  O211  1  0.67440621  0.18976285  0.60287191  1
  O2-  O212  1  0.66612572  0.20524062  0.93378597  1
  O2-  O213  1  0.67019229  0.71394386  0.26631881  1
  O2-  O214  1  0.66637641  0.71141322  0.60726346  1
  O2-  O215  1  0.66709222  0.71348398  0.92969644  1
  O2-  O216  1  0.08424790  0.46339691  0.07023636  1
  O2-  O217  1  0.08272662  0.46351507  0.40293235  1
  O2-  O218  1  0.08651083  0.46195811  0.73256556  1
  O2-  O219  1  0.08098681  0.94923645  0.06184020  1
  O2-  O220  1  0.08430608  0.95736056  0.40115448  1
  O2-  O221  1  0.08427515  0.94956842  0.72704729  1
  O2-  O222  1  0.58195722  0.44981230  0.06087309  1
  O2-  O223  1  0.58363154  0.45263726  0.38971483  1
  O2-  O224  1  0.57727628  0.45295786  0.73536547  1
  O2-  O225  1  0.58281670  0.94957370  0.06497081  1
  O2-  O226  1  0.59059654  0.95387340  0.39495149  1
  O2-  O227  1  0.58138916  0.96196645  0.73701953  1
  O2-  O228  1  0.20513115  0.33047662  0.06928795  1
  O2-  O229  1  0.20900123  0.33306660  0.40312303  1
  O2-  O230  1  0.21194035  0.33077511  0.73334754  1
  O2-  O231  1  0.20142827  0.83484770  0.06542906  1
  O2-  O232  1  0.19382840  0.82924665  0.39305119  1
  O2-  O233  1  0.20829061  0.83571328  0.72831890  1
  O2-  O234  1  0.70445637  0.33429694  0.06506737  1
  O2-  O235  1  0.71041252  0.34008535  0.39683308  1
  O2-  O236  1  0.70098720  0.32409928  0.72802998  1
  O2-  O237  1  0.70912363  0.83693922  0.06638128  1
  O2-  O238  1  0.71734247  0.84069153  0.39719868  1
  O2-  O239  1  0.70974179  0.83794647  0.73958961  1
  O2-  O240  1  0.45561135  0.41452958  0.26163228  1
  O2-  O241  1  0.45128776  0.42392670  0.60008057  1
  O2-  O242  1  0.44725550  0.41613368  0.93940469  1
  O2-  O243  1  0.46426263  0.92017611  0.26259125  1
  O2-  O244  1  0.46410721  0.91391849  0.59972798  1
  O2-  O245  1  0.45470506  0.91264557  0.93718543  1
  O2-  O246  1  0.95800742  0.41379620  0.27062346  1
  O2-  O247  1  0.95971221  0.41891892  0.59526867  1
  O2-  O248  1  0.95765591  0.42333595  0.93570514  1
  O2-  O249  1  0.95908411  0.91425021  0.26972989  1
  O2-  O250  1  0.95634027  0.91198615  0.59948859  1
  O2-  O251  1  0.95439675  0.91268275  0.93612868  1
  O2-  O252  1  0.33077822  0.28407157  0.26658752  1
  O2-  O253  1  0.33540197  0.28607261  0.59799055  1
  O2-  O254  1  0.33341008  0.29235714  0.94004624  1
  O2-  O255  1  0.32568129  0.80587372  0.26626067  1
  O2-  O256  1  0.33301909  0.79417880  0.59593345  1
  O2-  O257  1  0.33109723  0.79706944  0.93948128  1
  O2-  O258  1  0.83686108  0.29504491  0.26940351  1
  O2-  O259  1  0.83187211  0.29377572  0.59459026  1
  O2-  O260  1  0.83095703  0.29564839  0.93386047  1
  O2-  O261  1  0.84062230  0.79382237  0.26859499  1
  O2-  O262  1  0.83126923  0.79985262  0.60665203  1
  O2-  O263  1  0.83536714  0.79492938  0.93884180  1
  O2-  O264  1  0.41469445  0.03544460  0.06995800  1
  O2-  O265  1  0.42135519  0.03999450  0.40200747  1
  O2-  O266  1  0.40909485  0.03603969  0.72983805  1
  O2-  O267  1  0.42495093  0.55172514  0.06306930  1
  O2-  O268  1  0.41899480  0.54933399  0.39109273  1
  O2-  O269  1  0.41795935  0.55948479  0.72247175  1
  O2-  O270  1  0.91432435  0.03686453  0.06936707  1
  O2-  O271  1  0.91356860  0.04118715  0.39638669  1
  O2-  O272  1  0.91688433  0.03693382  0.72946247  1
  O2-  O273  1  0.91452055  0.54215931  0.07297550  1
  O2-  O274  1  0.91010240  0.54032225  0.39524663  1
  O2-  O275  1  0.91989729  0.54176700  0.73213116  1
  O2-  O276  1  0.29180608  0.16448168  0.07044047  1
  O2-  O277  1  0.28758938  0.16233562  0.40572607  1
  O2-  O278  1  0.29333279  0.16024453  0.72896564  1
  O2-  O279  1  0.28972970  0.66898302  0.07106334  1
  O2-  O280  1  0.29749483  0.66870618  0.39112379  1
  O2-  O281  1  0.28845567  0.66765762  0.72627394  1
  O2-  O282  1  0.78987604  0.16836590  0.06824856  1
  O2-  O283  1  0.79956529  0.16664385  0.39542633  1
  O2-  O284  1  0.80961114  0.16769390  0.72387608  1
  O2-  O285  1  0.78902700  0.66875212  0.06947936  1
  O2-  O286  1  0.79701521  0.66590732  0.39510709  1
  O2-  O287  1  0.79661891  0.66915803  0.73410396  1
