# generated using pymatgen
data_Ca2Al2SiO7
_symmetry_space_group_name_H-M   'P 1'
_cell_length_a   15.46994184
_cell_length_b   15.47171192
_cell_length_c   15.29257444
_cell_angle_alpha   89.99467249
_cell_angle_beta   90.00546675
_cell_angle_gamma   89.98209740
_symmetry_Int_Tables_number   1
_chemical_formula_structural   Ca2Al2SiO7
_chemical_formula_sum   'Ca48 Al48 Si24 O168'
_cell_volume   3660.22370473
_cell_formula_units_Z   24
loop_
 _symmetry_equiv_pos_site_id
 _symmetry_equiv_pos_as_xyz
  1  'x, y, z'
loop_
 _atom_type_symbol
 _atom_type_oxidation_number
  Ca2+  2.0
  Al0+  0.0
  Si0+  0.0
  O2-  -2.0
loop_
 _atom_site_type_symbol
 _atom_site_label
 _atom_site_symmetry_multiplicity
 _atom_site_fract_x
 _atom_site_fract_y
 _atom_site_fract_z
 _atom_site_occupancy
  Ca2+  Ca0  1  0.17313819  0.09210466  0.17040014  1
  Ca2+  Ca1  1  0.17149612  0.09014238  0.50551599  1
  Ca2+  Ca2  1  0.16188927  0.09188386  0.83875862  1
  Ca2+  Ca3  1  0.15996938  0.56967180  0.16801652  1
  Ca2+  Ca4  1  0.16772231  0.57219157  0.51045159  1
  Ca2+  Ca5  1  0.16319319  0.57344072  0.83676528  1
  Ca2+  Ca6  1  0.67964597  0.09336011  0.16568214  1
  Ca2+  Ca7  1  0.67443915  0.08280792  0.50819124  1
  Ca2+  Ca8  1  0.66541213  0.07688290  0.84161753  1
  Ca2+  Ca9  1  0.67118294  0.57639067  0.17367659  1
  Ca2+  Ca10  1  0.67273564  0.57592515  0.49971234  1
  Ca2+  Ca11  1  0.66819318  0.58241822  0.83924229  1
  Ca2+  Ca12  1  0.07395813  0.33428164  0.15910250  1
  Ca2+  Ca13  1  0.07658971  0.34050605  0.49948861  1
  Ca2+  Ca14  1  0.07710356  0.32918569  0.83019681  1
  Ca2+  Ca15  1  0.08132093  0.82273981  0.15797742  1
  Ca2+  Ca16  1  0.08137817  0.82632003  0.50165027  1
  Ca2+  Ca17  1  0.07937364  0.82179695  0.82377168  1
  Ca2+  Ca18  1  0.57578227  0.33239231  0.15586686  1
  Ca2+  Ca19  1  0.57953378  0.33406127  0.49864696  1
  Ca2+  Ca20  1  0.57658036  0.32060689  0.82563261  1
  Ca2+  Ca21  1  0.58778397  0.82787200  0.15893347  1
  Ca2+  Ca22  1  0.58714398  0.83471892  0.50018452  1
  Ca2+  Ca23  1  0.59310851  0.83086895  0.83068111  1
  Ca2+  Ca24  1  0.31917071  0.40598118  0.16768583  1
  Ca2+  Ca25  1  0.32107399  0.41697533  0.51167007  1
  Ca2+  Ca26  1  0.32362783  0.40775146  0.83490694  1
  Ca2+  Ca27  1  0.33123972  0.92530761  0.17162189  1
  Ca2+  Ca28  1  0.33436450  0.92498061  0.50245456  1
  Ca2+  Ca29  1  0.32925673  0.91917520  0.83611527  1
  Ca2+  Ca30  1  0.83225577  0.41800121  0.17697044  1
  Ca2+  Ca31  1  0.83559638  0.41402782  0.49951198  1
  Ca2+  Ca32  1  0.83953319  0.41254613  0.83666357  1
  Ca2+  Ca33  1  0.83095759  0.93219589  0.16687655  1
  Ca2+  Ca34  1  0.83273201  0.92245665  0.50866035  1
  Ca2+  Ca35  1  0.82852726  0.92287941  0.83959479  1
  Ca2+  Ca36  1  0.42306790  0.17040215  0.15806415  1
  Ca2+  Ca37  1  0.42098341  0.16809702  0.50034768  1
  Ca2+  Ca38  1  0.42381076  0.17738418  0.83071251  1
  Ca2+  Ca39  1  0.42457919  0.66922786  0.15838287  1
  Ca2+  Ca40  1  0.41333490  0.66401130  0.49946990  1
  Ca2+  Ca41  1  0.42011061  0.66390670  0.82958181  1
  Ca2+  Ca42  1  0.91494163  0.17588112  0.15940548  1
  Ca2+  Ca43  1  0.92071007  0.17606389  0.49616503  1
  Ca2+  Ca44  1  0.92005760  0.17486818  0.82911412  1
  Ca2+  Ca45  1  0.91820880  0.66451990  0.16084397  1
  Ca2+  Ca46  1  0.91595652  0.66846493  0.49995541  1
  Ca2+  Ca47  1  0.92949852  0.67004997  0.82662157  1
  Al0+  Al48  1  -0.00092754  -0.00074531  0.00447247  1
  Al0+  Al49  1  0.00070408  -0.00230787  0.33560661  1
  Al0+  Al50  1  0.00003634  0.00005833  0.65999480  1
  Al0+  Al51  1  0.00052759  0.50059701  -0.00267324  1
  Al0+  Al52  1  -0.00018050  0.50077042  0.33722208  1
  Al0+  Al53  1  0.00105442  0.50046792  0.66434659  1
  Al0+  Al54  1  0.49766413  -0.00261187  0.00198998  1
  Al0+  Al55  1  0.49851025  -0.00053996  0.33515365  1
  Al0+  Al56  1  0.50100023  -0.00177834  0.66798300  1
  Al0+  Al57  1  0.49766033  0.50394172  -0.00754319  1
  Al0+  Al58  1  0.49972933  0.50006866  0.33414286  1
  Al0+  Al59  1  0.50134828  0.50068078  0.66583768  1
  Al0+  Al60  1  0.24856323  0.25054881  -0.00031321  1
  Al0+  Al61  1  0.25132332  0.24956209  0.34352079  1
  Al0+  Al62  1  0.25204040  0.25049789  0.66632664  1
  Al0+  Al63  1  0.25119390  0.74861560  -0.00225866  1
  Al0+  Al64  1  0.25032145  0.75094795  0.32980371  1
  Al0+  Al65  1  0.25238392  0.75100631  0.66521450  1
  Al0+  Al66  1  0.74799154  0.25042995  -0.00376724  1
  Al0+  Al67  1  0.74973549  0.24887378  0.33899759  1
  Al0+  Al68  1  0.75125177  0.24949261  0.66076047  1
  Al0+  Al69  1  0.74936141  0.75011471  0.00055734  1
  Al0+  Al70  1  0.75042728  0.74957240  0.33429254  1
  Al0+  Al71  1  0.74980028  0.75008818  0.66587353  1
  Al0+  Al72  1  0.92759260  0.81985100  0.65158385  1
  Al0+  Al73  1  0.07234465  0.17816190  0.65111687  1
  Al0+  Al74  1  0.17966288  0.43002955  0.34749097  1
  Al0+  Al75  1  0.32066643  0.06994696  0.34794953  1
  Al0+  Al76  1  0.57170528  0.68117252  0.98637822  1
  Al0+  Al77  1  0.57035196  0.17630193  0.65036613  1
  Al0+  Al78  1  0.07126634  0.67897544  0.98692346  1
  Al0+  Al79  1  0.17946494  0.42952275  0.01491790  1
  Al0+  Al80  1  0.82264715  0.07131957  0.34907766  1
  Al0+  Al81  1  0.82121225  0.07367658  0.01419269  1
  Al0+  Al82  1  0.67667726  0.42753239  0.34759191  1
  Al0+  Al83  1  0.92996310  0.32022371  0.31881728  1
  Al0+  Al84  1  0.42697162  0.32235325  0.98628789  1
  Al0+  Al85  1  0.32285369  0.57286829  0.68292394  1
  Al0+  Al86  1  0.92931013  0.32214980  0.64948394  1
  Al0+  Al87  1  0.68014716  0.92959818  0.68080221  1
  Al0+  Al88  1  0.57118296  0.17736234  0.98678645  1
  Al0+  Al89  1  0.43076484  0.32229202  0.64953332  1
  Al0+  Al90  1  0.07332768  0.67956748  0.64978633  1
  Al0+  Al91  1  0.82127832  0.57199897  0.34866197  1
  Al0+  Al92  1  0.07049544  0.17728068  0.98950519  1
  Al0+  Al93  1  0.92709872  0.32183467  0.98737532  1
  Al0+  Al94  1  0.17839203  0.42866665  0.68600444  1
  Al0+  Al95  1  0.67744260  0.92789704  0.01651906  1
  Si0+  Si96  1  0.42680740  0.82202394  0.98242537  1
  Si0+  Si97  1  0.42909690  0.82201683  0.31741586  1
  Si0+  Si98  1  0.92743293  0.82181233  0.31580699  1
  Si0+  Si99  1  0.17859556  0.92990773  0.68083489  1
  Si0+  Si100  1  0.42866063  0.32116609  0.31923111  1
  Si0+  Si101  1  0.31854563  0.07012091  0.01408530  1
  Si0+  Si102  1  0.56968513  0.17727603  0.31906026  1
  Si0+  Si103  1  0.82345918  0.07272762  0.68359813  1
  Si0+  Si104  1  0.17893275  0.92482760  0.35030061  1
  Si0+  Si105  1  0.07381244  0.17729392  0.31810482  1
  Si0+  Si106  1  0.57243332  0.67884640  0.64960636  1
  Si0+  Si107  1  0.32144835  0.06990890  0.68376686  1
  Si0+  Si108  1  0.92813427  0.82177143  0.98525765  1
  Si0+  Si109  1  0.32207034  0.57413011  0.34700110  1
  Si0+  Si110  1  0.42964214  0.82117411  0.65071895  1
  Si0+  Si111  1  0.67570783  0.43032795  0.01049988  1
  Si0+  Si112  1  0.67911324  0.92822284  0.34942716  1
  Si0+  Si113  1  0.57074549  0.67916550  0.31893287  1
  Si0+  Si114  1  0.81969377  0.57092373  0.68252974  1
  Si0+  Si115  1  0.17834611  0.92539436  0.01384048  1
  Si0+  Si116  1  0.07108886  0.68028226  0.31745709  1
  Si0+  Si117  1  0.82042724  0.56941723  0.01242855  1
  Si0+  Si118  1  0.67997834  0.42801258  0.68270743  1
  Si0+  Si119  1  0.32271205  0.57397714  0.01833324  1
  O2-  O120  1  0.24522235  0.00053040  0.05601257  1
  O2-  O121  1  0.24307459  -0.00230627  0.39419248  1
  O2-  O122  1  0.24473171  0.00432331  0.72538870  1
  O2-  O123  1  0.25578897  0.50367778  0.06221977  1
  O2-  O124  1  0.25498053  0.50550412  0.39136274  1
  O2-  O125  1  0.25176574  0.50135771  0.73431579  1
  O2-  O126  1  0.74591105  0.00381099  0.06495420  1
  O2-  O127  1  0.74769447  -0.00439550  0.39423111  1
  O2-  O128  1  0.75304486  0.00531492  0.72706156  1
  O2-  O129  1  0.75012692  0.49734351  0.05404823  1
  O2-  O130  1  0.75153054  0.49717520  0.39748087  1
  O2-  O131  1  0.75287696  0.49665142  0.72584055  1
  O2-  O132  1  0.00378065  0.24371779  0.27305360  1
  O2-  O133  1  0.00307856  0.25155578  0.60013907  1
  O2-  O134  1  -0.00387360  0.24602731  0.93975473  1
  O2-  O135  1  -0.00127524  0.75016286  0.27448644  1
  O2-  O136  1  -0.00054508  0.74918481  0.59891190  1
  O2-  O137  1  -0.00046454  0.75643576  0.94110156  1
  O2-  O138  1  0.50155586  0.25180156  0.27699962  1
  O2-  O139  1  0.50190105  0.25027028  0.59793943  1
  O2-  O140  1  0.50241652  0.25295203  0.93816378  1
  O2-  O141  1  0.49976314  0.75044393  0.27641329  1
  O2-  O142  1  0.49846766  0.74778815  0.60863022  1
  O2-  O143  1  0.49882023  0.75703354  0.93880242  1
  O2-  O144  1  0.07352362  0.18024171  0.10333143  1
  O2-  O145  1  0.07379443  0.17795939  0.42322328  1
  O2-  O146  1  0.06809304  0.17588415  0.76454943  1
  O2-  O147  1  0.06856300  0.67951759  0.10079879  1
  O2-  O148  1  0.07447389  0.68427526  0.42179169  1
  O2-  O149  1  0.07196783  0.68210905  0.76346985  1
  O2-  O150  1  0.56930139  0.18017787  0.10125486  1
  O2-  O151  1  0.56583672  0.17401134  0.42365550  1
  O2-  O152  1  0.56710370  0.17543756  0.76376419  1
  O2-  O153  1  0.57003864  0.68072235  0.10007308  1
  O2-  O154  1  0.56975473  0.68032524  0.42391080  1
  O2-  O155  1  0.57492159  0.68074122  0.75454153  1
  O2-  O156  1  0.17984743  0.42974450  0.23395667  1
  O2-  O157  1  0.17952006  0.43116410  0.57201533  1
  O2-  O158  1  0.17853329  0.42988597  0.90296548  1
  O2-  O159  1  0.18242285  0.92039784  0.24453218  1
  O2-  O160  1  0.18346632  0.92830706  0.57571831  1
  O2-  O161  1  0.18150181  0.92242013  0.90895953  1
  O2-  O162  1  0.67270076  0.43155795  0.23338632  1
  O2-  O163  1  0.67838635  0.43164952  0.57771064  1
  O2-  O164  1  0.67558343  0.43366837  0.90550389  1
  O2-  O165  1  0.67924589  0.92651466  0.24418073  1
  O2-  O166  1  0.68053811  0.92961344  0.56723572  1
  O2-  O167  1  0.68114261  0.92648213  0.90321247  1
  O2-  O168  1  0.42732996  0.31901510  0.10102915  1
  O2-  O169  1  0.42959210  0.32152657  0.42371767  1
  O2-  O170  1  0.43257660  0.31949594  0.76294801  1
  O2-  O171  1  0.42366357  0.82004808  0.08838574  1
  O2-  O172  1  0.42818263  0.82251892  0.42231659  1
  O2-  O173  1  0.42876600  0.82328082  0.75552157  1
  O2-  O174  1  0.92802246  0.32482257  0.10133935  1
  O2-  O175  1  0.93220468  0.32017161  0.43110716  1
  O2-  O176  1  0.92743753  0.32056578  0.76294862  1
  O2-  O177  1  0.92969829  0.81913564  0.09143873  1
  O2-  O178  1  0.92692220  0.82176416  0.42040294  1
  O2-  O179  1  0.92949675  0.81755747  0.76538002  1
  O2-  O180  1  0.32142579  0.06808424  0.23437122  1
  O2-  O181  1  0.32336477  0.06526165  0.57848172  1
  O2-  O182  1  0.31934334  0.06780238  0.90916741  1
  O2-  O183  1  0.32244459  0.57673404  0.24155964  1
  O2-  O184  1  0.32093563  0.57298548  0.56850857  1
  O2-  O185  1  0.32175853  0.57850537  0.91363137  1
  O2-  O186  1  0.82139390  0.07155102  0.23600874  1
  O2-  O187  1  0.82214390  0.07008177  0.57768715  1
  O2-  O188  1  0.82389631  0.07003424  0.90115842  1
  O2-  O189  1  0.81843429  0.57417865  0.23439947  1
  O2-  O190  1  0.81531560  0.57342525  0.57761632  1
  O2-  O191  1  0.81944683  0.57109497  0.90733533  1
  O2-  O192  1  0.05382828  0.08041837  0.27534986  1
  O2-  O193  1  0.04679565  0.07988288  0.59573077  1
  O2-  O194  1  0.05057425  0.07527662  0.93993470  1
  O2-  O195  1  0.04295114  0.58839498  0.27136304  1
  O2-  O196  1  0.04475004  0.58194977  0.59813472  1
  O2-  O197  1  0.03668442  0.58580693  0.93123424  1
  O2-  O198  1  0.53765269  0.08667636  0.27108866  1
  O2-  O199  1  0.53835415  0.07845653  0.59765466  1
  O2-  O200  1  0.53948960  0.07874518  0.93699021  1
  O2-  O201  1  0.54266355  0.58780648  0.27046748  1
  O2-  O202  1  0.54729936  0.58720131  0.60148396  1
  O2-  O203  1  0.54101270  0.58713979  0.92822978  1
  O2-  O204  1  0.16908218  0.20439791  0.27557885  1
  O2-  O205  1  0.17344046  0.20105462  0.60212751  1
  O2-  O206  1  0.16749015  0.20630338  0.93536583  1
  O2-  O207  1  0.16222264  0.70996620  0.26817692  1
  O2-  O208  1  0.17067548  0.71266028  0.59686538  1
  O2-  O209  1  0.16814830  0.70823490  0.93423541  1
  O2-  O210  1  0.66318385  0.20219338  0.27502669  1
  O2-  O211  1  0.66927160  0.20248379  0.59890997  1
  O2-  O212  1  0.66873687  0.20163452  0.93209008  1
  O2-  O213  1  0.66236835  0.70738234  0.27121845  1
  O2-  O214  1  0.66158289  0.71077921  0.60008329  1
  O2-  O215  1  0.66837034  0.71011294  0.93130269  1
  O2-  O216  1  0.08334056  0.46527851  0.06844759  1
  O2-  O217  1  0.08508234  0.46343715  0.40172043  1
  O2-  O218  1  0.07893479  0.45873818  0.73599069  1
  O2-  O219  1  0.08567849  0.94576938  0.06260929  1
  O2-  O220  1  0.08364205  0.94352841  0.39421257  1
  O2-  O221  1  0.08456682  0.95184753  0.72565986  1
  O2-  O222  1  0.58485078  0.46252032  0.05800649  1
  O2-  O223  1  0.58016297  0.46155802  0.40252604  1
  O2-  O224  1  0.58942223  0.45920197  0.72984778  1
  O2-  O225  1  0.57534580  0.94704611  0.06687529  1
  O2-  O226  1  0.58445894  0.95239571  0.39406358  1
  O2-  O227  1  0.58216441  0.95609311  0.73463663  1
  O2-  O228  1  0.21123553  0.33309005  0.07009522  1
  O2-  O229  1  0.21043981  0.33531828  0.40364512  1
  O2-  O230  1  0.20895443  0.32918897  0.73611797  1
  O2-  O231  1  0.21178348  0.83598997  0.06398154  1
  O2-  O232  1  0.21121398  0.83382766  0.39827006  1
  O2-  O233  1  0.21215253  0.84031217  0.72920768  1
  O2-  O234  1  0.69697557  0.33684240  0.05669663  1
  O2-  O235  1  0.70037985  0.32947584  0.40149274  1
  O2-  O236  1  0.70583911  0.33453706  0.72733193  1
  O2-  O237  1  0.70989524  0.83014792  0.07032546  1
  O2-  O238  1  0.70307732  0.83413324  0.39523843  1
  O2-  O239  1  0.71067193  0.83203005  0.73341891  1
  O2-  O240  1  0.45344359  0.41408947  0.27182537  1
  O2-  O241  1  0.45981156  0.42108993  0.59718957  1
  O2-  O242  1  0.44790965  0.42209544  0.93499455  1
  O2-  O243  1  0.45740654  0.91309651  0.26856458  1
  O2-  O244  1  0.46100341  0.91072436  0.60108153  1
  O2-  O245  1  0.44682519  0.91659230  0.93718933  1
  O2-  O246  1  0.95974336  0.41919371  0.26775051  1
  O2-  O247  1  0.95486373  0.42154457  0.59777818  1
  O2-  O248  1  0.95802021  0.41845524  0.93323958  1
  O2-  O249  1  0.95690497  0.91303476  0.26772029  1
  O2-  O250  1  0.95579113  0.91705807  0.59703807  1
  O2-  O251  1  0.95082442  0.91612747  0.94135674  1
  O2-  O252  1  0.33686499  0.28915166  0.27407335  1
  O2-  O253  1  0.33270823  0.29262784  0.59819831  1
  O2-  O254  1  0.33183364  0.28735972  0.93294552  1
  O2-  O255  1  0.33760485  0.79525969  0.26790235  1
  O2-  O256  1  0.33852367  0.79655173  0.60032682  1
  O2-  O257  1  0.33529601  0.79354109  0.93383726  1
  O2-  O258  1  0.83012813  0.29142947  0.26928410  1
  O2-  O259  1  0.83122211  0.29441313  0.59551235  1
  O2-  O260  1  0.82808531  0.29932639  0.93388803  1
  O2-  O261  1  0.83568351  0.79301999  0.26872982  1
  O2-  O262  1  0.83034227  0.78900048  0.59694731  1
  O2-  O263  1  0.83606754  0.79320178  0.93945199  1
  O2-  O264  1  0.40837790  0.03952943  0.06431323  1
  O2-  O265  1  0.41481281  0.03306077  0.40363125  1
  O2-  O266  1  0.40993573  0.03367465  0.73155828  1
  O2-  O267  1  0.41816859  0.55122645  0.06279899  1
  O2-  O268  1  0.41611532  0.55119099  0.39281244  1
  O2-  O269  1  0.42426731  0.54894643  0.73237145  1
  O2-  O270  1  0.91801379  0.04215501  0.07129561  1
  O2-  O271  1  0.91955451  0.03953867  0.40164456  1
  O2-  O272  1  0.91710341  0.04418877  0.72727906  1
  O2-  O273  1  0.91192546  0.54337058  0.06106741  1
  O2-  O274  1  0.91973905  0.54841288  0.40168092  1
  O2-  O275  1  0.91334467  0.54757782  0.72746370  1
  O2-  O276  1  0.29179369  0.16115669  0.06324337  1
  O2-  O277  1  0.29415540  0.16486328  0.40590492  1
  O2-  O278  1  0.29957416  0.16301610  0.72970464  1
  O2-  O279  1  0.29655010  0.66757669  0.06585413  1
  O2-  O280  1  0.29729143  0.66862383  0.39250467  1
  O2-  O281  1  0.29891781  0.67413281  0.73309799  1
  O2-  O282  1  0.79145175  0.17263500  0.06773716  1
  O2-  O283  1  0.79057467  0.16551864  0.40511895  1
  O2-  O284  1  0.79899944  0.16753768  0.72663254  1
  O2-  O285  1  0.79206618  0.66067734  0.06089363  1
  O2-  O286  1  0.78883923  0.66912072  0.40265379  1
  O2-  O287  1  0.78700905  0.66081662  0.73059509  1
