# generated using pymatgen
data_Ca2Al2SiO7
_symmetry_space_group_name_H-M   'P 1'
_cell_length_a   15.46773724
_cell_length_b   15.47126928
_cell_length_c   15.28947615
_cell_angle_alpha   89.96532552
_cell_angle_beta   89.98660502
_cell_angle_gamma   89.98893235
_symmetry_Int_Tables_number   1
_chemical_formula_structural   Ca2Al2SiO7
_chemical_formula_sum   'Ca48 Al48 Si24 O168'
_cell_volume   3658.85532421
_cell_formula_units_Z   24
loop_
 _symmetry_equiv_pos_site_id
 _symmetry_equiv_pos_as_xyz
  1  'x, y, z'
loop_
 _atom_type_symbol
 _atom_type_oxidation_number
  Ca2+  2.0
  Al0+  0.0
  Si0+  0.0
  O2-  -2.0
loop_
 _atom_site_type_symbol
 _atom_site_label
 _atom_site_symmetry_multiplicity
 _atom_site_fract_x
 _atom_site_fract_y
 _atom_site_fract_z
 _atom_site_occupancy
  Ca2+  Ca0  1  0.17214939  0.08101564  0.17861870  1
  Ca2+  Ca1  1  0.16874319  0.08969327  0.50263758  1
  Ca2+  Ca2  1  0.16487583  0.08276800  0.83450089  1
  Ca2+  Ca3  1  0.17406431  0.59005192  0.17270006  1
  Ca2+  Ca4  1  0.17533711  0.59038741  0.50464927  1
  Ca2+  Ca5  1  0.17711547  0.59319460  0.83543900  1
  Ca2+  Ca6  1  0.67499839  0.08670186  0.17674919  1
  Ca2+  Ca7  1  0.67368558  0.08973114  0.50185782  1
  Ca2+  Ca8  1  0.67845503  0.08415422  0.83689013  1
  Ca2+  Ca9  1  0.66441331  0.57447527  0.17363003  1
  Ca2+  Ca10  1  0.67258575  0.58014704  0.50630981  1
  Ca2+  Ca11  1  0.66518996  0.58150090  0.83854147  1
  Ca2+  Ca12  1  0.08386672  0.32694337  0.16849917  1
  Ca2+  Ca13  1  0.07699333  0.32544120  0.49758803  1
  Ca2+  Ca14  1  0.07427682  0.32585796  0.82080709  1
  Ca2+  Ca15  1  0.08241818  0.82185058  0.16623445  1
  Ca2+  Ca16  1  0.08225344  0.82086304  0.49666071  1
  Ca2+  Ca17  1  0.08295611  0.82234690  0.82959329  1
  Ca2+  Ca18  1  0.58470134  0.33816931  0.16955649  1
  Ca2+  Ca19  1  0.57453533  0.33358999  0.49266554  1
  Ca2+  Ca20  1  0.57993886  0.33821358  0.83015082  1
  Ca2+  Ca21  1  0.57620475  0.82756856  0.16382483  1
  Ca2+  Ca22  1  0.57495387  0.82848694  0.49744755  1
  Ca2+  Ca23  1  0.57844401  0.82002426  0.82483268  1
  Ca2+  Ca24  1  0.33497616  0.42932924  0.17502854  1
  Ca2+  Ca25  1  0.33947161  0.42442163  0.50452028  1
  Ca2+  Ca26  1  0.33576355  0.42708213  0.83390013  1
  Ca2+  Ca27  1  0.33239997  0.91926196  0.17855676  1
  Ca2+  Ca28  1  0.33957697  0.91841390  0.50138821  1
  Ca2+  Ca29  1  0.33428943  0.91243303  0.83202327  1
  Ca2+  Ca30  1  0.81915716  0.42085454  0.17515023  1
  Ca2+  Ca31  1  0.82977110  0.42132869  0.50245573  1
  Ca2+  Ca32  1  0.82995374  0.41906982  0.83350206  1
  Ca2+  Ca33  1  0.83373080  0.92666844  0.17249522  1
  Ca2+  Ca34  1  0.83649918  0.92826701  0.50379548  1
  Ca2+  Ca35  1  0.83977118  0.92944887  0.83487119  1
  Ca2+  Ca36  1  0.41992315  0.17112763  0.17145670  1
  Ca2+  Ca37  1  0.41865162  0.17931428  0.48686382  1
  Ca2+  Ca38  1  0.42055145  0.17784675  0.82236108  1
  Ca2+  Ca39  1  0.41640342  0.66565387  0.16366658  1
  Ca2+  Ca40  1  0.41469429  0.67175793  0.49736442  1
  Ca2+  Ca41  1  0.42555027  0.66231919  0.82544332  1
  Ca2+  Ca42  1  0.91520685  0.16184899  0.16554084  1
  Ca2+  Ca43  1  0.92032831  0.16580336  0.49618473  1
  Ca2+  Ca44  1  0.91579307  0.17144549  0.82177272  1
  Ca2+  Ca45  1  0.92778709  0.65483935  0.16520591  1
  Ca2+  Ca46  1  0.92534860  0.65283480  0.49449593  1
  Ca2+  Ca47  1  0.92793425  0.65886341  0.82360734  1
  Al0+  Al48  1  0.00238112  -0.00078122  0.00442099  1
  Al0+  Al49  1  0.00012304  -0.00266789  0.33316708  1
  Al0+  Al50  1  0.00238515  -0.00184445  0.66900172  1
  Al0+  Al51  1  0.00170568  0.49634629  -0.00569734  1
  Al0+  Al52  1  0.00093484  0.49665452  0.32886577  1
  Al0+  Al53  1  0.00007512  0.49637433  0.66228056  1
  Al0+  Al54  1  0.50109620  0.00216912  -0.00206762  1
  Al0+  Al55  1  0.49895463  0.00047040  0.32922977  1
  Al0+  Al56  1  0.50082144  -0.00099960  0.66781119  1
  Al0+  Al57  1  0.49878487  0.50108952  0.00429395  1
  Al0+  Al58  1  0.49841205  0.50088448  0.33830604  1
  Al0+  Al59  1  0.50054010  0.50020787  0.66347237  1
  Al0+  Al60  1  0.25005247  0.25103839  -0.00120909  1
  Al0+  Al61  1  0.24946647  0.25023991  0.32758927  1
  Al0+  Al62  1  0.25032061  0.25093233  0.66252840  1
  Al0+  Al63  1  0.24861985  0.75221753  0.00060095  1
  Al0+  Al64  1  0.24842274  0.75040816  0.32957495  1
  Al0+  Al65  1  0.24961015  0.75170151  0.66534148  1
  Al0+  Al66  1  0.75019369  0.25097822  0.00693586  1
  Al0+  Al67  1  0.74948237  0.25043238  0.33870984  1
  Al0+  Al68  1  0.74997996  0.25112745  0.66864382  1
  Al0+  Al69  1  0.75113374  0.75292138  -0.00353166  1
  Al0+  Al70  1  0.75065176  0.75133538  0.33579345  1
  Al0+  Al71  1  0.75117585  0.75058450  0.66824765  1
  Al0+  Al72  1  0.67747097  0.42975023  0.35156868  1
  Al0+  Al73  1  0.82013578  0.06938577  0.01465716  1
  Al0+  Al74  1  0.06939104  0.17708078  0.31837063  1
  Al0+  Al75  1  0.42870561  0.82114267  0.65173932  1
  Al0+  Al76  1  0.67947973  0.43218324  0.01349190  1
  Al0+  Al77  1  0.82300799  0.57123781  0.68075591  1
  Al0+  Al78  1  0.32037309  0.07100671  0.34666009  1
  Al0+  Al79  1  0.42843869  0.32430667  0.31570233  1
  Al0+  Al80  1  0.57038894  0.67866922  0.98840341  1
  Al0+  Al81  1  0.06991936  0.67860498  0.98473190  1
  Al0+  Al82  1  0.06855989  0.67756677  0.31920898  1
  Al0+  Al83  1  0.31949845  0.57155957  0.68055687  1
  Al0+  Al84  1  0.57212746  0.18027233  0.31855860  1
  Al0+  Al85  1  0.82111141  0.06933333  0.34869694  1
  Al0+  Al86  1  0.42931534  0.81989753  0.31915093  1
  Al0+  Al87  1  0.07050999  0.17612694  0.65216166  1
  Al0+  Al88  1  0.31773683  0.57063835  0.01349017  1
  Al0+  Al89  1  0.57387214  0.67789336  0.65058776  1
  Al0+  Al90  1  0.42971950  0.32107645  0.65415423  1
  Al0+  Al91  1  0.82267258  0.57169338  0.34635211  1
  Al0+  Al92  1  0.92633835  0.32031329  0.64989760  1
  Al0+  Al93  1  0.06952545  0.67865602  0.65300483  1
  Al0+  Al94  1  0.82039238  0.06989195  0.68045412  1
  Al0+  Al95  1  0.31804472  0.57228934  0.34837764  1
  Si0+  Si96  1  0.17852444  0.92781820  0.35157936  1
  Si0+  Si97  1  0.32200250  0.07305149  0.68129764  1
  Si0+  Si98  1  0.67584836  0.92751870  0.01710769  1
  Si0+  Si99  1  0.67612503  0.92731586  0.68535331  1
  Si0+  Si100  1  0.07177678  0.17805468  0.98543752  1
  Si0+  Si101  1  0.67810178  0.42979567  0.68442175  1
  Si0+  Si102  1  0.18040192  0.92943780  0.68297034  1
  Si0+  Si103  1  0.92637197  0.82230874  0.31646649  1
  Si0+  Si104  1  0.92751272  0.31776028  0.98526163  1
  Si0+  Si105  1  0.17654229  0.42499647  0.01659390  1
  Si0+  Si106  1  0.82540601  0.57363890  0.01332183  1
  Si0+  Si107  1  0.32249235  0.07412462  0.01376575  1
  Si0+  Si108  1  0.42919390  0.32079759  0.98486640  1
  Si0+  Si109  1  0.57354430  0.67858776  0.31759293  1
  Si0+  Si110  1  0.57196944  0.17736766  0.65283280  1
  Si0+  Si111  1  0.67577648  0.92745721  0.35022183  1
  Si0+  Si112  1  0.92760233  0.32002579  0.31377459  1
  Si0+  Si113  1  0.92952156  0.82465972  0.98298940  1
  Si0+  Si114  1  0.92836219  0.82271357  0.65120411  1
  Si0+  Si115  1  0.18141293  0.93096926  0.01642789  1
  Si0+  Si116  1  0.57288014  0.17982318  0.98446991  1
  Si0+  Si117  1  0.42781439  0.82432079  0.98379497  1
  Si0+  Si118  1  0.17772684  0.42626006  0.34984949  1
  Si0+  Si119  1  0.17877976  0.42604263  0.68296915  1
  O2-  O120  1  0.25451482  0.00062819  0.05657376  1
  O2-  O121  1  0.24507758  -0.00170652  0.39579342  1
  O2-  O122  1  0.25135210  0.00184292  0.72477792  1
  O2-  O123  1  0.24086084  0.49776233  0.06005824  1
  O2-  O124  1  0.24521946  0.49546728  0.39439555  1
  O2-  O125  1  0.24420094  0.49740742  0.72843270  1
  O2-  O126  1  0.74523112  -0.00480417  0.06164414  1
  O2-  O127  1  0.74474981  -0.00394500  0.39452636  1
  O2-  O128  1  0.74616046  -0.00440175  0.72915217  1
  O2-  O129  1  0.75184282  0.51080428  0.05761383  1
  O2-  O130  1  0.74864591  0.50386271  0.39870091  1
  O2-  O131  1  0.74562010  0.49988093  0.72879840  1
  O2-  O132  1  -0.00664770  0.24848644  0.26844712  1
  O2-  O133  1  -0.00331616  0.24546361  0.60237405  1
  O2-  O134  1  -0.00027980  0.24720186  0.94322142  1
  O2-  O135  1  -0.01094352  0.74778367  0.27256280  1
  O2-  O136  1  -0.01124813  0.74711204  0.60690119  1
  O2-  O137  1  -0.01007116  0.74860463  0.93869001  1
  O2-  O138  1  0.50230608  0.25346823  0.26594974  1
  O2-  O139  1  0.50108631  0.24305494  0.60939318  1
  O2-  O140  1  0.49999899  0.24907826  0.94230711  1
  O2-  O141  1  0.50365609  0.74558718  0.27203935  1
  O2-  O142  1  0.50016227  0.74902477  0.60219960  1
  O2-  O143  1  0.49662117  0.75517681  0.94175133  1
  O2-  O144  1  0.07306052  0.17820500  0.09016245  1
  O2-  O145  1  0.06854573  0.17840368  0.43083812  1
  O2-  O146  1  0.07026931  0.17746346  0.76690985  1
  O2-  O147  1  0.07054008  0.68155444  0.09765066  1
  O2-  O148  1  0.06971119  0.68080598  0.43203041  1
  O2-  O149  1  0.07133553  0.68326069  0.76653112  1
  O2-  O150  1  0.57252344  0.17775535  0.08878550  1
  O2-  O151  1  0.56966194  0.17989110  0.43231017  1
  O2-  O152  1  0.57072507  0.17834010  0.75942015  1
  O2-  O153  1  0.56772990  0.67977623  0.10139773  1
  O2-  O154  1  0.57482195  0.68145240  0.42271201  1
  O2-  O155  1  0.57108693  0.67789680  0.76503866  1
  O2-  O156  1  0.17781638  0.42779424  0.24356710  1
  O2-  O157  1  0.18080349  0.42375360  0.57787514  1
  O2-  O158  1  0.17852593  0.41917516  0.91143832  1
  O2-  O159  1  0.17994864  0.92835967  0.24525040  1
  O2-  O160  1  0.17902302  0.92837810  0.57857807  1
  O2-  O161  1  0.18006347  0.93168804  0.91114056  1
  O2-  O162  1  0.67947390  0.43162894  0.23721436  1
  O2-  O163  1  0.67852519  0.42830597  0.57959116  1
  O2-  O164  1  0.68034313  0.42980089  0.90039384  1
  O2-  O165  1  0.67794008  0.92698431  0.24419897  1
  O2-  O166  1  0.67423957  0.92946265  0.58012971  1
  O2-  O167  1  0.67409617  0.93046633  0.91177756  1
  O2-  O168  1  0.42745245  0.31884648  0.08917847  1
  O2-  O169  1  0.42808008  0.32164787  0.42917779  1
  O2-  O170  1  0.43080533  0.31960242  0.76848678  1
  O2-  O171  1  0.42757325  0.82680501  0.08915917  1
  O2-  O172  1  0.43017613  0.81962145  0.43169828  1
  O2-  O173  1  0.43012012  0.82162939  0.76604421  1
  O2-  O174  1  0.92798984  0.31720641  0.08997779  1
  O2-  O175  1  0.93008422  0.32076290  0.41888068  1
  O2-  O176  1  0.92715878  0.31791647  0.76476284  1
  O2-  O177  1  0.93320141  0.82928047  0.08816005  1
  O2-  O178  1  0.93002176  0.82728840  0.42162574  1
  O2-  O179  1  0.93392655  0.82651667  0.75705930  1
  O2-  O180  1  0.31807576  0.06811579  0.23263161  1
  O2-  O181  1  0.32181543  0.07321204  0.57683342  1
  O2-  O182  1  0.32015468  0.07588830  0.90837585  1
  O2-  O183  1  0.31600948  0.57297086  0.23465314  1
  O2-  O184  1  0.31733616  0.57206964  0.56803120  1
  O2-  O185  1  0.31870503  0.56871644  0.90030796  1
  O2-  O186  1  0.82142900  0.06608829  0.23514526  1
  O2-  O187  1  0.82018324  0.06787186  0.56790892  1
  O2-  O188  1  0.82051201  0.06942153  0.90142870  1
  O2-  O189  1  0.82262850  0.56869643  0.23190736  1
  O2-  O190  1  0.82312718  0.56813381  0.56835350  1
  O2-  O191  1  0.82720204  0.56911481  0.90782872  1
  O2-  O192  1  0.04166322  0.07888749  0.26504469  1
  O2-  O193  1  0.04652497  0.07642152  0.60142169  1
  O2-  O194  1  0.04643313  0.08466247  0.94009474  1
  O2-  O195  1  0.04317527  0.58014187  0.26320200  1
  O2-  O196  1  0.04620860  0.58038672  0.60090854  1
  O2-  O197  1  0.04711934  0.57934923  0.93175431  1
  O2-  O198  1  0.54246320  0.08285314  0.26349022  1
  O2-  O199  1  0.55073270  0.08272420  0.60888368  1
  O2-  O200  1  0.54710598  0.08777530  0.93542733  1
  O2-  O201  1  0.54663162  0.58481684  0.27393122  1
  O2-  O202  1  0.54673318  0.58002088  0.59864864  1
  O2-  O203  1  0.53700186  0.58270658  0.93416500  1
  O2-  O204  1  0.16432142  0.20960493  0.26163341  1
  O2-  O205  1  0.16844801  0.20564056  0.60045141  1
  O2-  O206  1  0.16349713  0.20616865  0.93713637  1
  O2-  O207  1  0.16184192  0.71566973  0.26323690  1
  O2-  O208  1  0.16318401  0.71706045  0.59973968  1
  O2-  O209  1  0.16484894  0.71751266  0.93171914  1
  O2-  O210  1  0.67191299  0.20718318  0.26691069  1
  O2-  O211  1  0.66468258  0.20460695  0.60790975  1
  O2-  O212  1  0.66434564  0.21069681  0.93803599  1
  O2-  O213  1  0.66711561  0.70479464  0.27074552  1
  O2-  O214  1  0.67277309  0.70708209  0.59959198  1
  O2-  O215  1  0.66878180  0.70598320  0.93451491  1
  O2-  O216  1  0.08096192  0.44600757  0.06067146  1
  O2-  O217  1  0.08325933  0.44974769  0.39385457  1
  O2-  O218  1  0.08367938  0.44785633  0.72747463  1
  O2-  O219  1  0.09129479  0.95988350  0.06630022  1
  O2-  O220  1  0.08421724  0.95023488  0.39627045  1
  O2-  O221  1  0.09015793  0.95694899  0.73459165  1
  O2-  O222  1  0.58306379  0.46028934  0.06858412  1
  O2-  O223  1  0.57895201  0.45579653  0.40361747  1
  O2-  O224  1  0.58436772  0.45504958  0.73092804  1
  O2-  O225  1  0.58195760  0.95418362  0.06290673  1
  O2-  O226  1  0.58242811  0.95383582  0.39489792  1
  O2-  O227  1  0.58369688  0.95443614  0.73467943  1
  O2-  O228  1  0.20581349  0.33274676  0.06490140  1
  O2-  O229  1  0.20273328  0.33233505  0.39411318  1
  O2-  O230  1  0.20758221  0.33355141  0.73176086  1
  O2-  O231  1  0.20774646  0.83966525  0.06517758  1
  O2-  O232  1  0.20708475  0.83544644  0.39702121  1
  O2-  O233  1  0.21072867  0.83974538  0.73380128  1
  O2-  O234  1  0.71248408  0.33724162  0.06924403  1
  O2-  O235  1  0.70646738  0.33204805  0.40411307  1
  O2-  O236  1  0.70430926  0.33647109  0.73232333  1
  O2-  O237  1  0.70040673  0.83329745  0.06275171  1
  O2-  O238  1  0.70061620  0.83442359  0.39740668  1
  O2-  O239  1  0.70125409  0.83395295  0.73201637  1
  O2-  O240  1  0.45658341  0.42389050  0.26459807  1
  O2-  O241  1  0.46123071  0.41550073  0.59917966  1
  O2-  O242  1  0.45881028  0.41221632  0.93852757  1
  O2-  O243  1  0.45891459  0.91585353  0.26294978  1
  O2-  O244  1  0.45659739  0.92091366  0.60076223  1
  O2-  O245  1  0.45198349  0.91870174  0.93693272  1
  O2-  O246  1  0.95708690  0.41095259  0.26400116  1
  O2-  O247  1  0.95772417  0.41583009  0.59483612  1
  O2-  O248  1  0.95436489  0.40886812  0.93570152  1
  O2-  O249  1  0.95962741  0.91195449  0.26601206  1
  O2-  O250  1  0.96298619  0.91237896  0.60305105  1
  O2-  O251  1  0.96577435  0.91495527  0.93487364  1
  O2-  O252  1  0.33128869  0.29364339  0.26122235  1
  O2-  O253  1  0.33373394  0.29259055  0.59990336  1
  O2-  O254  1  0.33752471  0.29232394  0.93636993  1
  O2-  O255  1  0.33279414  0.79049902  0.26391625  1
  O2-  O256  1  0.33002988  0.79610373  0.59974327  1
  O2-  O257  1  0.33343951  0.80006041  0.93920719  1
  O2-  O258  1  0.83305464  0.29537269  0.27029957  1
  O2-  O259  1  0.82745438  0.29346771  0.59897630  1
  O2-  O260  1  0.83625566  0.28802159  0.93795644  1
  O2-  O261  1  0.83051329  0.80508506  0.27150990  1
  O2-  O262  1  0.83162526  0.80887158  0.60943629  1
  O2-  O263  1  0.83276120  0.81135527  0.93922934  1
  O2-  O264  1  0.41630869  0.05024647  0.05857901  1
  O2-  O265  1  0.41708717  0.04007504  0.39905592  1
  O2-  O266  1  0.41372775  0.04583600  0.73052948  1
  O2-  O267  1  0.41259228  0.53809496  0.06869823  1
  O2-  O268  1  0.41528666  0.54580580  0.40144131  1
  O2-  O269  1  0.41668134  0.53792579  0.73276208  1
  O2-  O270  1  0.91764702  0.03852460  0.06753930  1
  O2-  O271  1  0.91739524  0.03506067  0.40107942  1
  O2-  O272  1  0.91741458  0.03744962  0.73460304  1
  O2-  O273  1  0.91784608  0.54156394  0.05872487  1
  O2-  O274  1  0.92103960  0.53837627  0.39641951  1
  O2-  O275  1  0.91937511  0.53578177  0.73420483  1
  O2-  O276  1  0.29184148  0.16462093  0.06164847  1
  O2-  O277  1  0.28917420  0.16860428  0.39744469  1
  O2-  O278  1  0.29320036  0.16431988  0.73027469  1
  O2-  O279  1  0.28868189  0.66884505  0.06557940  1
  O2-  O280  1  0.28341611  0.66847958  0.40028343  1
  O2-  O281  1  0.28790029  0.66858526  0.73431688  1
  O2-  O282  1  0.78984591  0.16508811  0.06932267  1
  O2-  O283  1  0.79380580  0.16628994  0.40173358  1
  O2-  O284  1  0.78902681  0.16636514  0.73542320  1
  O2-  O285  1  0.80877714  0.67125406  0.05406969  1
  O2-  O286  1  0.80312834  0.67309901  0.39678156  1
  O2-  O287  1  0.80001287  0.67082852  0.73377174  1
