# generated using pymatgen
data_Ca2Al2SiO7
_symmetry_space_group_name_H-M   'P 1'
_cell_length_a   15.45900498
_cell_length_b   15.45904117
_cell_length_c   15.28482059
_cell_angle_alpha   90.00553913
_cell_angle_beta   90.00993514
_cell_angle_gamma   89.99345650
_symmetry_Int_Tables_number   1
_chemical_formula_structural   Ca2Al2SiO7
_chemical_formula_sum   'Ca48 Al48 Si24 O168'
_cell_volume   3652.78764343
_cell_formula_units_Z   24
loop_
 _symmetry_equiv_pos_site_id
 _symmetry_equiv_pos_as_xyz
  1  'x, y, z'
loop_
 _atom_type_symbol
 _atom_type_oxidation_number
  Ca2+  2.0
  Al0+  0.0
  Si0+  0.0
  O2-  -2.0
loop_
 _atom_site_type_symbol
 _atom_site_label
 _atom_site_symmetry_multiplicity
 _atom_site_fract_x
 _atom_site_fract_y
 _atom_site_fract_z
 _atom_site_occupancy
  Ca2+  Ca0  1  0.17031728  0.08510152  0.16787014  1
  Ca2+  Ca1  1  0.16937138  0.07936906  0.50895448  1
  Ca2+  Ca2  1  0.17100569  0.07687539  0.83869267  1
  Ca2+  Ca3  1  0.15731934  0.57430894  0.17234270  1
  Ca2+  Ca4  1  0.15955772  0.57923805  0.49773394  1
  Ca2+  Ca5  1  0.16516129  0.57634423  0.84328948  1
  Ca2+  Ca6  1  0.67495302  0.08209257  0.18038299  1
  Ca2+  Ca7  1  0.66842048  0.07550885  0.49801600  1
  Ca2+  Ca8  1  0.66641317  0.07718493  0.83328327  1
  Ca2+  Ca9  1  0.67272036  0.57574973  0.17865062  1
  Ca2+  Ca10  1  0.66889138  0.58445777  0.50217832  1
  Ca2+  Ca11  1  0.66587390  0.58746312  0.83453724  1
  Ca2+  Ca12  1  0.09295957  0.32372509  0.16332655  1
  Ca2+  Ca13  1  0.08171131  0.32211637  0.49540503  1
  Ca2+  Ca14  1  0.08733176  0.32065672  0.82981895  1
  Ca2+  Ca15  1  0.08016064  0.82411027  0.16162987  1
  Ca2+  Ca16  1  0.07959124  0.83109293  0.48770159  1
  Ca2+  Ca17  1  0.09455867  0.83139274  0.83196339  1
  Ca2+  Ca18  1  0.58337158  0.32934355  0.16412011  1
  Ca2+  Ca19  1  0.58284139  0.32667562  0.49082507  1
  Ca2+  Ca20  1  0.57358111  0.33238257  0.83065068  1
  Ca2+  Ca21  1  0.57208679  0.84221922  0.16593534  1
  Ca2+  Ca22  1  0.57460703  0.84504363  0.49590708  1
  Ca2+  Ca23  1  0.57164227  0.83411585  0.82374600  1
  Ca2+  Ca24  1  0.32372941  0.41175678  0.16897533  1
  Ca2+  Ca25  1  0.32655265  0.41740302  0.50054628  1
  Ca2+  Ca26  1  0.32878579  0.41819116  0.84422048  1
  Ca2+  Ca27  1  0.33140983  0.91527458  0.16607455  1
  Ca2+  Ca28  1  0.32993580  0.91910706  0.50943498  1
  Ca2+  Ca29  1  0.32880866  0.92344605  0.83769609  1
  Ca2+  Ca30  1  0.82884684  0.42298551  0.17963762  1
  Ca2+  Ca31  1  0.83406458  0.41924724  0.49956647  1
  Ca2+  Ca32  1  0.83640973  0.41366328  0.83406135  1
  Ca2+  Ca33  1  0.82716243  0.91993272  0.18002536  1
  Ca2+  Ca34  1  0.82745202  0.91654349  0.50003562  1
  Ca2+  Ca35  1  0.82514067  0.91263625  0.83390956  1
  Ca2+  Ca36  1  0.42150399  0.16882826  0.16178536  1
  Ca2+  Ca37  1  0.42214988  0.16003975  0.49453556  1
  Ca2+  Ca38  1  0.40296787  0.16890382  0.83379458  1
  Ca2+  Ca39  1  0.41294163  0.68060559  0.16367009  1
  Ca2+  Ca40  1  0.42152977  0.68088048  0.49693426  1
  Ca2+  Ca41  1  0.41796549  0.68204700  0.82665202  1
  Ca2+  Ca42  1  0.92927644  0.15944696  0.16563305  1
  Ca2+  Ca43  1  0.92698264  0.16281326  0.49324792  1
  Ca2+  Ca44  1  0.93186188  0.17032480  0.82553756  1
  Ca2+  Ca45  1  0.92149006  0.66548620  0.16959492  1
  Ca2+  Ca46  1  0.91961881  0.67363908  0.48930921  1
  Ca2+  Ca47  1  0.92548068  0.66628956  0.83249302  1
  Al0+  Al48  1  -0.00111122  -0.00141187  -0.00271116  1
  Al0+  Al49  1  0.00083030  -0.00057643  0.32764263  1
  Al0+  Al50  1  -0.00001399  -0.00113192  0.66820660  1
  Al0+  Al51  1  -0.00110186  0.50081039  0.00051791  1
  Al0+  Al52  1  -0.00040204  0.49819862  0.34049307  1
  Al0+  Al53  1  -0.00200030  0.49985350  0.66448581  1
  Al0+  Al54  1  0.50045237  0.00031460  -0.00154531  1
  Al0+  Al55  1  0.49991101  0.00335615  0.32605300  1
  Al0+  Al56  1  0.49979412  0.00240816  0.67268429  1
  Al0+  Al57  1  0.50098597  0.49930276  -0.00243813  1
  Al0+  Al58  1  0.49670373  0.50179484  0.33759454  1
  Al0+  Al59  1  0.50085620  0.50042133  0.66371217  1
  Al0+  Al60  1  0.25136172  0.24972036  -0.00045994  1
  Al0+  Al61  1  0.25008302  0.25074904  0.33597087  1
  Al0+  Al62  1  0.24855139  0.25107561  0.66464195  1
  Al0+  Al63  1  0.25035554  0.75014794  -0.00566505  1
  Al0+  Al64  1  0.25064614  0.74879816  0.32566662  1
  Al0+  Al65  1  0.25201251  0.74778126  0.66493986  1
  Al0+  Al66  1  0.74975838  0.24956865  -0.00073221  1
  Al0+  Al67  1  0.75116689  0.24930300  0.33765014  1
  Al0+  Al68  1  0.74907939  0.25309060  0.66588106  1
  Al0+  Al69  1  0.75102796  0.74938225  0.00217431  1
  Al0+  Al70  1  0.74736107  0.74975681  0.33718886  1
  Al0+  Al71  1  0.75225516  0.74714759  0.67044555  1
  Al0+  Al72  1  0.92826505  0.32199659  0.65029474  1
  Al0+  Al73  1  0.32105225  0.07083602  0.01806306  1
  Al0+  Al74  1  0.57280470  0.67900112  0.65118068  1
  Al0+  Al75  1  0.17946107  0.43011210  0.01292161  1
  Al0+  Al76  1  0.43021723  0.82328556  0.65057253  1
  Al0+  Al77  1  0.18000729  0.42837734  0.34925097  1
  Al0+  Al78  1  0.32075446  0.07276990  0.68095455  1
  Al0+  Al79  1  0.68074616  0.92895304  0.68107645  1
  Al0+  Al80  1  0.07021357  0.67715188  0.31858590  1
  Al0+  Al81  1  0.07122169  0.17764204  0.65014076  1
  Al0+  Al82  1  0.07120172  0.17823507  0.98568867  1
  Al0+  Al83  1  0.42966705  0.82211785  0.98361879  1
  Al0+  Al84  1  0.67609417  0.42791672  0.34941500  1
  Al0+  Al85  1  0.17767455  0.92682006  0.01748908  1
  Al0+  Al86  1  0.82520445  0.07036069  0.34843936  1
  Al0+  Al87  1  0.42981352  0.82278710  0.31829210  1
  Al0+  Al88  1  0.43069780  0.32016735  0.98737387  1
  Al0+  Al89  1  0.17719832  0.92587306  0.67937943  1
  Al0+  Al90  1  0.07282831  0.17870717  0.31839517  1
  Al0+  Al91  1  0.92619390  0.82140114  0.31885109  1
  Al0+  Al92  1  0.67620012  0.93028676  0.34694738  1
  Al0+  Al93  1  0.06922829  0.67867144  0.98567307  1
  Al0+  Al94  1  0.82022347  0.57114486  0.35073225  1
  Al0+  Al95  1  0.57174687  0.18176993  0.32046128  1
  Si0+  Si96  1  0.92592009  0.82128525  0.98167924  1
  Si0+  Si97  1  0.57124766  0.18031282  0.65261690  1
  Si0+  Si98  1  0.92907911  0.32078744  0.31722886  1
  Si0+  Si99  1  0.82032667  0.07189045  0.01324716  1
  Si0+  Si100  1  0.57460561  0.17863697  0.98140040  1
  Si0+  Si101  1  0.32389842  0.57225956  0.01552791  1
  Si0+  Si102  1  0.32310336  0.56910407  0.68189904  1
  Si0+  Si103  1  0.42728240  0.32399473  0.31835865  1
  Si0+  Si104  1  0.92622907  0.32201115  0.98556075  1
  Si0+  Si105  1  0.92886400  0.81972097  0.65396565  1
  Si0+  Si106  1  0.82051868  0.57059801  0.01539801  1
  Si0+  Si107  1  0.32099110  0.57564808  0.35160953  1
  Si0+  Si108  1  0.67714681  0.42864836  0.68442974  1
  Si0+  Si109  1  0.42817958  0.32233991  0.65119812  1
  Si0+  Si110  1  0.18065431  0.92739067  0.34445376  1
  Si0+  Si111  1  0.07169367  0.67838021  0.65248522  1
  Si0+  Si112  1  0.82207846  0.07427335  0.68421033  1
  Si0+  Si113  1  0.82154859  0.56943441  0.68537182  1
  Si0+  Si114  1  0.68018733  0.92869252  0.01472932  1
  Si0+  Si115  1  0.57080529  0.67615068  0.31659384  1
  Si0+  Si116  1  0.32010284  0.07081897  0.34654825  1
  Si0+  Si117  1  0.17839764  0.43169440  0.68214584  1
  Si0+  Si118  1  0.67815690  0.42843873  0.01367698  1
  Si0+  Si119  1  0.57373622  0.67820117  0.98516017  1
  O2-  O120  1  0.24890176  -0.00077123  0.06882630  1
  O2-  O121  1  0.24997449  -0.00087885  0.38798306  1
  O2-  O122  1  0.24828937  -0.00035067  0.72839478  1
  O2-  O123  1  0.25375053  0.50540568  0.06024625  1
  O2-  O124  1  0.25262952  0.50584590  0.39544420  1
  O2-  O125  1  0.25043152  0.50062862  0.72580085  1
  O2-  O126  1  0.75019519  0.00049923  0.05593856  1
  O2-  O127  1  0.75298997  -0.00253671  0.39696678  1
  O2-  O128  1  0.75504088  0.00401439  0.72962617  1
  O2-  O129  1  0.74911873  0.49908033  0.05559306  1
  O2-  O130  1  0.74621634  0.50080804  0.40119717  1
  O2-  O131  1  0.74902963  0.49902358  0.72724020  1
  O2-  O132  1  -0.00315144  0.25249064  0.27137630  1
  O2-  O133  1  -0.00391659  0.24669046  0.60043582  1
  O2-  O134  1  -0.00428230  0.25429539  0.94171417  1
  O2-  O135  1  -0.00237495  0.74863847  0.26890364  1
  O2-  O136  1  0.00749275  0.75642764  0.61313628  1
  O2-  O137  1  -0.00148836  0.75659131  0.93713682  1
  O2-  O138  1  0.50154164  0.26131487  0.27483501  1
  O2-  O139  1  0.49657849  0.24825746  0.61100803  1
  O2-  O140  1  0.50328693  0.24477740  0.93749746  1
  O2-  O141  1  0.50535139  0.74759752  0.27207711  1
  O2-  O142  1  0.50619833  0.75517632  0.60047041  1
  O2-  O143  1  0.50545903  0.74629043  0.94033713  1
  O2-  O144  1  0.07009894  0.18008530  0.09875336  1
  O2-  O145  1  0.07503462  0.17892677  0.43112890  1
  O2-  O146  1  0.07228615  0.18073810  0.76400211  1
  O2-  O147  1  0.06361337  0.67454194  0.09782008  1
  O2-  O148  1  0.07116093  0.68154116  0.43290006  1
  O2-  O149  1  0.06869171  0.67373247  0.75772145  1
  O2-  O150  1  0.57924681  0.18228449  0.08663509  1
  O2-  O151  1  0.56668051  0.17909822  0.43392032  1
  O2-  O152  1  0.57488697  0.18389463  0.75783311  1
  O2-  O153  1  0.57557045  0.67770699  0.09044374  1
  O2-  O154  1  0.56739813  0.67360331  0.42179223  1
  O2-  O155  1  0.56891048  0.67828206  0.76539533  1
  O2-  O156  1  0.18282537  0.42690138  0.23605525  1
  O2-  O157  1  0.17986545  0.43306649  0.57719195  1
  O2-  O158  1  0.18067837  0.43171146  0.89914587  1
  O2-  O159  1  0.18234842  0.92694094  0.23973886  1
  O2-  O160  1  0.17767117  0.92461196  0.56515184  1
  O2-  O161  1  0.17979573  0.92774825  0.90389052  1
  O2-  O162  1  0.67789270  0.42963820  0.23477749  1
  O2-  O163  1  0.67485790  0.42841760  0.58021234  1
  O2-  O164  1  0.67808140  0.42835249  0.90840950  1
  O2-  O165  1  0.67557957  0.93481747  0.23278785  1
  O2-  O166  1  0.68141524  0.93107909  0.56870440  1
  O2-  O167  1  0.68257861  0.92770180  0.90931679  1
  O2-  O168  1  0.43527005  0.32228901  0.10011250  1
  O2-  O169  1  0.42546605  0.32051461  0.42435214  1
  O2-  O170  1  0.42970608  0.32527041  0.75643180  1
  O2-  O171  1  0.43203614  0.82119719  0.09689027  1
  O2-  O172  1  0.42849518  0.82376101  0.43105340  1
  O2-  O173  1  0.43010980  0.82054056  0.76413459  1
  O2-  O174  1  0.92135118  0.32137110  0.09058950  1
  O2-  O175  1  0.93158043  0.32004569  0.42267477  1
  O2-  O176  1  0.93130405  0.32229020  0.76469090  1
  O2-  O177  1  0.92049741  0.81804203  0.08647172  1
  O2-  O178  1  0.93048544  0.82192191  0.43318385  1
  O2-  O179  1  0.92475553  0.81502855  0.75920216  1
  O2-  O180  1  0.31988219  0.07284619  0.24180958  1
  O2-  O181  1  0.32181835  0.07232293  0.56672208  1
  O2-  O182  1  0.31888325  0.07086000  0.90472534  1
  O2-  O183  1  0.32297845  0.57578190  0.24611647  1
  O2-  O184  1  0.32282502  0.56732083  0.57701629  1
  O2-  O185  1  0.32416353  0.56861404  0.90941650  1
  O2-  O186  1  0.82290048  0.07008218  0.23402292  1
  O2-  O187  1  0.82131583  0.07372318  0.57919673  1
  O2-  O188  1  0.81734949  0.07309019  0.90798383  1
  O2-  O189  1  0.81927580  0.56747053  0.23625845  1
  O2-  O190  1  0.82338111  0.56967542  0.58122860  1
  O2-  O191  1  0.82013143  0.57125170  0.91000276  1
  O2-  O192  1  0.04370577  0.08296404  0.26256282  1
  O2-  O193  1  0.04505856  0.07716488  0.60010216  1
  O2-  O194  1  0.03850963  0.08233501  0.93117019  1
  O2-  O195  1  0.04046860  0.57725303  0.26951791  1
  O2-  O196  1  0.03622229  0.58991405  0.60380468  1
  O2-  O197  1  0.03357526  0.58341778  0.92941085  1
  O2-  O198  1  0.53680993  0.08974908  0.26094023  1
  O2-  O199  1  0.54538719  0.08785342  0.60696478  1
  O2-  O200  1  0.55212022  0.08389768  0.93730967  1
  O2-  O201  1  0.54238952  0.58302821  0.26947236  1
  O2-  O202  1  0.54152895  0.58140334  0.59804311  1
  O2-  O203  1  0.55057836  0.58410029  0.93840938  1
  O2-  O204  1  0.16895163  0.21390143  0.26558439  1
  O2-  O205  1  0.16824195  0.21080983  0.59663709  1
  O2-  O206  1  0.16664456  0.21188620  0.93235176  1
  O2-  O207  1  0.16806937  0.70284628  0.26412030  1
  O2-  O208  1  0.16589330  0.69639293  0.60660257  1
  O2-  O209  1  0.16700436  0.70321217  0.93092982  1
  O2-  O210  1  0.66991297  0.20873804  0.26720008  1
  O2-  O211  1  0.66118291  0.21138576  0.60428770  1
  O2-  O212  1  0.66640307  0.20779896  0.93230613  1
  O2-  O213  1  0.66603730  0.69677627  0.27269920  1
  O2-  O214  1  0.67506197  0.69926953  0.60425439  1
  O2-  O215  1  0.66763257  0.70398804  0.93850504  1
  O2-  O216  1  0.08194933  0.45980414  0.06569595  1
  O2-  O217  1  0.08443535  0.45708523  0.40534937  1
  O2-  O218  1  0.08685690  0.46200878  0.72843016  1
  O2-  O219  1  0.07575069  0.95130289  0.06531135  1
  O2-  O220  1  0.08815883  0.95388221  0.39009550  1
  O2-  O221  1  0.07759749  0.94946251  0.73363800  1
  O2-  O222  1  0.58691170  0.45592295  0.06194789  1
  O2-  O223  1  0.57580998  0.45269436  0.40105673  1
  O2-  O224  1  0.58544720  0.45834584  0.73243195  1
  O2-  O225  1  0.58786090  0.95538278  0.05998633  1
  O2-  O226  1  0.57985251  0.96804720  0.39901792  1
  O2-  O227  1  0.58581643  0.96188492  0.73727673  1
  O2-  O228  1  0.21318674  0.33493277  0.06658096  1
  O2-  O229  1  0.21573267  0.33415098  0.40580494  1
  O2-  O230  1  0.20579081  0.33914877  0.72761184  1
  O2-  O231  1  0.20685443  0.82654626  0.06661323  1
  O2-  O232  1  0.20876710  0.83526280  0.39097858  1
  O2-  O233  1  0.20640161  0.82639608  0.73135717  1
  O2-  O234  1  0.70541986  0.33616037  0.06057068  1
  O2-  O235  1  0.70498407  0.33038012  0.40283075  1
  O2-  O236  1  0.70429052  0.33727746  0.73408193  1
  O2-  O237  1  0.70822316  0.83697634  0.06218722  1
  O2-  O238  1  0.69531653  0.82989424  0.39825765  1
  O2-  O239  1  0.71369480  0.83257678  0.73594185  1
  O2-  O240  1  0.44435687  0.42037943  0.27503302  1
  O2-  O241  1  0.45931627  0.41198769  0.60215933  1
  O2-  O242  1  0.46288189  0.41607199  0.93029333  1
  O2-  O243  1  0.46110884  0.91770694  0.26161754  1
  O2-  O244  1  0.45695491  0.92406897  0.60201153  1
  O2-  O245  1  0.46265648  0.91814482  0.93006230  1
  O2-  O246  1  0.95447907  0.41503309  0.27299062  1
  O2-  O247  1  0.95918823  0.41953786  0.59710984  1
  O2-  O248  1  0.95002517  0.41607724  0.93967196  1
  O2-  O249  1  0.95528082  0.91788155  0.26317061  1
  O2-  O250  1  0.94670274  0.91445219  0.60938947  1
  O2-  O251  1  0.94473093  0.91617990  0.93585645  1
  O2-  O252  1  0.33673601  0.29121128  0.27108640  1
  O2-  O253  1  0.33547566  0.29893195  0.60411972  1
  O2-  O254  1  0.33462654  0.29160651  0.93141228  1
  O2-  O255  1  0.33554320  0.78882164  0.26173105  1
  O2-  O256  1  0.33317111  0.78877382  0.59758711  1
  O2-  O257  1  0.33451815  0.79016387  0.92841139  1
  O2-  O258  1  0.83423985  0.29824236  0.27270667  1
  O2-  O259  1  0.82641251  0.30187575  0.60140294  1
  O2-  O260  1  0.83317900  0.29578285  0.93654467  1
  O2-  O261  1  0.82606569  0.79469575  0.26797464  1
  O2-  O262  1  0.84077161  0.78378330  0.60539532  1
  O2-  O263  1  0.83405397  0.78897671  0.93350570  1
  O2-  O264  1  0.42235302  0.04428046  0.06735295  1
  O2-  O265  1  0.41226822  0.04264098  0.39216346  1
  O2-  O266  1  0.41924325  0.04976844  0.73642567  1
  O2-  O267  1  0.41769284  0.54572714  0.06115349  1
  O2-  O268  1  0.41343721  0.55035948  0.40027966  1
  O2-  O269  1  0.41394994  0.53873375  0.72988058  1
  O2-  O270  1  0.91250455  0.04544576  0.05923875  1
  O2-  O271  1  0.92385212  0.04101465  0.40063089  1
  O2-  O272  1  0.91563773  0.04895062  0.73058745  1
  O2-  O273  1  0.91103290  0.54221140  0.06372266  1
  O2-  O274  1  0.91709291  0.54122808  0.40580984  1
  O2-  O275  1  0.91261008  0.53825895  0.73412794  1
  O2-  O276  1  0.29476325  0.17045472  0.06940090  1
  O2-  O277  1  0.29371436  0.16195964  0.39575178  1
  O2-  O278  1  0.29196651  0.17264700  0.73256191  1
  O2-  O279  1  0.29986147  0.66668118  0.05857142  1
  O2-  O280  1  0.29279300  0.66840600  0.39829402  1
  O2-  O281  1  0.29696090  0.66139753  0.72885424  1
  O2-  O282  1  0.79198592  0.16341819  0.06142886  1
  O2-  O283  1  0.79726336  0.16802031  0.40182214  1
  O2-  O284  1  0.79314999  0.16760915  0.73006521  1
  O2-  O285  1  0.79263533  0.66188797  0.06374152  1
  O2-  O286  1  0.79393625  0.66985275  0.40377367  1
  O2-  O287  1  0.79537616  0.65997561  0.73665108  1
