# generated using pymatgen
data_Ca2Al2SiO7
_symmetry_space_group_name_H-M   'P 1'
_cell_length_a   15.46042469
_cell_length_b   15.45950205
_cell_length_c   15.28513004
_cell_angle_alpha   90.00662099
_cell_angle_beta   89.99378140
_cell_angle_gamma   90.01514314
_symmetry_Int_Tables_number   1
_chemical_formula_structural   Ca2Al2SiO7
_chemical_formula_sum   'Ca48 Al48 Si24 O168'
_cell_volume   3653.30589909
_cell_formula_units_Z   24
loop_
 _symmetry_equiv_pos_site_id
 _symmetry_equiv_pos_as_xyz
  1  'x, y, z'
loop_
 _atom_type_symbol
 _atom_type_oxidation_number
  Ca2+  2.0
  Al0+  0.0
  Si0+  0.0
  O2-  -2.0
loop_
 _atom_site_type_symbol
 _atom_site_label
 _atom_site_symmetry_multiplicity
 _atom_site_fract_x
 _atom_site_fract_y
 _atom_site_fract_z
 _atom_site_occupancy
  Ca2+  Ca0  1  0.16746237  0.07775444  0.17008379  1
  Ca2+  Ca1  1  0.16192418  0.08131900  0.49565250  1
  Ca2+  Ca2  1  0.17355205  0.07846557  0.84257650  1
  Ca2+  Ca3  1  0.17488265  0.57296218  0.17763958  1
  Ca2+  Ca4  1  0.17262701  0.57241662  0.50025756  1
  Ca2+  Ca5  1  0.16694930  0.57613615  0.83586572  1
  Ca2+  Ca6  1  0.67607928  0.09144309  0.16652885  1
  Ca2+  Ca7  1  0.67868494  0.07745837  0.50835676  1
  Ca2+  Ca8  1  0.67077015  0.07641816  0.84457391  1
  Ca2+  Ca9  1  0.67166496  0.58241660  0.16502365  1
  Ca2+  Ca10  1  0.67030355  0.58674355  0.50055495  1
  Ca2+  Ca11  1  0.66833527  0.58053793  0.84399684  1
  Ca2+  Ca12  1  0.08181793  0.32742607  0.16290968  1
  Ca2+  Ca13  1  0.08369454  0.32980217  0.49481967  1
  Ca2+  Ca14  1  0.06924663  0.33567135  0.82718379  1
  Ca2+  Ca15  1  0.07931661  0.84016700  0.16528148  1
  Ca2+  Ca16  1  0.07735849  0.83480914  0.48664669  1
  Ca2+  Ca17  1  0.08419231  0.83398954  0.83317814  1
  Ca2+  Ca18  1  0.57450418  0.33306295  0.15553590  1
  Ca2+  Ca19  1  0.57641293  0.33065378  0.49312637  1
  Ca2+  Ca20  1  0.58518441  0.32841159  0.83794533  1
  Ca2+  Ca21  1  0.58143820  0.82969235  0.15982941  1
  Ca2+  Ca22  1  0.58265461  0.83053540  0.49603580  1
  Ca2+  Ca23  1  0.59929587  0.82486399  0.83112529  1
  Ca2+  Ca24  1  0.33625715  0.41848886  0.17704385  1
  Ca2+  Ca25  1  0.32387818  0.41130808  0.49734663  1
  Ca2+  Ca26  1  0.32790928  0.41119475  0.83795194  1
  Ca2+  Ca27  1  0.32524502  0.91735527  0.17165101  1
  Ca2+  Ca28  1  0.32825383  0.90883680  0.49779371  1
  Ca2+  Ca29  1  0.32705141  0.92302470  0.84445982  1
  Ca2+  Ca30  1  0.83160147  0.42338025  0.16687910  1
  Ca2+  Ca31  1  0.83863112  0.42281029  0.50300039  1
  Ca2+  Ca32  1  0.82969577  0.41894276  0.84609542  1
  Ca2+  Ca33  1  0.82803277  0.92508282  0.17138581  1
  Ca2+  Ca34  1  0.83626666  0.92810522  0.50321896  1
  Ca2+  Ca35  1  0.82460464  0.92922166  0.83941255  1
  Ca2+  Ca36  1  0.41790997  0.17764954  0.15667631  1
  Ca2+  Ca37  1  0.41996896  0.17107355  0.49059194  1
  Ca2+  Ca38  1  0.42018837  0.16399672  0.83881828  1
  Ca2+  Ca39  1  0.41818945  0.66955308  0.16219292  1
  Ca2+  Ca40  1  0.42214920  0.66902256  0.49176223  1
  Ca2+  Ca41  1  0.43239178  0.66811876  0.83001566  1
  Ca2+  Ca42  1  0.91971307  0.16394863  0.16174000  1
  Ca2+  Ca43  1  0.91758105  0.16887642  0.49319131  1
  Ca2+  Ca44  1  0.90213443  0.17741101  0.83322324  1
  Ca2+  Ca45  1  0.90941108  0.66970330  0.16388288  1
  Ca2+  Ca46  1  0.91636360  0.67486989  0.49005579  1
  Ca2+  Ca47  1  0.91357687  0.66709626  0.83172562  1
  Al0+  Al48  1  -0.00048403  -0.00107584  0.00252861  1
  Al0+  Al49  1  -0.00046087  0.00053536  0.33264506  1
  Al0+  Al50  1  0.00124338  0.00193156  0.67257690  1
  Al0+  Al51  1  0.00112606  0.50130694  -0.00001814  1
  Al0+  Al52  1  -0.00052460  0.49997567  0.34163467  1
  Al0+  Al53  1  0.00151867  0.50002690  0.66538609  1
  Al0+  Al54  1  0.49726334  0.00121174  0.00407002  1
  Al0+  Al55  1  0.50075552  -0.00187189  0.32828931  1
  Al0+  Al56  1  0.49910896  -0.00189909  0.66848692  1
  Al0+  Al57  1  0.49899261  0.50158456  -0.00640658  1
  Al0+  Al58  1  0.50140669  0.49976762  0.33447976  1
  Al0+  Al59  1  0.50047596  0.50185252  0.66002312  1
  Al0+  Al60  1  0.24770685  0.24859407  -0.00198217  1
  Al0+  Al61  1  0.24973061  0.24820691  0.32874373  1
  Al0+  Al62  1  0.24769127  0.24993073  0.67125102  1
  Al0+  Al63  1  0.24841755  0.74777090  0.00076134  1
  Al0+  Al64  1  0.25095546  0.74857422  0.33781878  1
  Al0+  Al65  1  0.25179058  0.74780645  0.66789768  1
  Al0+  Al66  1  0.74787675  0.25151066  0.00113383  1
  Al0+  Al67  1  0.75106098  0.25064152  0.33925161  1
  Al0+  Al68  1  0.74934935  0.25349188  0.66168231  1
  Al0+  Al69  1  0.75140555  0.75197735  0.00169245  1
  Al0+  Al70  1  0.75032529  0.74976757  0.33278609  1
  Al0+  Al71  1  0.75172172  0.75029802  0.66262118  1
  Al0+  Al72  1  0.92963492  0.82064724  0.31895984  1
  Al0+  Al73  1  0.67919786  0.92875948  0.68076658  1
  Al0+  Al74  1  0.67665537  0.42994929  0.01355700  1
  Al0+  Al75  1  0.57148572  0.68258790  0.98673764  1
  Al0+  Al76  1  0.32039157  0.07311133  0.01691401  1
  Al0+  Al77  1  0.43073506  0.31941852  0.32106331  1
  Al0+  Al78  1  0.17983971  0.42941223  0.68271847  1
  Al0+  Al79  1  0.93058907  0.32156186  0.98894604  1
  Al0+  Al80  1  0.67740733  0.92778655  0.01663478  1
  Al0+  Al81  1  0.17991949  0.93025195  0.34732565  1
  Al0+  Al82  1  0.42633068  0.32273130  0.98284503  1
  Al0+  Al83  1  0.92802235  0.32159270  0.65132543  1
  Al0+  Al84  1  0.32384498  0.57098219  0.34876386  1
  Al0+  Al85  1  0.81912760  0.07318596  0.01634799  1
  Al0+  Al86  1  0.82190384  0.07431061  0.68271667  1
  Al0+  Al87  1  0.82088662  0.07089029  0.34836603  1
  Al0+  Al88  1  0.17932226  0.42510742  0.34748648  1
  Al0+  Al89  1  0.06881019  0.17982597  0.31919999  1
  Al0+  Al90  1  0.82001208  0.57166382  0.34842233  1
  Al0+  Al91  1  0.17920801  0.92656240  0.01591598  1
  Al0+  Al92  1  0.42772407  0.82022183  0.31861764  1
  Al0+  Al93  1  0.82318303  0.57158055  0.01376031  1
  Al0+  Al94  1  0.57283487  0.67992215  0.65048827  1
  Al0+  Al95  1  0.57069837  0.17805460  0.98545269  1
  Si0+  Si96  1  0.42706800  0.31948105  0.65134959  1
  Si0+  Si97  1  0.67844407  0.42807742  0.35197574  1
  Si0+  Si98  1  0.92969753  0.82171428  0.98350378  1
  Si0+  Si99  1  0.32073812  0.56903895  0.01240830  1
  Si0+  Si100  1  0.57453751  0.17737738  0.31846717  1
  Si0+  Si101  1  0.56993287  0.17745209  0.65144983  1
  Si0+  Si102  1  0.17953984  0.92689445  0.68064329  1
  Si0+  Si103  1  0.57250495  0.67801945  0.31482513  1
  Si0+  Si104  1  0.07327694  0.17805371  0.65070726  1
  Si0+  Si105  1  0.82089988  0.57056057  0.68036193  1
  Si0+  Si106  1  0.67668834  0.92754277  0.35004177  1
  Si0+  Si107  1  0.42505483  0.82120005  0.98379101  1
  Si0+  Si108  1  0.06997910  0.17574283  0.98143153  1
  Si0+  Si109  1  0.17811141  0.42938254  0.01353692  1
  Si0+  Si110  1  0.67662627  0.43065550  0.68010291  1
  Si0+  Si111  1  0.92672912  0.32451743  0.31683750  1
  Si0+  Si112  1  0.93290573  0.82136720  0.65271746  1
  Si0+  Si113  1  0.32346546  0.07086553  0.34943720  1
  Si0+  Si114  1  0.07162484  0.67647982  0.31822334  1
  Si0+  Si115  1  0.07343109  0.67881026  0.65059295  1
  Si0+  Si116  1  0.32127121  0.07138466  0.68023684  1
  Si0+  Si117  1  0.42610878  0.82218828  0.65020615  1
  Si0+  Si118  1  0.07193392  0.67858369  0.98448579  1
  Si0+  Si119  1  0.32334060  0.57173054  0.68525461  1
  O2-  O120  1  0.25065442  -0.00149789  0.06561658  1
  O2-  O121  1  0.25705561  0.00131755  0.39669907  1
  O2-  O122  1  0.25172920  -0.00266845  0.72041109  1
  O2-  O123  1  0.25528337  0.49332803  0.05486120  1
  O2-  O124  1  0.25212845  0.49736738  0.39715870  1
  O2-  O125  1  0.25592233  0.50242621  0.73057070  1
  O2-  O126  1  0.74553956  0.00305788  0.06680328  1
  O2-  O127  1  0.74421441  -0.00256228  0.39412899  1
  O2-  O128  1  0.74699809  0.00442722  0.73084298  1
  O2-  O129  1  0.75059906  0.50014372  0.06302186  1
  O2-  O130  1  0.74786307  0.49574461  0.39722548  1
  O2-  O131  1  0.75011870  0.49957321  0.72193409  1
  O2-  O132  1  -0.00474374  0.25603158  0.27298586  1
  O2-  O133  1  0.00088222  0.24341211  0.60757860  1
  O2-  O134  1  0.00051367  0.24390446  0.93792568  1
  O2-  O135  1  0.00333464  0.74425734  0.27209720  1
  O2-  O136  1  0.00629468  0.75335847  0.60904687  1
  O2-  O137  1  0.00132776  0.75013221  0.94168847  1
  O2-  O138  1  0.50540559  0.24545080  0.27506463  1
  O2-  O139  1  0.49786356  0.24798201  0.60914823  1
  O2-  O140  1  0.49821567  0.24977399  0.93355406  1
  O2-  O141  1  0.50169100  0.74505912  0.27205795  1
  O2-  O142  1  0.49744853  0.75573581  0.60710270  1
  O2-  O143  1  0.49991230  0.76027889  0.93792627  1
  O2-  O144  1  0.07063917  0.17693090  0.08696468  1
  O2-  O145  1  0.06769587  0.17963914  0.43295950  1
  O2-  O146  1  0.07818242  0.17900454  0.75578993  1
  O2-  O147  1  0.07421803  0.67661055  0.08891847  1
  O2-  O148  1  0.06928826  0.67916986  0.42445122  1
  O2-  O149  1  0.07307922  0.67907422  0.75606190  1
  O2-  O150  1  0.57053521  0.18248127  0.09892095  1
  O2-  O151  1  0.57235010  0.17822351  0.42504903  1
  O2-  O152  1  0.56937225  0.17754253  0.75591741  1
  O2-  O153  1  0.56815000  0.68119429  0.09950554  1
  O2-  O154  1  0.57313470  0.68013121  0.42089193  1
  O2-  O155  1  0.57281820  0.67895601  0.76342459  1
  O2-  O156  1  0.17976703  0.42735704  0.23360731  1
  O2-  O157  1  0.18207634  0.42883264  0.57012596  1
  O2-  O158  1  0.17621507  0.43389218  0.90812443  1
  O2-  O159  1  0.17974734  0.93137389  0.23521787  1
  O2-  O160  1  0.17793605  0.92552308  0.57581943  1
  O2-  O161  1  0.18101932  0.92603198  0.90101406  1
  O2-  O162  1  0.67749682  0.42784328  0.24702258  1
  O2-  O163  1  0.67572459  0.43150990  0.57490522  1
  O2-  O164  1  0.67809517  0.43216732  0.89906109  1
  O2-  O165  1  0.67740887  0.92688732  0.24496617  1
  O2-  O166  1  0.68007014  0.93022754  0.56696222  1
  O2-  O167  1  0.68425835  0.92567782  0.90286663  1
  O2-  O168  1  0.42675156  0.32423845  0.09630498  1
  O2-  O169  1  0.43158084  0.31608600  0.43521305  1
  O2-  O170  1  0.42693619  0.31915346  0.75592507  1
  O2-  O171  1  0.42069027  0.81365838  0.08889112  1
  O2-  O172  1  0.43052226  0.82001876  0.43236886  1
  O2-  O173  1  0.41944138  0.82058244  0.75523323  1
  O2-  O174  1  0.93651410  0.32535070  0.10151536  1
  O2-  O175  1  0.92757251  0.32302134  0.42284278  1
  O2-  O176  1  0.92842784  0.32478885  0.76439027  1
  O2-  O177  1  0.93038584  0.82127373  0.08830990  1
  O2-  O178  1  0.93200505  0.82032172  0.43309275  1
  O2-  O179  1  0.93408452  0.81866058  0.75788621  1
  O2-  O180  1  0.32150897  0.07047944  0.24473387  1
  O2-  O181  1  0.32186257  0.07336870  0.57520075  1
  O2-  O182  1  0.31708011  0.07088926  0.90189639  1
  O2-  O183  1  0.32256951  0.56974544  0.23463377  1
  O2-  O184  1  0.32115391  0.57310925  0.58016743  1
  O2-  O185  1  0.31721411  0.57132668  0.90707708  1
  O2-  O186  1  0.82030249  0.07127734  0.23596268  1
  O2-  O187  1  0.82351434  0.07047507  0.56883148  1
  O2-  O188  1  0.81884445  0.07142823  0.90262089  1
  O2-  O189  1  0.81847060  0.57150953  0.23595288  1
  O2-  O190  1  0.82027151  0.57098465  0.57525680  1
  O2-  O191  1  0.82379521  0.57047415  0.89932071  1
  O2-  O192  1  0.03670063  0.08460736  0.26459449  1
  O2-  O193  1  0.05121603  0.08205383  0.60682252  1
  O2-  O194  1  0.04713873  0.08091350  0.93606767  1
  O2-  O195  1  0.04663792  0.58172483  0.27456100  1
  O2-  O196  1  0.04276863  0.58870124  0.60252846  1
  O2-  O197  1  0.04278770  0.58845809  0.93364439  1
  O2-  O198  1  0.55282426  0.08340036  0.27299311  1
  O2-  O199  1  0.54193328  0.08533890  0.60395758  1
  O2-  O200  1  0.54128715  0.07887844  0.93209194  1
  O2-  O201  1  0.54916163  0.58326477  0.27125991  1
  O2-  O202  1  0.54099872  0.58447325  0.59368677  1
  O2-  O203  1  0.53760670  0.58831986  0.92938982  1
  O2-  O204  1  0.16535443  0.20780859  0.26397416  1
  O2-  O205  1  0.16552288  0.20726169  0.60257424  1
  O2-  O206  1  0.16297721  0.20223562  0.93461437  1
  O2-  O207  1  0.16617744  0.70032724  0.27456988  1
  O2-  O208  1  0.16702612  0.70291166  0.60490650  1
  O2-  O209  1  0.16263536  0.70662233  0.93317408  1
  O2-  O210  1  0.66839073  0.20513659  0.27498296  1
  O2-  O211  1  0.66011730  0.20755563  0.60191804  1
  O2-  O212  1  0.66811986  0.20795080  0.93051477  1
  O2-  O213  1  0.66521489  0.70546160  0.26907270  1
  O2-  O214  1  0.66915894  0.71065378  0.59486444  1
  O2-  O215  1  0.66961438  0.71079877  0.93275275  1
  O2-  O216  1  0.09064071  0.46454712  0.06311219  1
  O2-  O217  1  0.08225002  0.45385000  0.40311043  1
  O2-  O218  1  0.08405182  0.46524512  0.73598718  1
  O2-  O219  1  0.08044248  0.95373134  0.06651851  1
  O2-  O220  1  0.08483694  0.96427022  0.40250384  1
  O2-  O221  1  0.08927973  0.95457238  0.73100123  1
  O2-  O222  1  0.57814903  0.46139569  0.06434307  1
  O2-  O223  1  0.58590275  0.45523120  0.39994085  1
  O2-  O224  1  0.58502858  0.46019377  0.72641767  1
  O2-  O225  1  0.57553915  0.94652352  0.06443421  1
  O2-  O226  1  0.58215295  0.95162137  0.39574991  1
  O2-  O227  1  0.57785592  0.94916827  0.73162797  1
  O2-  O228  1  0.19734122  0.33448072  0.05645155  1
  O2-  O229  1  0.21032596  0.32735896  0.40124162  1
  O2-  O230  1  0.20851509  0.33280082  0.73779651  1
  O2-  O231  1  0.20577680  0.82714721  0.06750665  1
  O2-  O232  1  0.20765093  0.83306225  0.40249918  1
  O2-  O233  1  0.20609919  0.83444090  0.72833455  1
  O2-  O234  1  0.70179717  0.33225667  0.06711755  1
  O2-  O235  1  0.70222281  0.33488481  0.40059314  1
  O2-  O236  1  0.70172268  0.33762810  0.72528219  1
  O2-  O237  1  0.71076129  0.83184840  0.07063936  1
  O2-  O238  1  0.70321892  0.83409257  0.39563590  1
  O2-  O239  1  0.71413380  0.83098561  0.73142472  1
  O2-  O240  1  0.46048475  0.41702504  0.26896093  1
  O2-  O241  1  0.45507419  0.41120761  0.60393643  1
  O2-  O242  1  0.45308866  0.42061244  0.92762069  1
  O2-  O243  1  0.45613363  0.91689329  0.26360858  1
  O2-  O244  1  0.44776878  0.91697050  0.60426788  1
  O2-  O245  1  0.44057413  0.91860417  0.94336735  1
  O2-  O246  1  0.95136245  0.41962666  0.27428445  1
  O2-  O247  1  0.96325768  0.41762437  0.59765518  1
  O2-  O248  1  0.96512717  0.41709894  0.93270695  1
  O2-  O249  1  0.96266866  0.91549490  0.26488801  1
  O2-  O250  1  0.95994502  0.91485318  0.60789063  1
  O2-  O251  1  0.95936290  0.91241141  0.93423569  1
  O2-  O252  1  0.33480989  0.29028442  0.26635185  1
  O2-  O253  1  0.33482321  0.28995347  0.60557443  1
  O2-  O254  1  0.32726517  0.29257583  0.93017727  1
  O2-  O255  1  0.33023753  0.78949057  0.26663360  1
  O2-  O256  1  0.33354394  0.79261316  0.60207974  1
  O2-  O257  1  0.33402264  0.78821561  0.93466303  1
  O2-  O258  1  0.83170944  0.29967150  0.27414909  1
  O2-  O259  1  0.83052290  0.29727969  0.59498143  1
  O2-  O260  1  0.83238212  0.29535525  0.93574980  1
  O2-  O261  1  0.83287547  0.78994456  0.26601699  1
  O2-  O262  1  0.84309523  0.79101277  0.60355839  1
  O2-  O263  1  0.83947785  0.79225824  0.93441074  1
  O2-  O264  1  0.41938566  0.05151258  0.06932042  1
  O2-  O265  1  0.41867730  0.04735838  0.39423172  1
  O2-  O266  1  0.41260744  0.04493913  0.72904772  1
  O2-  O267  1  0.41343454  0.54663975  0.05868569  1
  O2-  O268  1  0.42238163  0.54398477  0.40240679  1
  O2-  O269  1  0.41831189  0.54615595  0.72795549  1
  O2-  O270  1  0.91780197  0.04223907  0.06622605  1
  O2-  O271  1  0.91579420  0.03625085  0.40292099  1
  O2-  O272  1  0.92015666  0.04579696  0.73631986  1
  O2-  O273  1  0.92160751  0.54415604  0.06713522  1
  O2-  O274  1  0.91647286  0.54478575  0.40544681  1
  O2-  O275  1  0.91391356  0.54526812  0.72620370  1
  O2-  O276  1  0.28857832  0.17107556  0.06879905  1
  O2-  O277  1  0.29498575  0.16344399  0.39606214  1
  O2-  O278  1  0.29076526  0.16084538  0.73006205  1
  O2-  O279  1  0.28779304  0.65832904  0.06110025  1
  O2-  O280  1  0.29408052  0.66742820  0.40494520  1
  O2-  O281  1  0.29625918  0.66468835  0.73287574  1
  O2-  O282  1  0.79388077  0.17196409  0.06902420  1
  O2-  O283  1  0.79296719  0.16802488  0.40410344  1
  O2-  O284  1  0.79344744  0.17518084  0.72935270  1
  O2-  O285  1  0.79563444  0.66973347  0.06547502  1
  O2-  O286  1  0.78790099  0.66803856  0.40353752  1
  O2-  O287  1  0.79396423  0.66296567  0.72646249  1
