# generated using pymatgen
data_Ca2Al2SiO7
_symmetry_space_group_name_H-M   'P 1'
_cell_length_a   15.46444009
_cell_length_b   15.46246839
_cell_length_c   15.28800910
_cell_angle_alpha   90.01164963
_cell_angle_beta   90.01933122
_cell_angle_gamma   90.00943441
_symmetry_Int_Tables_number   1
_chemical_formula_structural   Ca2Al2SiO7
_chemical_formula_sum   'Ca48 Al48 Si24 O168'
_cell_volume   3655.64418652
_cell_formula_units_Z   24
loop_
 _symmetry_equiv_pos_site_id
 _symmetry_equiv_pos_as_xyz
  1  'x, y, z'
loop_
 _atom_type_symbol
 _atom_type_oxidation_number
  Ca2+  2.0
  Al0+  0.0
  Si0+  0.0
  O2-  -2.0
loop_
 _atom_site_type_symbol
 _atom_site_label
 _atom_site_symmetry_multiplicity
 _atom_site_fract_x
 _atom_site_fract_y
 _atom_site_fract_z
 _atom_site_occupancy
  Ca2+  Ca0  1  0.16874302  0.07934424  0.17482507  1
  Ca2+  Ca1  1  0.16902604  0.08800144  0.49473426  1
  Ca2+  Ca2  1  0.16887299  0.08059037  0.84398341  1
  Ca2+  Ca3  1  0.16781365  0.57608965  0.16801391  1
  Ca2+  Ca4  1  0.17238942  0.58382749  0.50399371  1
  Ca2+  Ca5  1  0.17057763  0.57417086  0.84075170  1
  Ca2+  Ca6  1  0.66445815  0.07281176  0.17270178  1
  Ca2+  Ca7  1  0.64941970  0.07318832  0.50295988  1
  Ca2+  Ca8  1  0.66821919  0.07793542  0.83957106  1
  Ca2+  Ca9  1  0.66347595  0.57509796  0.17188865  1
  Ca2+  Ca10  1  0.67367681  0.57361413  0.50568128  1
  Ca2+  Ca11  1  0.66195248  0.57576616  0.83344965  1
  Ca2+  Ca12  1  0.08440514  0.32069651  0.15951492  1
  Ca2+  Ca13  1  0.07294589  0.33011066  0.49425713  1
  Ca2+  Ca14  1  0.07793099  0.33007905  0.82967929  1
  Ca2+  Ca15  1  0.07815348  0.84390399  0.16410711  1
  Ca2+  Ca16  1  0.07426385  0.83247927  0.48847500  1
  Ca2+  Ca17  1  0.08217710  0.83489105  0.83211057  1
  Ca2+  Ca18  1  0.58411485  0.33425479  0.16557064  1
  Ca2+  Ca19  1  0.58116379  0.32871521  0.49201160  1
  Ca2+  Ca20  1  0.58528920  0.32941739  0.82183143  1
  Ca2+  Ca21  1  0.58376343  0.83007596  0.15605896  1
  Ca2+  Ca22  1  0.59760004  0.82804041  0.49734891  1
  Ca2+  Ca23  1  0.59287389  0.82640639  0.83035758  1
  Ca2+  Ca24  1  0.33022496  0.41135747  0.17086227  1
  Ca2+  Ca25  1  0.33618311  0.40693421  0.50148740  1
  Ca2+  Ca26  1  0.33101401  0.41317128  0.83914255  1
  Ca2+  Ca27  1  0.32416761  0.91819838  0.17501498  1
  Ca2+  Ca28  1  0.33153847  0.92586185  0.49914525  1
  Ca2+  Ca29  1  0.32890421  0.91607325  0.84284893  1
  Ca2+  Ca30  1  0.81993455  0.42351085  0.17298072  1
  Ca2+  Ca31  1  0.82515196  0.42092373  0.50817494  1
  Ca2+  Ca32  1  0.82366031  0.41488618  0.83474163  1
  Ca2+  Ca33  1  0.82533624  0.91941405  0.17009303  1
  Ca2+  Ca34  1  0.82595734  0.91780539  0.49982308  1
  Ca2+  Ca35  1  0.82182514  0.92416059  0.83852748  1
  Ca2+  Ca36  1  0.41905060  0.16553935  0.17223468  1
  Ca2+  Ca37  1  0.42509172  0.17471374  0.49455298  1
  Ca2+  Ca38  1  0.42513697  0.17374536  0.82502891  1
  Ca2+  Ca39  1  0.42413837  0.67616695  0.15579340  1
  Ca2+  Ca40  1  0.42703307  0.66707650  0.49878438  1
  Ca2+  Ca41  1  0.43029543  0.67312646  0.83364971  1
  Ca2+  Ca42  1  0.92688688  0.15659099  0.16112951  1
  Ca2+  Ca43  1  0.91867136  0.17286068  0.49502237  1
  Ca2+  Ca44  1  0.91882115  0.16788951  0.83326597  1
  Ca2+  Ca45  1  0.90902014  0.67264576  0.16817645  1
  Ca2+  Ca46  1  0.90534957  0.67051196  0.49337646  1
  Ca2+  Ca47  1  0.91476526  0.66468088  0.82702268  1
  Al0+  Al48  1  0.00181950  0.00004970  -0.00104985  1
  Al0+  Al49  1  -0.00204191  -0.00225566  0.33016436  1
  Al0+  Al50  1  0.00041707  -0.00227388  0.66624221  1
  Al0+  Al51  1  0.00019249  0.49939477  0.00480094  1
  Al0+  Al52  1  0.00112227  0.50182474  0.33507050  1
  Al0+  Al53  1  0.00238836  0.49959483  0.66517914  1
  Al0+  Al54  1  0.49850098  0.00242681  -0.00111550  1
  Al0+  Al55  1  0.49689929  0.00038503  0.33852162  1
  Al0+  Al56  1  0.49574900  -0.00059816  0.67082343  1
  Al0+  Al57  1  0.49960959  0.50220337  -0.00039466  1
  Al0+  Al58  1  0.49867888  0.49995773  0.33291679  1
  Al0+  Al59  1  0.49853935  0.50384593  0.66319963  1
  Al0+  Al60  1  0.24870045  0.24897474  -0.00102596  1
  Al0+  Al61  1  0.24956260  0.24988794  0.33103275  1
  Al0+  Al62  1  0.25087266  0.24784412  0.66509677  1
  Al0+  Al63  1  0.24962907  0.74958825  -0.00038547  1
  Al0+  Al64  1  0.24846270  0.74804888  0.33763305  1
  Al0+  Al65  1  0.24980237  0.74915884  0.66738670  1
  Al0+  Al66  1  0.75246896  0.25224862  0.00856995  1
  Al0+  Al67  1  0.74947635  0.24881347  0.33064406  1
  Al0+  Al68  1  0.75290561  0.24744831  0.66063680  1
  Al0+  Al69  1  0.75183488  0.75007722  -0.00389933  1
  Al0+  Al70  1  0.75093052  0.75066546  0.33267602  1
  Al0+  Al71  1  0.75138498  0.75104061  0.67004825  1
  Al0+  Al72  1  0.42790179  0.82406860  0.98633533  1
  Al0+  Al73  1  0.67800964  0.92915424  0.01438246  1
  Al0+  Al74  1  0.67707932  0.43020454  0.01328219  1
  Al0+  Al75  1  0.82243782  0.57040078  0.68254894  1
  Al0+  Al76  1  0.17902033  0.42763562  0.01336956  1
  Al0+  Al77  1  0.57331546  0.67952967  0.98402126  1
  Al0+  Al78  1  0.92896831  0.81869049  0.31813108  1
  Al0+  Al79  1  0.67819515  0.93073114  0.34625083  1
  Al0+  Al80  1  0.82038136  0.57080726  0.34713540  1
  Al0+  Al81  1  0.31946977  0.07241948  0.35068015  1
  Al0+  Al82  1  0.18105447  0.92799583  0.01309122  1
  Al0+  Al83  1  0.07057082  0.17878858  0.98506403  1
  Al0+  Al84  1  0.67874509  0.93135236  0.68062512  1
  Al0+  Al85  1  0.93009925  0.32145395  0.65335154  1
  Al0+  Al86  1  0.06753514  0.18100876  0.31964191  1
  Al0+  Al87  1  0.42896562  0.32255601  0.65365276  1
  Al0+  Al88  1  0.57244578  0.68243374  0.65066878  1
  Al0+  Al89  1  0.67812389  0.42731280  0.68026736  1
  Al0+  Al90  1  0.67716017  0.42711934  0.34944758  1
  Al0+  Al91  1  0.82149716  0.07162928  0.01476118  1
  Al0+  Al92  1  0.43036272  0.32190453  0.31571839  1
  Al0+  Al93  1  0.57261719  0.17717686  0.65388998  1
  Al0+  Al94  1  0.57187586  0.17635959  0.31621726  1
  Al0+  Al95  1  0.17632193  0.92814710  0.34995672  1
  Si0+  Si96  1  0.31810772  0.07099729  0.68457039  1
  Si0+  Si97  1  0.17972086  0.42872028  0.34920572  1
  Si0+  Si98  1  0.42942628  0.32068716  0.98610487  1
  Si0+  Si99  1  0.18140466  0.42839378  0.68030838  1
  Si0+  Si100  1  0.42476805  0.82131446  0.64870995  1
  Si0+  Si101  1  0.92706460  0.32561853  0.31472826  1
  Si0+  Si102  1  0.32209034  0.07391395  0.01659976  1
  Si0+  Si103  1  0.82375244  0.57244122  0.01617294  1
  Si0+  Si104  1  0.92836689  0.32401558  0.98435615  1
  Si0+  Si105  1  0.57404125  0.18080354  0.98656842  1
  Si0+  Si106  1  0.07525748  0.67677168  0.31495219  1
  Si0+  Si107  1  0.07270631  0.67865501  0.65202031  1
  Si0+  Si108  1  0.82715568  0.07158853  0.68226283  1
  Si0+  Si109  1  0.32082381  0.57129634  0.34914199  1
  Si0+  Si110  1  0.32100489  0.57409301  0.68349261  1
  Si0+  Si111  1  0.07213060  0.17606718  0.65001757  1
  Si0+  Si112  1  0.57004422  0.68142291  0.31913866  1
  Si0+  Si113  1  0.82267906  0.07153172  0.34937199  1
  Si0+  Si114  1  0.17852707  0.92777958  0.68224275  1
  Si0+  Si115  1  0.32082888  0.57064134  0.01674935  1
  Si0+  Si116  1  0.93095302  0.81981934  0.65178310  1
  Si0+  Si117  1  0.07079509  0.67638504  0.98481960  1
  Si0+  Si118  1  0.93075720  0.82070806  0.98222321  1
  Si0+  Si119  1  0.42587201  0.82006259  0.32117140  1
  O2-  O120  1  0.25856792  -0.00061551  0.05873095  1
  O2-  O121  1  0.24682084  0.00036086  0.40126193  1
  O2-  O122  1  0.24753958  -0.00087204  0.72619798  1
  O2-  O123  1  0.25433780  0.50051141  0.06204211  1
  O2-  O124  1  0.25078469  0.49935612  0.39211663  1
  O2-  O125  1  0.25509330  0.49663104  0.72324222  1
  O2-  O126  1  0.74729284  0.00256251  0.06557477  1
  O2-  O127  1  0.74744617  0.01044605  0.39407234  1
  O2-  O128  1  0.75052244  0.01049935  0.72437463  1
  O2-  O129  1  0.75038595  0.50785814  0.05774320  1
  O2-  O130  1  0.75372346  0.49505607  0.39776857  1
  O2-  O131  1  0.75065207  0.49841277  0.73247558  1
  O2-  O132  1  -0.00758493  0.25391064  0.27026627  1
  O2-  O133  1  0.00297067  0.24424478  0.60694573  1
  O2-  O134  1  -0.00413250  0.25386069  0.93956904  1
  O2-  O135  1  0.00610522  0.74519383  0.27177547  1
  O2-  O136  1  -0.00033049  0.74641692  0.60954821  1
  O2-  O137  1  0.00052650  0.74716489  0.94088156  1
  O2-  O138  1  0.50418303  0.25244606  0.26513320  1
  O2-  O139  1  0.50742384  0.25683561  0.60538548  1
  O2-  O140  1  0.50355666  0.25310005  0.94422476  1
  O2-  O141  1  0.49953213  0.75310659  0.27766501  1
  O2-  O142  1  0.49898919  0.75928613  0.60368770  1
  O2-  O143  1  0.50542665  0.75766436  0.93620682  1
  O2-  O144  1  0.07104664  0.17934165  0.09780941  1
  O2-  O145  1  0.06613385  0.18455391  0.43336508  1
  O2-  O146  1  0.07335118  0.17609075  0.75563301  1
  O2-  O147  1  0.07067041  0.67460727  0.08946575  1
  O2-  O148  1  0.07872508  0.67713081  0.42077917  1
  O2-  O149  1  0.07534215  0.68033996  0.75729086  1
  O2-  O150  1  0.57207914  0.17958678  0.09110737  1
  O2-  O151  1  0.56694323  0.17522767  0.42953511  1
  O2-  O152  1  0.56869649  0.17671092  0.76840059  1
  O2-  O153  1  0.56937335  0.67790136  0.09815848  1
  O2-  O154  1  0.56917327  0.68212939  0.42435852  1
  O2-  O155  1  0.57001476  0.68237158  0.76344283  1
  O2-  O156  1  0.18023491  0.43047569  0.24411947  1
  O2-  O157  1  0.18098482  0.43080763  0.57512172  1
  O2-  O158  1  0.18062429  0.42986174  0.89969310  1
  O2-  O159  1  0.17947980  0.92772325  0.23646060  1
  O2-  O160  1  0.17813582  0.92639084  0.57782853  1
  O2-  O161  1  0.18049843  0.92948408  0.89907658  1
  O2-  O162  1  0.67576473  0.43303868  0.23549705  1
  O2-  O163  1  0.67921119  0.42916825  0.56731640  1
  O2-  O164  1  0.67703085  0.42738388  0.90032064  1
  O2-  O165  1  0.67920502  0.92726304  0.23349643  1
  O2-  O166  1  0.68278759  0.93002830  0.56750613  1
  O2-  O167  1  0.68152020  0.93059910  0.90058180  1
  O2-  O168  1  0.42752487  0.31991783  0.09067556  1
  O2-  O169  1  0.42962988  0.32152164  0.42910077  1
  O2-  O170  1  0.42351502  0.31788605  0.76772555  1
  O2-  O171  1  0.42489621  0.81905278  0.10019409  1
  O2-  O172  1  0.42347174  0.81566601  0.42629600  1
  O2-  O173  1  0.41894603  0.81700310  0.75382798  1
  O2-  O174  1  0.93159682  0.32676107  0.08951221  1
  O2-  O175  1  0.93185526  0.32638743  0.42062005  1
  O2-  O176  1  0.93426666  0.32253412  0.76652570  1
  O2-  O177  1  0.93067615  0.81973762  0.08708824  1
  O2-  O178  1  0.92933735  0.81708146  0.43176813  1
  O2-  O179  1  0.93516940  0.82160918  0.75695737  1
  O2-  O180  1  0.31853717  0.06982506  0.23699211  1
  O2-  O181  1  0.31620632  0.07188451  0.58006603  1
  O2-  O182  1  0.31848325  0.07660408  0.91054966  1
  O2-  O183  1  0.31868380  0.57359911  0.24428274  1
  O2-  O184  1  0.31606015  0.58055280  0.57853427  1
  O2-  O185  1  0.31885593  0.56938442  0.91089206  1
  O2-  O186  1  0.82559311  0.06588006  0.24410044  1
  O2-  O187  1  0.83884010  0.06551594  0.57775120  1
  O2-  O188  1  0.82006795  0.07097946  0.90049722  1
  O2-  O189  1  0.81700074  0.57201673  0.23324648  1
  O2-  O190  1  0.82197645  0.57039462  0.56944545  1
  O2-  O191  1  0.82911100  0.56939211  0.91093183  1
  O2-  O192  1  0.03908030  0.08328353  0.26714455  1
  O2-  O193  1  0.04769074  0.08169976  0.60496455  1
  O2-  O194  1  0.04006045  0.08268463  0.92919409  1
  O2-  O195  1  0.05086020  0.58245812  0.26934194  1
  O2-  O196  1  0.05126730  0.58582804  0.60418808  1
  O2-  O197  1  0.04290140  0.58436838  0.93670033  1
  O2-  O198  1  0.53628628  0.07827475  0.26481772  1
  O2-  O199  1  0.53319600  0.08096240  0.60260341  1
  O2-  O200  1  0.54582094  0.08955045  0.93791017  1
  O2-  O201  1  0.53946239  0.59035162  0.27248607  1
  O2-  O202  1  0.53770277  0.58776390  0.59555202  1
  O2-  O203  1  0.53673476  0.58342115  0.92984501  1
  O2-  O204  1  0.16360350  0.21271976  0.26613212  1
  O2-  O205  1  0.16475377  0.20363352  0.60380530  1
  O2-  O206  1  0.16648634  0.21125765  0.92953347  1
  O2-  O207  1  0.16901226  0.70123423  0.26845130  1
  O2-  O208  1  0.16307230  0.70969330  0.60286657  1
  O2-  O209  1  0.16248571  0.70335629  0.93631970  1
  O2-  O210  1  0.67303944  0.19691612  0.26505584  1
  O2-  O211  1  0.67436444  0.18985553  0.60304573  1
  O2-  O212  1  0.66692715  0.20862551  0.94161576  1
  O2-  O213  1  0.66091059  0.70924340  0.27139950  1
  O2-  O214  1  0.66971025  0.71420184  0.59853918  1
  O2-  O215  1  0.67304545  0.70225570  0.93071114  1
  O2-  O216  1  0.08446321  0.46019704  0.06956217  1
  O2-  O217  1  0.08845032  0.45733244  0.39742008  1
  O2-  O218  1  0.09172266  0.45981087  0.72922582  1
  O2-  O219  1  0.08529314  0.96086355  0.06537463  1
  O2-  O220  1  0.07722451  0.95621619  0.40113619  1
  O2-  O221  1  0.08630004  0.95422925  0.73003068  1
  O2-  O222  1  0.58025113  0.46083444  0.06712359  1
  O2-  O223  1  0.57923201  0.46001704  0.40055480  1
  O2-  O224  1  0.57807854  0.45761956  0.73034484  1
  O2-  O225  1  0.57735851  0.95427866  0.06404701  1
  O2-  O226  1  0.58041603  0.95409306  0.40147449  1
  O2-  O227  1  0.57925362  0.95430882  0.73290405  1
  O2-  O228  1  0.21022786  0.33157319  0.06710861  1
  O2-  O229  1  0.20736280  0.33782800  0.39718816  1
  O2-  O230  1  0.20622039  0.33522783  0.72685751  1
  O2-  O231  1  0.20529138  0.82949017  0.06627059  1
  O2-  O232  1  0.20423217  0.82882576  0.40232830  1
  O2-  O233  1  0.20665779  0.83561622  0.72975596  1
  O2-  O234  1  0.70954384  0.33651078  0.07097927  1
  O2-  O235  1  0.70069091  0.32569966  0.39746449  1
  O2-  O236  1  0.70733400  0.32661656  0.72959262  1
  O2-  O237  1  0.70855458  0.82961074  0.06375214  1
  O2-  O238  1  0.71596322  0.83616632  0.39980179  1
  O2-  O239  1  0.71605369  0.83749749  0.73542672  1
  O2-  O240  1  0.45338127  0.42264662  0.26346039  1
  O2-  O241  1  0.44282052  0.42496440  0.60428348  1
  O2-  O242  1  0.45134217  0.41464027  0.94038146  1
  O2-  O243  1  0.44809703  0.91376893  0.27714158  1
  O2-  O244  1  0.44296566  0.91799990  0.60781591  1
  O2-  O245  1  0.44637004  0.92532517  0.93441868  1
  O2-  O246  1  0.95677748  0.41864481  0.26968157  1
  O2-  O247  1  0.96659338  0.41595200  0.59749830  1
  O2-  O248  1  0.95743426  0.41661618  0.93748807  1
  O2-  O249  1  0.95924806  0.91406753  0.26225438  1
  O2-  O250  1  0.96209404  0.90999236  0.60283438  1
  O2-  O251  1  0.96313688  0.91031974  0.93353498  1
  O2-  O252  1  0.33144509  0.29178794  0.26418861  1
  O2-  O253  1  0.33225688  0.28745873  0.59922776  1
  O2-  O254  1  0.33854275  0.29010538  0.93780474  1
  O2-  O255  1  0.33523136  0.78789284  0.27337894  1
  O2-  O256  1  0.33349482  0.78881994  0.60064962  1
  O2-  O257  1  0.33097877  0.78908813  0.93156520  1
  O2-  O258  1  0.83187335  0.30476298  0.27131519  1
  O2-  O259  1  0.83536295  0.29277327  0.59543694  1
  O2-  O260  1  0.83418751  0.29819113  0.93948282  1
  O2-  O261  1  0.83412259  0.78510497  0.26162308  1
  O2-  O262  1  0.83909805  0.79362894  0.60505031  1
  O2-  O263  1  0.83952821  0.79461122  0.93292202  1
  O2-  O264  1  0.41744166  0.05558034  0.06075574  1
  O2-  O265  1  0.41517126  0.04115566  0.40689680  1
  O2-  O266  1  0.40852971  0.04357839  0.73456171  1
  O2-  O267  1  0.41415580  0.54733457  0.06313744  1
  O2-  O268  1  0.41218204  0.54470584  0.39737759  1
  O2-  O269  1  0.41405039  0.55270416  0.72970145  1
  O2-  O270  1  0.91877275  0.03727168  0.06560944  1
  O2-  O271  1  0.91270512  0.03832827  0.39793528  1
  O2-  O272  1  0.91697499  0.03744593  0.73343381  1
  O2-  O273  1  0.91511206  0.54495897  0.06606856  1
  O2-  O274  1  0.92279581  0.55194123  0.39729158  1
  O2-  O275  1  0.92395747  0.54500918  0.73248856  1
  O2-  O276  1  0.29006674  0.16438719  0.06419327  1
  O2-  O277  1  0.28762812  0.17036649  0.40314346  1
  O2-  O278  1  0.28872984  0.16222006  0.73323335  1
  O2-  O279  1  0.29156088  0.66275987  0.06320861  1
  O2-  O280  1  0.29098810  0.66062302  0.40073627  1
  O2-  O281  1  0.28484638  0.66195681  0.73406288  1
  O2-  O282  1  0.80244350  0.17106774  0.06823587  1
  O2-  O283  1  0.80743723  0.16890792  0.39066044  1
  O2-  O284  1  0.81002066  0.16797772  0.72451185  1
  O2-  O285  1  0.80247331  0.66823311  0.05863148  1
  O2-  O286  1  0.78784551  0.66761803  0.40019901  1
  O2-  O287  1  0.79611133  0.66944590  0.73497025  1
