# generated using pymatgen
data_Ca2Al2SiO7
_symmetry_space_group_name_H-M   'P 1'
_cell_length_a   15.46524724
_cell_length_b   15.46280482
_cell_length_c   15.28808975
_cell_angle_alpha   90.00218023
_cell_angle_beta   89.99949116
_cell_angle_gamma   89.98000144
_symmetry_Int_Tables_number   1
_chemical_formula_structural   Ca2Al2SiO7
_chemical_formula_sum   'Ca48 Al48 Si24 O168'
_cell_volume   3655.93392796
_cell_formula_units_Z   24
loop_
 _symmetry_equiv_pos_site_id
 _symmetry_equiv_pos_as_xyz
  1  'x, y, z'
loop_
 _atom_type_symbol
 _atom_type_oxidation_number
  Ca2+  2.0
  Al0+  0.0
  Si0+  0.0
  O2-  -2.0
loop_
 _atom_site_type_symbol
 _atom_site_label
 _atom_site_symmetry_multiplicity
 _atom_site_fract_x
 _atom_site_fract_y
 _atom_site_fract_z
 _atom_site_occupancy
  Ca2+  Ca0  1  0.17416643  0.08390462  0.16526672  1
  Ca2+  Ca1  1  0.16487591  0.07664999  0.51123386  1
  Ca2+  Ca2  1  0.16418802  0.07741218  0.83523236  1
  Ca2+  Ca3  1  0.15512378  0.57903882  0.16766996  1
  Ca2+  Ca4  1  0.16658192  0.58320775  0.51216492  1
  Ca2+  Ca5  1  0.15628762  0.57540119  0.83493685  1
  Ca2+  Ca6  1  0.67578981  0.08207065  0.16910934  1
  Ca2+  Ca7  1  0.67649269  0.08665468  0.50310131  1
  Ca2+  Ca8  1  0.68008297  0.07364308  0.84112017  1
  Ca2+  Ca9  1  0.66650727  0.58369786  0.16622010  1
  Ca2+  Ca10  1  0.66720090  0.58181613  0.50786853  1
  Ca2+  Ca11  1  0.66468761  0.58776254  0.83889753  1
  Ca2+  Ca12  1  0.07246393  0.33414028  0.15770987  1
  Ca2+  Ca13  1  0.07596060  0.33275474  0.50238518  1
  Ca2+  Ca14  1  0.07887427  0.32932859  0.82738670  1
  Ca2+  Ca15  1  0.07876618  0.81985967  0.15912360  1
  Ca2+  Ca16  1  0.08624786  0.82758784  0.50190520  1
  Ca2+  Ca17  1  0.07828867  0.83075055  0.82377519  1
  Ca2+  Ca18  1  0.57762855  0.32448784  0.16165175  1
  Ca2+  Ca19  1  0.58258332  0.32636128  0.49521852  1
  Ca2+  Ca20  1  0.57361206  0.33417755  0.83206479  1
  Ca2+  Ca21  1  0.58241322  0.83337229  0.15911487  1
  Ca2+  Ca22  1  0.57123515  0.83226388  0.50059518  1
  Ca2+  Ca23  1  0.58283312  0.82685852  0.82814965  1
  Ca2+  Ca24  1  0.32745639  0.41515078  0.16488679  1
  Ca2+  Ca25  1  0.32395070  0.42799153  0.51467896  1
  Ca2+  Ca26  1  0.32080822  0.42067322  0.83940828  1
  Ca2+  Ca27  1  0.33718831  0.91877795  0.16877461  1
  Ca2+  Ca28  1  0.33074147  0.91215146  0.50785568  1
  Ca2+  Ca29  1  0.32914919  0.91720078  0.83338226  1
  Ca2+  Ca30  1  0.83780460  0.41399802  0.17063383  1
  Ca2+  Ca31  1  0.83709521  0.41293888  0.50407159  1
  Ca2+  Ca32  1  0.83887338  0.41571147  0.83718456  1
  Ca2+  Ca33  1  0.83287695  0.92263559  0.16743294  1
  Ca2+  Ca34  1  0.84035696  0.92869854  0.50923015  1
  Ca2+  Ca35  1  0.83819732  0.92277651  0.84223963  1
  Ca2+  Ca36  1  0.42164122  0.16671632  0.15699639  1
  Ca2+  Ca37  1  0.42565977  0.16602642  0.49295102  1
  Ca2+  Ca38  1  0.40797314  0.17075591  0.83410206  1
  Ca2+  Ca39  1  0.42334293  0.67385270  0.16192469  1
  Ca2+  Ca40  1  0.40722413  0.67821452  0.50357306  1
  Ca2+  Ca41  1  0.42740783  0.66594771  0.82427423  1
  Ca2+  Ca42  1  0.90789777  0.17354471  0.16350778  1
  Ca2+  Ca43  1  0.91625087  0.17104342  0.49987744  1
  Ca2+  Ca44  1  0.91512023  0.17212589  0.82478004  1
  Ca2+  Ca45  1  0.92575311  0.67059240  0.15667702  1
  Ca2+  Ca46  1  0.93004317  0.67064017  0.50039189  1
  Ca2+  Ca47  1  0.92511423  0.68101530  0.83094705  1
  Al0+  Al48  1  0.00193149  0.00115228  0.00703005  1
  Al0+  Al49  1  0.00167734  0.00042380  0.33672190  1
  Al0+  Al50  1  0.00193946  0.00303198  0.66907285  1
  Al0+  Al51  1  -0.00111051  0.49824859  -0.00217008  1
  Al0+  Al52  1  -0.00104498  0.49885583  0.32867104  1
  Al0+  Al53  1  -0.00303783  0.50025383  0.66482604  1
  Al0+  Al54  1  0.50144701  -0.00047958  0.00580369  1
  Al0+  Al55  1  0.50154833  -0.00000923  0.32578627  1
  Al0+  Al56  1  0.50230222  0.00011637  0.66426634  1
  Al0+  Al57  1  0.49824016  0.49891114  -0.00475264  1
  Al0+  Al58  1  0.49892437  0.50087673  0.33573215  1
  Al0+  Al59  1  0.50075075  0.49886161  0.66625301  1
  Al0+  Al60  1  0.24903930  0.25163941  0.00621430  1
  Al0+  Al61  1  0.24855898  0.25067643  0.33621132  1
  Al0+  Al62  1  0.24940793  0.25184005  0.66428274  1
  Al0+  Al63  1  0.25275751  0.74688610  -0.00239997  1
  Al0+  Al64  1  0.25081947  0.74907328  0.32263096  1
  Al0+  Al65  1  0.25250364  0.75119240  0.67081265  1
  Al0+  Al66  1  0.74743813  0.24998049  -0.00085781  1
  Al0+  Al67  1  0.74844670  0.24960031  0.32987611  1
  Al0+  Al68  1  0.74869220  0.25070384  0.66902888  1
  Al0+  Al69  1  0.75078746  0.74919001  -0.00130796  1
  Al0+  Al70  1  0.74933981  0.74992444  0.33719567  1
  Al0+  Al71  1  0.74928003  0.75015505  0.65720950  1
  Al0+  Al72  1  0.42752364  0.31883710  0.98647563  1
  Al0+  Al73  1  0.17808487  0.43189743  0.01588690  1
  Al0+  Al74  1  0.93138625  0.31748660  0.31891585  1
  Al0+  Al75  1  0.82033999  0.07094670  0.68047037  1
  Al0+  Al76  1  0.42989589  0.82219602  0.65381169  1
  Al0+  Al77  1  0.82327127  0.07308090  0.01651303  1
  Al0+  Al78  1  0.18048183  0.93023013  0.67918128  1
  Al0+  Al79  1  0.07307420  0.17931550  0.65271730  1
  Al0+  Al80  1  0.07277025  0.67749679  0.98345510  1
  Al0+  Al81  1  0.57201913  0.67622750  0.64948477  1
  Al0+  Al82  1  0.57019761  0.67978096  0.98783976  1
  Al0+  Al83  1  0.17618515  0.42973916  0.68256108  1
  Al0+  Al84  1  0.07106049  0.68007841  0.65362511  1
  Al0+  Al85  1  0.56979874  0.18041682  0.31828917  1
  Al0+  Al86  1  0.81994920  0.07083903  0.34948862  1
  Al0+  Al87  1  0.68119169  0.92626059  0.01491375  1
  Al0+  Al88  1  0.92684274  0.32040827  0.65152996  1
  Al0+  Al89  1  0.32203684  0.57225724  0.68337230  1
  Al0+  Al90  1  0.43037200  0.81934734  0.31738794  1
  Al0+  Al91  1  0.06914382  0.68001261  0.31926110  1
  Al0+  Al92  1  0.92877893  0.82492718  0.65157374  1
  Al0+  Al93  1  0.31909975  0.06976740  0.01261908  1
  Al0+  Al94  1  0.92686340  0.31781205  0.98611359  1
  Al0+  Al95  1  0.93091408  0.82304527  0.98787266  1
  Si0+  Si96  1  0.17858824  0.92373727  0.01861042  1
  Si0+  Si97  1  0.32617544  0.07346641  0.68007751  1
  Si0+  Si98  1  0.32045212  0.57078905  0.34730116  1
  Si0+  Si99  1  0.42619447  0.32353377  0.31820584  1
  Si0+  Si100  1  0.32274717  0.07180443  0.34779021  1
  Si0+  Si101  1  0.67639144  0.92663723  0.35275547  1
  Si0+  Si102  1  0.42810161  0.32107763  0.65107263  1
  Si0+  Si103  1  0.42852087  0.82472437  0.98227761  1
  Si0+  Si104  1  0.82214332  0.57101799  0.34841226  1
  Si0+  Si105  1  0.07497422  0.17506326  0.31524555  1
  Si0+  Si106  1  0.18290573  0.92817593  0.34644797  1
  Si0+  Si107  1  0.57018677  0.18043932  0.65322947  1
  Si0+  Si108  1  0.57403452  0.67602000  0.31662985  1
  Si0+  Si109  1  0.92675599  0.82446096  0.31789119  1
  Si0+  Si110  1  0.67761778  0.92758811  0.68115298  1
  Si0+  Si111  1  0.17672793  0.42962352  0.34927061  1
  Si0+  Si112  1  0.07342882  0.17872065  0.98649082  1
  Si0+  Si113  1  0.32527630  0.57110442  0.01896570  1
  Si0+  Si114  1  0.67882917  0.42862787  0.68262455  1
  Si0+  Si115  1  0.67841632  0.43050632  0.34736559  1
  Si0+  Si116  1  0.81922271  0.56811510  0.01433614  1
  Si0+  Si117  1  0.57082682  0.17653747  0.98092591  1
  Si0+  Si118  1  0.67512453  0.42874160  0.01525429  1
  Si0+  Si119  1  0.81946512  0.57268899  0.68127510  1
  O2-  O120  1  0.24871927  -0.00793218  0.06232262  1
  O2-  O121  1  0.25121576  0.00202605  0.39003871  1
  O2-  O122  1  0.25576724  0.00644857  0.72290416  1
  O2-  O123  1  0.25053433  0.50906174  0.06401121  1
  O2-  O124  1  0.25055900  0.49860079  0.38951500  1
  O2-  O125  1  0.24643852  0.50364937  0.73274515  1
  O2-  O126  1  0.75294427  -0.00156369  0.06550674  1
  O2-  O127  1  0.74864806  -0.00798571  0.39637142  1
  O2-  O128  1  0.75183101  -0.01015441  0.72525754  1
  O2-  O129  1  0.74833025  0.49699182  0.05810484  1
  O2-  O130  1  0.74761608  0.50283342  0.39016424  1
  O2-  O131  1  0.74721322  0.50229406  0.72362556  1
  O2-  O132  1  0.00536141  0.24276536  0.27154948  1
  O2-  O133  1  0.00006737  0.24991673  0.60177733  1
  O2-  O134  1  -0.00230972  0.23907447  0.94217485  1
  O2-  O135  1  -0.00766128  0.75307473  0.27375967  1
  O2-  O136  1  0.00163853  0.75344592  0.60150741  1
  O2-  O137  1  0.00856480  0.75783232  0.93709118  1
  O2-  O138  1  0.49104029  0.25204970  0.27317262  1
  O2-  O139  1  0.49633968  0.24768840  0.60884885  1
  O2-  O140  1  0.49962111  0.24280140  0.93692759  1
  O2-  O141  1  0.50894539  0.74757905  0.27265709  1
  O2-  O142  1  0.49822067  0.74732817  0.60177551  1
  O2-  O143  1  0.49658689  0.75463747  0.94059816  1
  O2-  O144  1  0.07620104  0.18312501  0.09248089  1
  O2-  O145  1  0.07793154  0.17555798  0.42032579  1
  O2-  O146  1  0.07374898  0.17977687  0.76627731  1
  O2-  O147  1  0.06706240  0.67694826  0.09776345  1
  O2-  O148  1  0.07125721  0.68036390  0.43195223  1
  O2-  O149  1  0.06683307  0.68014477  0.76644357  1
  O2-  O150  1  0.57037157  0.18035558  0.08682065  1
  O2-  O151  1  0.56896576  0.18342158  0.43207711  1
  O2-  O152  1  0.56932527  0.18265743  0.75790192  1
  O2-  O153  1  0.56819852  0.67805721  0.10143996  1
  O2-  O154  1  0.57309433  0.67269257  0.42142497  1
  O2-  O155  1  0.57230086  0.67689002  0.76305968  1
  O2-  O156  1  0.17670500  0.42958997  0.24416611  1
  O2-  O157  1  0.17969447  0.42997223  0.56797033  1
  O2-  O158  1  0.17834005  0.43004634  0.90359484  1
  O2-  O159  1  0.18521974  0.92930577  0.24140384  1
  O2-  O160  1  0.18298454  0.93024957  0.56527014  1
  O2-  O161  1  0.17807296  0.92508146  0.91336723  1
  O2-  O162  1  0.67648182  0.43205228  0.24230103  1
  O2-  O163  1  0.67843681  0.42610710  0.57700619  1
  O2-  O164  1  0.67348490  0.42967002  0.91024075  1
  O2-  O165  1  0.67648760  0.92567055  0.24735161  1
  O2-  O166  1  0.67320530  0.93340502  0.57557587  1
  O2-  O167  1  0.68074529  0.92751330  0.90124235  1
  O2-  O168  1  0.43085273  0.31799442  0.10007929  1
  O2-  O169  1  0.42857726  0.32356664  0.42396248  1
  O2-  O170  1  0.42903463  0.32074181  0.75604287  1
  O2-  O171  1  0.42953932  0.82337149  0.08843224  1
  O2-  O172  1  0.42741204  0.81834397  0.43001836  1
  O2-  O173  1  0.43502794  0.82739307  0.76664228  1
  O2-  O174  1  0.92823682  0.31958090  0.09966458  1
  O2-  O175  1  0.93199926  0.31954253  0.43141746  1
  O2-  O176  1  0.92451294  0.31809840  0.76471483  1
  O2-  O177  1  0.93002234  0.81790986  0.10211210  1
  O2-  O178  1  0.92933483  0.82466571  0.42320057  1
  O2-  O179  1  0.92856227  0.82320660  0.76496055  1
  O2-  O180  1  0.32143186  0.07270422  0.24281355  1
  O2-  O181  1  0.32908041  0.07245445  0.57401807  1
  O2-  O182  1  0.31637745  0.07046250  0.89959781  1
  O2-  O183  1  0.32382331  0.56839027  0.24246145  1
  O2-  O184  1  0.32131370  0.56905949  0.56850211  1
  O2-  O185  1  0.33092496  0.56642721  0.91438470  1
  O2-  O186  1  0.81712436  0.07142459  0.23686755  1
  O2-  O187  1  0.81558247  0.07399660  0.56695038  1
  O2-  O188  1  0.82003222  0.07479669  0.90309289  1
  O2-  O189  1  0.82161453  0.57003005  0.24313997  1
  O2-  O190  1  0.81883846  0.56993237  0.57560610  1
  O2-  O191  1  0.81739330  0.56729733  0.90936645  1
  O2-  O192  1  0.05193108  0.08043683  0.27034782  1
  O2-  O193  1  0.04551055  0.08179651  0.59861717  1
  O2-  O194  1  0.05765141  0.08119130  0.94619796  1
  O2-  O195  1  0.03652510  0.58418438  0.26494668  1
  O2-  O196  1  0.03885115  0.58321287  0.59919748  1
  O2-  O197  1  0.03476966  0.58247831  0.93197978  1
  O2-  O198  1  0.54253276  0.08448620  0.26258272  1
  O2-  O199  1  0.54607976  0.08892624  0.60372110  1
  O2-  O200  1  0.54744841  0.08163683  0.93816992  1
  O2-  O201  1  0.54502848  0.58283373  0.27028417  1
  O2-  O202  1  0.54665657  0.57595985  0.59804686  1
  O2-  O203  1  0.54021991  0.58344622  0.93323240  1
  O2-  O204  1  0.16908610  0.20249080  0.26979960  1
  O2-  O205  1  0.17144774  0.20619325  0.59658030  1
  O2-  O206  1  0.16370908  0.21151127  0.93961583  1
  O2-  O207  1  0.16375575  0.71032451  0.26153564  1
  O2-  O208  1  0.17131995  0.70590965  0.60384212  1
  O2-  O209  1  0.17587058  0.69302573  0.93690156  1
  O2-  O210  1  0.66260722  0.21697092  0.26201532  1
  O2-  O211  1  0.65900155  0.21448942  0.60407021  1
  O2-  O212  1  0.66228693  0.20667598  0.93439955  1
  O2-  O213  1  0.66981859  0.69757345  0.27258447  1
  O2-  O214  1  0.66858505  0.70368524  0.59280991  1
  O2-  O215  1  0.66718139  0.70680620  0.93391526  1
  O2-  O216  1  0.08071879  0.46251498  0.07036583  1
  O2-  O217  1  0.08552026  0.46028274  0.39554416  1
  O2-  O218  1  0.07613262  0.45570424  0.73307872  1
  O2-  O219  1  0.08681519  0.94998377  0.06834262  1
  O2-  O220  1  0.09017855  0.95211270  0.39378694  1
  O2-  O221  1  0.08613284  0.96257641  0.73610232  1
  O2-  O222  1  0.58482347  0.45921926  0.06446931  1
  O2-  O223  1  0.58617438  0.45588617  0.39699546  1
  O2-  O224  1  0.58649743  0.45364758  0.73031024  1
  O2-  O225  1  0.58311764  0.95494974  0.06958526  1
  O2-  O226  1  0.58304662  0.95800193  0.39652820  1
  O2-  O227  1  0.58705790  0.95966741  0.73011169  1
  O2-  O228  1  0.21227686  0.33756435  0.07303005  1
  O2-  O229  1  0.20154964  0.33643435  0.39625525  1
  O2-  O230  1  0.20829586  0.33117734  0.73332613  1
  O2-  O231  1  0.20493568  0.82930661  0.06373451  1
  O2-  O232  1  0.21472908  0.83626992  0.39117917  1
  O2-  O233  1  0.21167234  0.83602318  0.73633952  1
  O2-  O234  1  0.70052066  0.33629066  0.06246426  1
  O2-  O235  1  0.70763299  0.33924165  0.39463649  1
  O2-  O236  1  0.70710707  0.33859467  0.73273270  1
  O2-  O237  1  0.70832475  0.82763449  0.06968223  1
  O2-  O238  1  0.69550007  0.83077345  0.39795714  1
  O2-  O239  1  0.69641293  0.83029161  0.72125711  1
  O2-  O240  1  0.45529369  0.41618388  0.27220634  1
  O2-  O241  1  0.46051893  0.41044030  0.60213104  1
  O2-  O242  1  0.46166648  0.41282799  0.93085979  1
  O2-  O243  1  0.45801353  0.91638224  0.26312245  1
  O2-  O244  1  0.46076227  0.91951549  0.59702007  1
  O2-  O245  1  0.45400464  0.91879982  0.93861626  1
  O2-  O246  1  0.96133431  0.41392936  0.26390337  1
  O2-  O247  1  0.95255812  0.41926588  0.59838757  1
  O2-  O248  1  0.95956010  0.41356344  0.93333610  1
  O2-  O249  1  0.95510390  0.91733989  0.27217291  1
  O2-  O250  1  0.95924989  0.92268599  0.59996269  1
  O2-  O251  1  0.95325679  0.92487919  0.94008392  1
  O2-  O252  1  0.33078378  0.30110062  0.27464691  1
  O2-  O253  1  0.33675480  0.29725880  0.60158353  1
  O2-  O254  1  0.33074444  0.28780854  0.93419829  1
  O2-  O255  1  0.33743582  0.78540702  0.25854261  1
  O2-  O256  1  0.33163579  0.79497311  0.59977197  1
  O2-  O257  1  0.33418221  0.80110106  0.93813467  1
  O2-  O258  1  0.83340285  0.29017286  0.26612554  1
  O2-  O259  1  0.82770769  0.29122415  0.59889544  1
  O2-  O260  1  0.82765597  0.29507205  0.93377750  1
  O2-  O261  1  0.83082885  0.80097259  0.27573425  1
  O2-  O262  1  0.83136344  0.79763450  0.59625325  1
  O2-  O263  1  0.83506093  0.78880045  0.93449611  1
  O2-  O264  1  0.41669726  0.04338628  0.06800156  1
  O2-  O265  1  0.41584110  0.04416625  0.39253859  1
  O2-  O266  1  0.41877310  0.04720813  0.72800074  1
  O2-  O267  1  0.41588084  0.53741261  0.06790930  1
  O2-  O268  1  0.41233263  0.54509507  0.39664362  1
  O2-  O269  1  0.42004646  0.53778207  0.73395058  1
  O2-  O270  1  0.92284781  0.05122099  0.07110002  1
  O2-  O271  1  0.91953559  0.04483716  0.40118749  1
  O2-  O272  1  0.91855291  0.04782608  0.73292014  1
  O2-  O273  1  0.90968379  0.53821070  0.06316421  1
  O2-  O274  1  0.91213254  0.53774902  0.39595772  1
  O2-  O275  1  0.90954929  0.54327490  0.72986438  1
  O2-  O276  1  0.28699514  0.16441145  0.07090430  1
  O2-  O277  1  0.29828935  0.16501900  0.39549924  1
  O2-  O278  1  0.30232245  0.16829103  0.72361616  1
  O2-  O279  1  0.30730002  0.66790339  0.06217443  1
  O2-  O280  1  0.28965929  0.66321521  0.39123397  1
  O2-  O281  1  0.30448858  0.67264566  0.73444469  1
  O2-  O282  1  0.78715311  0.17059643  0.06902346  1
  O2-  O283  1  0.78303553  0.16725635  0.40106904  1
  O2-  O284  1  0.78224427  0.16516400  0.73461399  1
  O2-  O285  1  0.79087288  0.65879996  0.06347010  1
  O2-  O286  1  0.79851194  0.66370983  0.39651534  1
  O2-  O287  1  0.79144883  0.66547830  0.72632224  1
