# generated using pymatgen
data_Ca2Al2SiO7
_symmetry_space_group_name_H-M   'P 1'
_cell_length_a   15.45822343
_cell_length_b   15.45835232
_cell_length_c   15.28399795
_cell_angle_alpha   90.00507717
_cell_angle_beta   90.00781691
_cell_angle_gamma   89.98511666
_symmetry_Int_Tables_number   1
_chemical_formula_structural   Ca2Al2SiO7
_chemical_formula_sum   'Ca48 Al48 Si24 O168'
_cell_volume   3652.24356032
_cell_formula_units_Z   24
loop_
 _symmetry_equiv_pos_site_id
 _symmetry_equiv_pos_as_xyz
  1  'x, y, z'
loop_
 _atom_type_symbol
 _atom_type_oxidation_number
  Ca2+  2.0
  Al0+  0.0
  Si0+  0.0
  O2-  -2.0
loop_
 _atom_site_type_symbol
 _atom_site_label
 _atom_site_symmetry_multiplicity
 _atom_site_fract_x
 _atom_site_fract_y
 _atom_site_fract_z
 _atom_site_occupancy
  Ca2+  Ca0  1  0.17171624  0.07982920  0.17367814  1
  Ca2+  Ca1  1  0.16066333  0.07497300  0.50376703  1
  Ca2+  Ca2  1  0.17014327  0.08262744  0.83413267  1
  Ca2+  Ca3  1  0.16967460  0.58114002  0.17092894  1
  Ca2+  Ca4  1  0.16884612  0.58667121  0.50879523  1
  Ca2+  Ca5  1  0.16264676  0.58434135  0.83657099  1
  Ca2+  Ca6  1  0.66227152  0.07136891  0.16901830  1
  Ca2+  Ca7  1  0.67137542  0.06900165  0.50827344  1
  Ca2+  Ca8  1  0.66857745  0.07436840  0.83921046  1
  Ca2+  Ca9  1  0.66727891  0.58609872  0.17069745  1
  Ca2+  Ca10  1  0.66749611  0.58309315  0.50434040  1
  Ca2+  Ca11  1  0.67614462  0.58974346  0.83717153  1
  Ca2+  Ca12  1  0.07822339  0.32581025  0.16168084  1
  Ca2+  Ca13  1  0.07477370  0.31998065  0.49814824  1
  Ca2+  Ca14  1  0.07161123  0.32697353  0.82549357  1
  Ca2+  Ca15  1  0.07086712  0.84019340  0.16598931  1
  Ca2+  Ca16  1  0.07949461  0.83656964  0.49368741  1
  Ca2+  Ca17  1  0.07704787  0.83195178  0.82647764  1
  Ca2+  Ca18  1  0.58390471  0.32901812  0.16489139  1
  Ca2+  Ca19  1  0.58112126  0.33428264  0.49099415  1
  Ca2+  Ca20  1  0.58674895  0.32373898  0.83275336  1
  Ca2+  Ca21  1  0.58382576  0.82950192  0.15833152  1
  Ca2+  Ca22  1  0.59040459  0.82539372  0.49339243  1
  Ca2+  Ca23  1  0.58801023  0.82943606  0.83210786  1
  Ca2+  Ca24  1  0.33751774  0.41749351  0.17377324  1
  Ca2+  Ca25  1  0.33488001  0.41700219  0.50210225  1
  Ca2+  Ca26  1  0.32910035  0.41909142  0.83744394  1
  Ca2+  Ca27  1  0.33524017  0.91803087  0.17174917  1
  Ca2+  Ca28  1  0.32134088  0.90682134  0.50135733  1
  Ca2+  Ca29  1  0.32605193  0.91556433  0.84095387  1
  Ca2+  Ca30  1  0.82947795  0.42237855  0.16859274  1
  Ca2+  Ca31  1  0.83011268  0.42166031  0.50646426  1
  Ca2+  Ca32  1  0.84497088  0.42678081  0.83758060  1
  Ca2+  Ca33  1  0.82409132  0.90739095  0.17070919  1
  Ca2+  Ca34  1  0.82601678  0.91635139  0.50457573  1
  Ca2+  Ca35  1  0.82301012  0.91415392  0.83721196  1
  Ca2+  Ca36  1  0.42026006  0.16782039  0.16065136  1
  Ca2+  Ca37  1  0.41646099  0.17479424  0.49474675  1
  Ca2+  Ca38  1  0.42230262  0.15583694  0.83798472  1
  Ca2+  Ca39  1  0.42915056  0.68027198  0.16364445  1
  Ca2+  Ca40  1  0.42988865  0.67409535  0.49201044  1
  Ca2+  Ca41  1  0.43002464  0.67235039  0.83033249  1
  Ca2+  Ca42  1  0.92173429  0.16982171  0.16173141  1
  Ca2+  Ca43  1  0.92429538  0.15553059  0.50046273  1
  Ca2+  Ca44  1  0.91171512  0.17804382  0.82298535  1
  Ca2+  Ca45  1  0.91016762  0.67784205  0.16230512  1
  Ca2+  Ca46  1  0.91839358  0.67075892  0.50045657  1
  Ca2+  Ca47  1  0.91348250  0.66979817  0.82957062  1
  Al0+  Al48  1  0.00012673  -0.00017500  -0.00569439  1
  Al0+  Al49  1  0.00212066  0.00018977  0.32678225  1
  Al0+  Al50  1  -0.00060493  0.00126244  0.67286870  1
  Al0+  Al51  1  -0.00018884  0.49885333  0.00502513  1
  Al0+  Al52  1  0.00114742  0.49886325  0.33489057  1
  Al0+  Al53  1  -0.00005440  0.49958537  0.66128598  1
  Al0+  Al54  1  0.49772241  0.00081814  0.00100361  1
  Al0+  Al55  1  0.49955113  0.00134520  0.33903131  1
  Al0+  Al56  1  0.49698218  -0.00017631  0.66747585  1
  Al0+  Al57  1  0.49952987  0.49980448  -0.00372517  1
  Al0+  Al58  1  0.50089070  0.50002585  0.32976443  1
  Al0+  Al59  1  0.49979729  0.50166482  0.66514935  1
  Al0+  Al60  1  0.24963132  0.24952260  0.00396898  1
  Al0+  Al61  1  0.24967526  0.25078956  0.32637339  1
  Al0+  Al62  1  0.24855664  0.25041107  0.66468961  1
  Al0+  Al63  1  0.25021723  0.74844949  0.00063383  1
  Al0+  Al64  1  0.25187556  0.74890616  0.33346378  1
  Al0+  Al65  1  0.25052747  0.74989867  0.66991547  1
  Al0+  Al66  1  0.74999014  0.25101277  -0.00758640  1
  Al0+  Al67  1  0.75143808  0.25205596  0.33817437  1
  Al0+  Al68  1  0.74647606  0.25080845  0.66334345  1
  Al0+  Al69  1  0.75210277  0.74915602  0.00035128  1
  Al0+  Al70  1  0.75311779  0.74916671  0.33197373  1
  Al0+  Al71  1  0.74961781  0.74737451  0.66917363  1
  Al0+  Al72  1  0.07091799  0.17790777  0.65166268  1
  Al0+  Al73  1  0.92940114  0.82119872  0.98480309  1
  Al0+  Al74  1  0.17877480  0.92809256  0.68116516  1
  Al0+  Al75  1  0.67920795  0.43008427  0.34600591  1
  Al0+  Al76  1  0.18004517  0.92987334  0.34548168  1
  Al0+  Al77  1  0.07204493  0.68020697  0.65460977  1
  Al0+  Al78  1  0.42770980  0.82324799  0.31966088  1
  Al0+  Al79  1  0.57283432  0.68060039  0.31790045  1
  Al0+  Al80  1  0.93147372  0.81978839  0.32138579  1
  Al0+  Al81  1  0.82019513  0.07238691  0.68181487  1
  Al0+  Al82  1  0.42755138  0.82270850  0.98416327  1
  Al0+  Al83  1  0.67879241  0.92837679  0.34639400  1
  Al0+  Al84  1  0.57163068  0.68050240  0.65150507  1
  Al0+  Al85  1  0.82097703  0.56971517  0.01531710  1
  Al0+  Al86  1  0.06941280  0.17929838  0.31738864  1
  Al0+  Al87  1  0.43047664  0.32028016  0.32013084  1
  Al0+  Al88  1  0.92997041  0.32053948  0.98721300  1
  Al0+  Al89  1  0.56994316  0.17927838  0.98759677  1
  Al0+  Al90  1  0.92581555  0.32192441  0.64904746  1
  Al0+  Al91  1  0.31897344  0.06971841  0.01508052  1
  Al0+  Al92  1  0.57198621  0.67881438  0.98331554  1
  Al0+  Al93  1  0.82131350  0.56733775  0.68000935  1
  Al0+  Al94  1  0.67788494  0.92758668  0.68271912  1
  Al0+  Al95  1  0.68129136  0.93076570  0.01418982  1
  Si0+  Si96  1  0.92707888  0.32417865  0.31544261  1
  Si0+  Si97  1  0.07338447  0.17859237  0.98224807  1
  Si0+  Si98  1  0.82297831  0.07256304  0.34690222  1
  Si0+  Si99  1  0.32187909  0.57081823  0.68261218  1
  Si0+  Si100  1  0.42722877  0.82280437  0.64993607  1
  Si0+  Si101  1  0.32159324  0.07482352  0.35112446  1
  Si0+  Si102  1  0.07408125  0.67539398  0.31741201  1
  Si0+  Si103  1  0.42580470  0.32215844  0.98230510  1
  Si0+  Si104  1  0.42910037  0.32171221  0.65322215  1
  Si0+  Si105  1  0.32020182  0.56909875  0.34890434  1
  Si0+  Si106  1  0.32032082  0.07532191  0.68304226  1
  Si0+  Si107  1  0.17861580  0.42742706  0.34989060  1
  Si0+  Si108  1  0.32311553  0.57084104  0.01629946  1
  Si0+  Si109  1  0.07172595  0.67700607  0.98650939  1
  Si0+  Si110  1  0.67639480  0.42628101  0.01510992  1
  Si0+  Si111  1  0.92834749  0.82173781  0.65134104  1
  Si0+  Si112  1  0.67397748  0.42839629  0.68403743  1
  Si0+  Si113  1  0.18002751  0.42988104  0.01640738  1
  Si0+  Si114  1  0.18030643  0.42923545  0.68064768  1
  Si0+  Si115  1  0.17626267  0.92567883  0.01775838  1
  Si0+  Si116  1  0.82292753  0.07529173  0.01555100  1
  Si0+  Si117  1  0.57433060  0.17793258  0.31936995  1
  Si0+  Si118  1  0.56939616  0.17710071  0.65029056  1
  Si0+  Si119  1  0.82386509  0.57199844  0.35152773  1
  O2-  O120  1  0.24525110  -0.00589810  0.06157546  1
  O2-  O121  1  0.25657039  0.00238118  0.39442391  1
  O2-  O122  1  0.25307889  0.00457194  0.72567965  1
  O2-  O123  1  0.25243933  0.49924765  0.05911473  1
  O2-  O124  1  0.24743744  0.50010962  0.39295316  1
  O2-  O125  1  0.24889000  0.50160854  0.72529490  1
  O2-  O126  1  0.75699379  0.00536353  0.06152145  1
  O2-  O127  1  0.75199400  0.00607868  0.39072704  1
  O2-  O128  1  0.74925893  0.00029592  0.73303099  1
  O2-  O129  1  0.74260171  0.49709390  0.05938623  1
  O2-  O130  1  0.75421575  0.50354686  0.39395419  1
  O2-  O131  1  0.74725672  0.49177612  0.72771355  1
  O2-  O132  1  -0.00573690  0.25415197  0.27148214  1
  O2-  O133  1  -0.00651482  0.24436720  0.60118777  1
  O2-  O134  1  0.00007079  0.24222899  0.93920532  1
  O2-  O135  1  0.00562371  0.74377419  0.27400883  1
  O2-  O136  1  0.00074352  0.75673628  0.60665446  1
  O2-  O137  1  0.00687956  0.74769238  0.94106996  1
  O2-  O138  1  0.50449111  0.24528036  0.27435258  1
  O2-  O139  1  0.49960103  0.25093311  0.61031664  1
  O2-  O140  1  0.49504816  0.25446162  0.93873185  1
  O2-  O141  1  0.50653186  0.75894745  0.26978660  1
  O2-  O142  1  0.50079850  0.75950800  0.60610829  1
  O2-  O143  1  0.50117063  0.75267131  0.93379746  1
  O2-  O144  1  0.07441455  0.18153979  0.08813034  1
  O2-  O145  1  0.06875760  0.17901002  0.43016251  1
  O2-  O146  1  0.07774105  0.18480273  0.76483336  1
  O2-  O147  1  0.07240858  0.67555511  0.09217065  1
  O2-  O148  1  0.07427725  0.67414271  0.42297174  1
  O2-  O149  1  0.07195697  0.67950182  0.76770793  1
  O2-  O150  1  0.56919764  0.18171973  0.10079427  1
  O2-  O151  1  0.57220436  0.18007698  0.42521851  1
  O2-  O152  1  0.56785967  0.17705064  0.75541091  1
  O2-  O153  1  0.56965883  0.67769544  0.09672976  1
  O2-  O154  1  0.57048806  0.67891420  0.43180448  1
  O2-  O155  1  0.56884379  0.67707009  0.76405377  1
  O2-  O156  1  0.17869423  0.42932493  0.24442821  1
  O2-  O157  1  0.18474389  0.42882738  0.57558824  1
  O2-  O158  1  0.18071372  0.43072250  0.91106483  1
  O2-  O159  1  0.17907010  0.93298129  0.23263240  1
  O2-  O160  1  0.18054454  0.92661118  0.56782914  1
  O2-  O161  1  0.17705012  0.92518602  0.91209623  1
  O2-  O162  1  0.68098048  0.42839505  0.23293624  1
  O2-  O163  1  0.66990670  0.43171578  0.57835449  1
  O2-  O164  1  0.67597947  0.42503293  0.90965755  1
  O2-  O165  1  0.67964579  0.92919853  0.23330537  1
  O2-  O166  1  0.67961480  0.92786315  0.56871682  1
  O2-  O167  1  0.68183813  0.93167341  0.90137110  1
  O2-  O168  1  0.42516408  0.32265438  0.08776556  1
  O2-  O169  1  0.42958885  0.31989342  0.43384802  1
  O2-  O170  1  0.42801167  0.32324229  0.75811089  1
  O2-  O171  1  0.42734537  0.82041817  0.09757476  1
  O2-  O172  1  0.42259990  0.81601933  0.43304193  1
  O2-  O173  1  0.42453427  0.82012699  0.75527576  1
  O2-  O174  1  0.93322243  0.32029714  0.10060509  1
  O2-  O175  1  0.92922017  0.32700979  0.42048990  1
  O2-  O176  1  0.93224158  0.32397784  0.76277426  1
  O2-  O177  1  0.93038486  0.82030868  0.09815750  1
  O2-  O178  1  0.93235864  0.81961817  0.43460940  1
  O2-  O179  1  0.92877670  0.81829220  0.75693745  1
  O2-  O180  1  0.31977718  0.07732432  0.24564134  1
  O2-  O181  1  0.32069220  0.07993852  0.57768246  1
  O2-  O182  1  0.31487708  0.07241119  0.90182679  1
  O2-  O183  1  0.31759470  0.56663680  0.24366415  1
  O2-  O184  1  0.32199942  0.56796340  0.57740180  1
  O2-  O185  1  0.32139165  0.56873001  0.91091341  1
  O2-  O186  1  0.82195525  0.07464810  0.24125448  1
  O2-  O187  1  0.81847004  0.06858977  0.56757491  1
  O2-  O188  1  0.81976785  0.07657958  0.91036993  1
  O2-  O189  1  0.82602943  0.57041394  0.24596253  1
  O2-  O190  1  0.82036334  0.56776834  0.56687836  1
  O2-  O191  1  0.82458924  0.56732248  0.90234366  1
  O2-  O192  1  0.03990382  0.08480451  0.25966644  1
  O2-  O193  1  0.04542028  0.07739169  0.60097781  1
  O2-  O194  1  0.05545990  0.08308659  0.93830720  1
  O2-  O195  1  0.04988814  0.58074443  0.27162801  1
  O2-  O196  1  0.04303403  0.58442277  0.59824995  1
  O2-  O197  1  0.04480057  0.58345049  0.94113394  1
  O2-  O198  1  0.54882808  0.08408706  0.27470481  1
  O2-  O199  1  0.53899028  0.08643515  0.60183958  1
  O2-  O200  1  0.53549149  0.08530005  0.93165320  1
  O2-  O201  1  0.53817359  0.58446679  0.26478037  1
  O2-  O202  1  0.53558691  0.58467663  0.59776460  1
  O2-  O203  1  0.54144256  0.58026603  0.93036804  1
  O2-  O204  1  0.16432104  0.21332496  0.26206869  1
  O2-  O205  1  0.16745329  0.21235416  0.59668016  1
  O2-  O206  1  0.16507944  0.21133792  0.93673885  1
  O2-  O207  1  0.16787476  0.69897439  0.27157801  1
  O2-  O208  1  0.17074976  0.70649735  0.60162629  1
  O2-  O209  1  0.16686845  0.69702698  0.94097000  1
  O2-  O210  1  0.66782539  0.20506072  0.27420749  1
  O2-  O211  1  0.66014150  0.20334254  0.60108676  1
  O2-  O212  1  0.66442829  0.21003350  0.92941674  1
  O2-  O213  1  0.67324573  0.70192091  0.26760579  1
  O2-  O214  1  0.66938502  0.70735681  0.59820098  1
  O2-  O215  1  0.67083095  0.70663084  0.93278258  1
  O2-  O216  1  0.09064745  0.45939481  0.06734310  1
  O2-  O217  1  0.08617535  0.45229488  0.39744585  1
  O2-  O218  1  0.08836684  0.45671807  0.72671743  1
  O2-  O219  1  0.08190522  0.95366013  0.06162081  1
  O2-  O220  1  0.08367423  0.96356646  0.39869925  1
  O2-  O221  1  0.08274940  0.95631278  0.73672774  1
  O2-  O222  1  0.58047645  0.44803455  0.05917830  1
  O2-  O223  1  0.58163731  0.45968927  0.39981264  1
  O2-  O224  1  0.58155569  0.45663271  0.73176072  1
  O2-  O225  1  0.58417055  0.96278452  0.06617613  1
  O2-  O226  1  0.58216696  0.95627984  0.40284166  1
  O2-  O227  1  0.57750561  0.95571856  0.73212651  1
  O2-  O228  1  0.20706882  0.33843455  0.06488306  1
  O2-  O229  1  0.21035716  0.33643562  0.39593344  1
  O2-  O230  1  0.21156951  0.33934530  0.73021800  1
  O2-  O231  1  0.19917170  0.83083519  0.06280435  1
  O2-  O232  1  0.20755535  0.83109274  0.39861490  1
  O2-  O233  1  0.21113112  0.83235507  0.73714185  1
  O2-  O234  1  0.70525068  0.33331516  0.06126127  1
  O2-  O235  1  0.70748044  0.33367167  0.40342719  1
  O2-  O236  1  0.69291311  0.33174888  0.72569990  1
  O2-  O237  1  0.71360994  0.83424818  0.06685913  1
  O2-  O238  1  0.71413492  0.83251813  0.39939591  1
  O2-  O239  1  0.70783308  0.82974005  0.73502364  1
  O2-  O240  1  0.46035628  0.41565351  0.26413178  1
  O2-  O241  1  0.45585164  0.41319076  0.60442048  1
  O2-  O242  1  0.44870566  0.41582735  0.93521697  1
  O2-  O243  1  0.44637898  0.92652227  0.27387925  1
  O2-  O244  1  0.44367226  0.91915007  0.60575035  1
  O2-  O245  1  0.45001808  0.92253532  0.93305776  1
  O2-  O246  1  0.95604543  0.41704821  0.26890974  1
  O2-  O247  1  0.96189988  0.41662339  0.59384641  1
  O2-  O248  1  0.96796264  0.41568632  0.93477110  1
  O2-  O249  1  0.96245815  0.91418462  0.26383890  1
  O2-  O250  1  0.95072886  0.91701512  0.60871816  1
  O2-  O251  1  0.95662791  0.91828276  0.92941134  1
  O2-  O252  1  0.33433184  0.29281359  0.26369367  1
  O2-  O253  1  0.33768515  0.29410945  0.60448778  1
  O2-  O254  1  0.33168088  0.29583229  0.93716328  1
  O2-  O255  1  0.33200288  0.78786171  0.26444229  1
  O2-  O256  1  0.33595879  0.78932588  0.60367561  1
  O2-  O257  1  0.32888751  0.79045282  0.93230189  1
  O2-  O258  1  0.83255975  0.29970248  0.27105336  1
  O2-  O259  1  0.82417114  0.30178117  0.59934701  1
  O2-  O260  1  0.83331079  0.29691873  0.93091566  1
  O2-  O261  1  0.83695996  0.78730302  0.26504848  1
  O2-  O262  1  0.83664188  0.79073900  0.60513639  1
  O2-  O263  1  0.83533235  0.78634189  0.93039639  1
  O2-  O264  1  0.41574799  0.04317229  0.07026559  1
  O2-  O265  1  0.41647126  0.05689270  0.39787090  1
  O2-  O266  1  0.41412917  0.05037191  0.72887896  1
  O2-  O267  1  0.41418536  0.54118172  0.06372749  1
  O2-  O268  1  0.41090313  0.53770536  0.39589487  1
  O2-  O269  1  0.41162585  0.53827879  0.73131911  1
  O2-  O270  1  0.91936708  0.05226652  0.05764193  1
  O2-  O271  1  0.91581329  0.04231666  0.39146822  1
  O2-  O272  1  0.91973996  0.05181754  0.73527583  1
  O2-  O273  1  0.91617299  0.53628986  0.07193181  1
  O2-  O274  1  0.91807870  0.54559413  0.39742206  1
  O2-  O275  1  0.91941865  0.53747537  0.73277149  1
  O2-  O276  1  0.28907769  0.16725308  0.07014284  1
  O2-  O277  1  0.29126090  0.16824601  0.39605209  1
  O2-  O278  1  0.29344283  0.16816340  0.73123829  1
  O2-  O279  1  0.29390672  0.66150581  0.06500811  1
  O2-  O280  1  0.29363874  0.66034765  0.39770278  1
  O2-  O281  1  0.29549023  0.66167372  0.73147922  1
  O2-  O282  1  0.79661256  0.16939798  0.06093715  1
  O2-  O283  1  0.80280173  0.16678482  0.39463422  1
  O2-  O284  1  0.78955503  0.17223010  0.73167652  1
  O2-  O285  1  0.79152626  0.66606660  0.06953266  1
  O2-  O286  1  0.79947327  0.66533770  0.39772358  1
  O2-  O287  1  0.79039026  0.66327103  0.73457675  1
