# generated using pymatgen
data_Ca2Al2SiO7
_symmetry_space_group_name_H-M   'P 1'
_cell_length_a   15.45389159
_cell_length_b   15.45332714
_cell_length_c   15.28096122
_cell_angle_alpha   90.00801278
_cell_angle_beta   89.99509636
_cell_angle_gamma   89.99399251
_symmetry_Int_Tables_number   1
_chemical_formula_structural   Ca2Al2SiO7
_chemical_formula_sum   'Ca48 Al48 Si24 O168'
_cell_volume   3649.30805023
_cell_formula_units_Z   24
loop_
 _symmetry_equiv_pos_site_id
 _symmetry_equiv_pos_as_xyz
  1  'x, y, z'
loop_
 _atom_type_symbol
 _atom_type_oxidation_number
  Ca2+  2.0
  Al0+  0.0
  Si0+  0.0
  O2-  -2.0
loop_
 _atom_site_type_symbol
 _atom_site_label
 _atom_site_symmetry_multiplicity
 _atom_site_fract_x
 _atom_site_fract_y
 _atom_site_fract_z
 _atom_site_occupancy
  Ca2+  Ca0  1  0.17446241  0.08577364  0.17492820  1
  Ca2+  Ca1  1  0.16820314  0.08354397  0.50696315  1
  Ca2+  Ca2  1  0.16421809  0.07983895  0.82972268  1
  Ca2+  Ca3  1  0.16807856  0.57882130  0.16363427  1
  Ca2+  Ca4  1  0.17399018  0.58196229  0.50795152  1
  Ca2+  Ca5  1  0.18125515  0.58027909  0.84025597  1
  Ca2+  Ca6  1  0.66201984  0.07866457  0.16538982  1
  Ca2+  Ca7  1  0.67578139  0.07761329  0.51315168  1
  Ca2+  Ca8  1  0.66108676  0.07789572  0.83508469  1
  Ca2+  Ca9  1  0.67168821  0.57402887  0.17102504  1
  Ca2+  Ca10  1  0.66788394  0.58069353  0.50781580  1
  Ca2+  Ca11  1  0.65698044  0.57136276  0.83365300  1
  Ca2+  Ca12  1  0.07529406  0.33613633  0.16207964  1
  Ca2+  Ca13  1  0.07981398  0.31981107  0.49218591  1
  Ca2+  Ca14  1  0.08033574  0.33193821  0.82978209  1
  Ca2+  Ca15  1  0.07488422  0.83396465  0.16580053  1
  Ca2+  Ca16  1  0.07147167  0.84158090  0.50061714  1
  Ca2+  Ca17  1  0.07875218  0.83561671  0.82276622  1
  Ca2+  Ca18  1  0.58780224  0.32478515  0.15737046  1
  Ca2+  Ca19  1  0.58248908  0.33294613  0.50690621  1
  Ca2+  Ca20  1  0.58690326  0.32757740  0.82420516  1
  Ca2+  Ca21  1  0.57251358  0.83580040  0.15857940  1
  Ca2+  Ca22  1  0.57796724  0.83313550  0.50034541  1
  Ca2+  Ca23  1  0.57515974  0.83165007  0.82436817  1
  Ca2+  Ca24  1  0.32917034  0.42047515  0.16816531  1
  Ca2+  Ca25  1  0.33629539  0.42168705  0.51149223  1
  Ca2+  Ca26  1  0.33878000  0.42816699  0.83713832  1
  Ca2+  Ca27  1  0.33823686  0.92133873  0.17391789  1
  Ca2+  Ca28  1  0.33025438  0.91630952  0.50489435  1
  Ca2+  Ca29  1  0.33116540  0.90905759  0.83552331  1
  Ca2+  Ca30  1  0.83486486  0.41579102  0.17079418  1
  Ca2+  Ca31  1  0.83188042  0.42016669  0.50339350  1
  Ca2+  Ca32  1  0.82228128  0.41023172  0.83809625  1
  Ca2+  Ca33  1  0.82464504  0.91291408  0.17099856  1
  Ca2+  Ca34  1  0.83226227  0.91944078  0.51426642  1
  Ca2+  Ca35  1  0.82181426  0.91978934  0.83113909  1
  Ca2+  Ca36  1  0.42119933  0.16478776  0.16082315  1
  Ca2+  Ca37  1  0.42067718  0.16535075  0.49963964  1
  Ca2+  Ca38  1  0.43057876  0.17442673  0.82514566  1
  Ca2+  Ca39  1  0.41053618  0.67882214  0.16096757  1
  Ca2+  Ca40  1  0.41926787  0.67456442  0.50322719  1
  Ca2+  Ca41  1  0.41719571  0.67105575  0.82413844  1
  Ca2+  Ca42  1  0.92147455  0.17813431  0.16306022  1
  Ca2+  Ca43  1  0.92764475  0.16292279  0.49649146  1
  Ca2+  Ca44  1  0.91869887  0.16895440  0.82645117  1
  Ca2+  Ca45  1  0.91241986  0.66680843  0.16865431  1
  Ca2+  Ca46  1  0.90828896  0.67899959  0.49580157  1
  Ca2+  Ca47  1  0.91876463  0.67334056  0.82717974  1
  Al0+  Al48  1  -0.00060253  0.00140495  0.00213621  1
  Al0+  Al49  1  -0.00005075  -0.00126366  0.32105560  1
  Al0+  Al50  1  0.00089373  0.00119676  0.66874061  1
  Al0+  Al51  1  0.00066696  0.50086966  -0.00262741  1
  Al0+  Al52  1  -0.00062930  0.50074684  0.33678518  1
  Al0+  Al53  1  0.00066793  0.50062139  0.66704699  1
  Al0+  Al54  1  0.49966506  -0.00058309  -0.00510511  1
  Al0+  Al55  1  0.49886852  -0.00036189  0.33511840  1
  Al0+  Al56  1  0.49931073  0.00128340  0.66213396  1
  Al0+  Al57  1  0.50112061  0.50176960  0.01416571  1
  Al0+  Al58  1  0.50001644  0.49880496  0.33304107  1
  Al0+  Al59  1  0.50079286  0.50103362  0.66640396  1
  Al0+  Al60  1  0.24933738  0.24971491  0.00287800  1
  Al0+  Al61  1  0.25267686  0.24935897  0.33433296  1
  Al0+  Al62  1  0.24893192  0.24998725  0.66085769  1
  Al0+  Al63  1  0.24750411  0.75118030  0.00218177  1
  Al0+  Al64  1  0.24945032  0.75009958  0.32977253  1
  Al0+  Al65  1  0.24933279  0.74955422  0.67095158  1
  Al0+  Al66  1  0.75242270  0.24872629  -0.00279330  1
  Al0+  Al67  1  0.74936566  0.24789262  0.33137733  1
  Al0+  Al68  1  0.75143720  0.25133237  0.66837513  1
  Al0+  Al69  1  0.74832487  0.75097328  0.00411707  1
  Al0+  Al70  1  0.74830826  0.74658717  0.33168974  1
  Al0+  Al71  1  0.74980965  0.75049826  0.66436771  1
  Al0+  Al72  1  0.67814229  0.93004105  0.01426348  1
  Al0+  Al73  1  0.18105291  0.93104055  0.67899920  1
  Al0+  Al74  1  0.92689502  0.82025151  0.31832051  1
  Al0+  Al75  1  0.82256255  0.07144026  0.68127927  1
  Al0+  Al76  1  0.68072987  0.42675556  0.01453754  1
  Al0+  Al77  1  0.93105508  0.32190527  0.98424689  1
  Al0+  Al78  1  0.68157090  0.43145781  0.67931622  1
  Al0+  Al79  1  0.42847916  0.81966922  0.98556982  1
  Al0+  Al80  1  0.17854042  0.42822462  0.01473137  1
  Al0+  Al81  1  0.32132032  0.07080985  0.34811930  1
  Al0+  Al82  1  0.32013765  0.56964649  0.67910455  1
  Al0+  Al83  1  0.42578307  0.82199347  0.65138246  1
  Al0+  Al84  1  0.57017012  0.18021664  0.98645664  1
  Al0+  Al85  1  0.82041574  0.56974769  0.34846040  1
  Al0+  Al86  1  0.57116690  0.67860537  0.65267113  1
  Al0+  Al87  1  0.42993050  0.32149272  0.65352158  1
  Al0+  Al88  1  0.07387110  0.17837304  0.31575855  1
  Al0+  Al89  1  0.67632771  0.92804305  0.68063707  1
  Al0+  Al90  1  0.57377332  0.17837318  0.64984354  1
  Al0+  Al91  1  0.43043004  0.81978657  0.31908111  1
  Al0+  Al92  1  0.32194148  0.57321865  0.01815434  1
  Al0+  Al93  1  0.93044912  0.81946585  0.65618105  1
  Al0+  Al94  1  0.92918808  0.32139947  0.31923906  1
  Al0+  Al95  1  0.06945777  0.17995428  0.65385992  1
  Si0+  Si96  1  0.42950988  0.32294354  0.31690889  1
  Si0+  Si97  1  0.32034556  0.06896193  0.01246501  1
  Si0+  Si98  1  0.82120435  0.06951097  0.34512308  1
  Si0+  Si99  1  0.92694842  0.82242281  0.98492804  1
  Si0+  Si100  1  0.17662645  0.92751015  0.34823373  1
  Si0+  Si101  1  0.17607675  0.92921592  0.01693722  1
  Si0+  Si102  1  0.06952192  0.68096348  0.98450805  1
  Si0+  Si103  1  0.32265480  0.07482088  0.68393352  1
  Si0+  Si104  1  0.67880508  0.92877579  0.34739522  1
  Si0+  Si105  1  0.17666386  0.42553152  0.68182516  1
  Si0+  Si106  1  0.07250533  0.67681044  0.65115430  1
  Si0+  Si107  1  0.07281426  0.67739689  0.31642756  1
  Si0+  Si108  1  0.92745335  0.32454417  0.64967694  1
  Si0+  Si109  1  0.07412269  0.17713643  0.98209646  1
  Si0+  Si110  1  0.57303760  0.67712413  0.98593468  1
  Si0+  Si111  1  0.17975781  0.42944562  0.34960530  1
  Si0+  Si112  1  0.42715040  0.32415515  0.98733267  1
  Si0+  Si113  1  0.82296411  0.57284897  0.01573155  1
  Si0+  Si114  1  0.56987185  0.17888101  0.31821871  1
  Si0+  Si115  1  0.32085438  0.57203655  0.34936951  1
  Si0+  Si116  1  0.82430676  0.57392230  0.68412737  1
  Si0+  Si117  1  0.67723777  0.42481831  0.35152787  1
  Si0+  Si118  1  0.82337302  0.07109172  0.01968274  1
  Si0+  Si119  1  0.57142837  0.67543254  0.31399388  1
  O2-  O120  1  0.24814172  -0.00024158  0.05696963  1
  O2-  O121  1  0.24305182  -0.00166626  0.39191301  1
  O2-  O122  1  0.25868089  0.00160688  0.72856201  1
  O2-  O123  1  0.25250873  0.49740624  0.06702598  1
  O2-  O124  1  0.25132061  0.49994008  0.39208517  1
  O2-  O125  1  0.24612648  0.49357942  0.72511500  1
  O2-  O126  1  0.75411070  0.00244577  0.06367420  1
  O2-  O127  1  0.75487551  -0.00521196  0.38845778  1
  O2-  O128  1  0.74504408  0.00409933  0.73010061  1
  O2-  O129  1  0.75544293  0.50254071  0.05954671  1
  O2-  O130  1  0.74639863  0.49389226  0.39386278  1
  O2-  O131  1  0.75711703  0.50447840  0.72846014  1
  O2-  O132  1  0.00254818  0.25169046  0.26704205  1
  O2-  O133  1  -0.00334523  0.25610052  0.60662932  1
  O2-  O134  1  0.00661291  0.24717602  0.93910255  1
  O2-  O135  1  0.00245356  0.74529415  0.27248341  1
  O2-  O136  1  0.00185192  0.74280057  0.60657971  1
  O2-  O137  1  -0.00169459  0.75201008  0.94291216  1
  O2-  O138  1  0.50079896  0.25189583  0.27550174  1
  O2-  O139  1  0.49860672  0.24774869  0.60026834  1
  O2-  O140  1  0.49947692  0.26017477  0.94268685  1
  O2-  O141  1  0.50276086  0.74416250  0.26997874  1
  O2-  O142  1  0.50229306  0.75396935  0.60237772  1
  O2-  O143  1  0.50123389  0.74222504  0.94178835  1
  O2-  O144  1  0.07388630  0.17539255  0.08751312  1
  O2-  O145  1  0.07207817  0.17760260  0.42930303  1
  O2-  O146  1  0.06911889  0.18095691  0.76717035  1
  O2-  O147  1  0.06899432  0.68198900  0.08990575  1
  O2-  O148  1  0.07605814  0.67791764  0.42165411  1
  O2-  O149  1  0.07132038  0.67754215  0.75706093  1
  O2-  O150  1  0.56652089  0.17882399  0.10056601  1
  O2-  O151  1  0.57053035  0.17874084  0.42264546  1
  O2-  O152  1  0.57245418  0.18095590  0.76354212  1
  O2-  O153  1  0.57476693  0.68065622  0.09179355  1
  O2-  O154  1  0.57099701  0.67468019  0.41921623  1
  O2-  O155  1  0.56822313  0.67605099  0.76647213  1
  O2-  O156  1  0.18050988  0.43100915  0.24452278  1
  O2-  O157  1  0.17581475  0.42798714  0.57581689  1
  O2-  O158  1  0.17899083  0.43090315  0.90136792  1
  O2-  O159  1  0.17862953  0.92661105  0.24209285  1
  O2-  O160  1  0.17829602  0.93279427  0.56587478  1
  O2-  O161  1  0.17321363  0.92858738  0.91207325  1
  O2-  O162  1  0.67652668  0.42440654  0.24576100  1
  O2-  O163  1  0.68329280  0.43269335  0.56596642  1
  O2-  O164  1  0.67990400  0.42773016  0.90178968  1
  O2-  O165  1  0.67746339  0.93207178  0.24185739  1
  O2-  O166  1  0.68125116  0.92741548  0.56628794  1
  O2-  O167  1  0.67889929  0.92951084  0.90209704  1
  O2-  O168  1  0.42609580  0.31892001  0.09350754  1
  O2-  O169  1  0.42949277  0.32617634  0.42147365  1
  O2-  O170  1  0.43107178  0.32185629  0.76744535  1
  O2-  O171  1  0.42957022  0.82196003  0.09926179  1
  O2-  O172  1  0.43019655  0.81900083  0.43136502  1
  O2-  O173  1  0.42417207  0.81712674  0.76501301  1
  O2-  O174  1  0.93208836  0.32101703  0.09754177  1
  O2-  O175  1  0.93039357  0.31939378  0.43257306  1
  O2-  O176  1  0.92967542  0.32571627  0.75538654  1
  O2-  O177  1  0.92813432  0.82087652  0.09032597  1
  O2-  O178  1  0.92777142  0.82210391  0.43112437  1
  O2-  O179  1  0.93239636  0.81814980  0.76970357  1
  O2-  O180  1  0.32365431  0.06856468  0.23411084  1
  O2-  O181  1  0.31881041  0.07581020  0.57825760  1
  O2-  O182  1  0.31873468  0.06889794  0.90781130  1
  O2-  O183  1  0.31901682  0.57122738  0.24446663  1
  O2-  O184  1  0.31756136  0.56921384  0.56526885  1
  O2-  O185  1  0.32078088  0.57392763  0.90474399  1
  O2-  O186  1  0.81678978  0.07059065  0.24002066  1
  O2-  O187  1  0.82477555  0.06769512  0.56666538  1
  O2-  O188  1  0.82743537  0.06862267  0.91467600  1
  O2-  O189  1  0.81804517  0.56922572  0.23494462  1
  O2-  O190  1  0.82524670  0.57245485  0.57843924  1
  O2-  O191  1  0.82364965  0.57545429  0.91048685  1
  O2-  O192  1  0.04697461  0.08102211  0.25990856  1
  O2-  O193  1  0.03693705  0.08464707  0.59884249  1
  O2-  O194  1  0.04587416  0.08315478  0.93727292  1
  O2-  O195  1  0.04596403  0.58412142  0.27045121  1
  O2-  O196  1  0.05078553  0.58220820  0.60464826  1
  O2-  O197  1  0.04313818  0.59000320  0.93556019  1
  O2-  O198  1  0.53886940  0.08800866  0.27040369  1
  O2-  O199  1  0.54809526  0.08001157  0.59588361  1
  O2-  O200  1  0.53438220  0.08662507  0.93100515  1
  O2-  O201  1  0.54602992  0.58098542  0.26850933  1
  O2-  O202  1  0.53921372  0.58300627  0.59630647  1
  O2-  O203  1  0.54983085  0.58053107  0.94531823  1
  O2-  O204  1  0.17369933  0.20702731  0.26542732  1
  O2-  O205  1  0.16527635  0.20789279  0.59685342  1
  O2-  O206  1  0.16854300  0.20081648  0.93672462  1
  O2-  O207  1  0.16452422  0.70446235  0.26647325  1
  O2-  O208  1  0.16482815  0.70436394  0.60496584  1
  O2-  O209  1  0.16050185  0.71066515  0.93710106  1
  O2-  O210  1  0.66163776  0.20449444  0.26904667  1
  O2-  O211  1  0.67184205  0.21006405  0.59762843  1
  O2-  O212  1  0.66854198  0.20478983  0.93487457  1
  O2-  O213  1  0.66471440  0.70025280  0.26737781  1
  O2-  O214  1  0.67033749  0.70301531  0.59887948  1
  O2-  O215  1  0.66630494  0.70369680  0.93984637  1
  O2-  O216  1  0.08154174  0.46318330  0.06812496  1
  O2-  O217  1  0.08854613  0.45709727  0.39772971  1
  O2-  O218  1  0.08322541  0.45175990  0.72850974  1
  O2-  O219  1  0.08485000  0.95782642  0.06619504  1
  O2-  O220  1  0.08041864  0.95132158  0.38962675  1
  O2-  O221  1  0.08718326  0.96547038  0.73651351  1
  O2-  O222  1  0.58579871  0.45484620  0.07416589  1
  O2-  O223  1  0.58314226  0.45203775  0.39623558  1
  O2-  O224  1  0.58559187  0.46279480  0.73375659  1
  O2-  O225  1  0.58176903  0.96459476  0.06793800  1
  O2-  O226  1  0.58937786  0.96118430  0.39547067  1
  O2-  O227  1  0.57589875  0.95322332  0.73104552  1
  O2-  O228  1  0.20294226  0.32877524  0.06909503  1
  O2-  O229  1  0.20853067  0.33751705  0.39572092  1
  O2-  O230  1  0.20002235  0.33133660  0.72671091  1
  O2-  O231  1  0.20151286  0.83748331  0.06517783  1
  O2-  O232  1  0.20332720  0.83385771  0.39363209  1
  O2-  O233  1  0.20629301  0.83374852  0.73530753  1
  O2-  O234  1  0.71324048  0.33016251  0.06816103  1
  O2-  O235  1  0.70241967  0.33063458  0.39642308  1
  O2-  O236  1  0.71118538  0.33531240  0.73439390  1
  O2-  O237  1  0.70842096  0.83383406  0.07098426  1
  O2-  O238  1  0.70091409  0.83405087  0.39012946  1
  O2-  O239  1  0.70858296  0.83057679  0.73375273  1
  O2-  O240  1  0.45591606  0.41476312  0.26787974  1
  O2-  O241  1  0.46170790  0.41765614  0.59807345  1
  O2-  O242  1  0.44933592  0.42145862  0.94898730  1
  O2-  O243  1  0.46350072  0.91655889  0.26555105  1
  O2-  O244  1  0.44734871  0.92213200  0.59984594  1
  O2-  O245  1  0.45966776  0.91483794  0.93076238  1
  O2-  O246  1  0.95693883  0.42118338  0.26810517  1
  O2-  O247  1  0.95250555  0.41898556  0.60396162  1
  O2-  O248  1  0.95955958  0.41908175  0.93013086  1
  O2-  O249  1  0.95681432  0.91398989  0.25807942  1
  O2-  O250  1  0.96551137  0.91437972  0.60217099  1
  O2-  O251  1  0.95625445  0.91476701  0.94034047  1
  O2-  O252  1  0.33815578  0.29444155  0.26946082  1
  O2-  O253  1  0.33086172  0.29735037  0.59923447  1
  O2-  O254  1  0.33422524  0.29666905  0.94130178  1
  O2-  O255  1  0.33271976  0.79100490  0.26482215  1
  O2-  O256  1  0.32836020  0.78814466  0.59877672  1
  O2-  O257  1  0.32884549  0.79254834  0.93590464  1
  O2-  O258  1  0.83050241  0.29128972  0.26622432  1
  O2-  O259  1  0.83422305  0.30062841  0.60390031  1
  O2-  O260  1  0.83578258  0.28845008  0.93035769  1
  O2-  O261  1  0.83088605  0.78669038  0.26371839  1
  O2-  O262  1  0.83474030  0.79153680  0.59970835  1
  O2-  O263  1  0.83467349  0.79425449  0.93950590  1
  O2-  O264  1  0.41100145  0.03881926  0.06081598  1
  O2-  O265  1  0.41648808  0.03727576  0.40314647  1
  O2-  O266  1  0.41853633  0.05522150  0.72648079  1
  O2-  O267  1  0.41953652  0.55077929  0.07565163  1
  O2-  O268  1  0.41387337  0.54434028  0.39423509  1
  O2-  O269  1  0.41564399  0.53850849  0.73383081  1
  O2-  O270  1  0.91658549  0.04485059  0.06785081  1
  O2-  O271  1  0.91609778  0.04429158  0.38710078  1
  O2-  O272  1  0.91768089  0.03813450  0.73740078  1
  O2-  O273  1  0.91676090  0.54805413  0.06178625  1
  O2-  O274  1  0.91805604  0.54412550  0.40346740  1
  O2-  O275  1  0.91923843  0.55051052  0.72990631  1
  O2-  O276  1  0.29528143  0.16109395  0.06194153  1
  O2-  O277  1  0.29584366  0.16904239  0.40174664  1
  O2-  O278  1  0.29140584  0.16695647  0.73023759  1
  O2-  O279  1  0.28435939  0.66956899  0.07167781  1
  O2-  O280  1  0.29119394  0.66394449  0.39532019  1
  O2-  O281  1  0.28700670  0.66380568  0.73591499  1
  O2-  O282  1  0.79656675  0.16451586  0.06477490  1
  O2-  O283  1  0.79109704  0.16002847  0.39370054  1
  O2-  O284  1  0.80053566  0.17174111  0.73216717  1
  O2-  O285  1  0.79627676  0.66547537  0.06450667  1
  O2-  O286  1  0.78744840  0.66638980  0.40204523  1
  O2-  O287  1  0.79946940  0.66750063  0.72943433  1
