# generated using pymatgen
data_Ca2Al2SiO7
_symmetry_space_group_name_H-M   'P 1'
_cell_length_a   15.46628544
_cell_length_b   15.46627143
_cell_length_c   15.29009182
_cell_angle_alpha   89.99892602
_cell_angle_beta   90.00267155
_cell_angle_gamma   89.99716271
_symmetry_Int_Tables_number   1
_chemical_formula_structural   Ca2Al2SiO7
_chemical_formula_sum   'Ca48 Al48 Si24 O168'
_cell_volume   3657.47815765
_cell_formula_units_Z   24
loop_
 _symmetry_equiv_pos_site_id
 _symmetry_equiv_pos_as_xyz
  1  'x, y, z'
loop_
 _atom_type_symbol
 _atom_type_oxidation_number
  Ca2+  2.0
  Al0+  0.0
  Si0+  0.0
  O2-  -2.0
loop_
 _atom_site_type_symbol
 _atom_site_label
 _atom_site_symmetry_multiplicity
 _atom_site_fract_x
 _atom_site_fract_y
 _atom_site_fract_z
 _atom_site_occupancy
  Ca2+  Ca0  1  0.16876048  0.08210582  0.17493059  1
  Ca2+  Ca1  1  0.15077081  0.07505702  0.50517494  1
  Ca2+  Ca2  1  0.16876711  0.08187226  0.83419306  1
  Ca2+  Ca3  1  0.17875379  0.57867548  0.17285316  1
  Ca2+  Ca4  1  0.17281096  0.57309227  0.50707841  1
  Ca2+  Ca5  1  0.17453683  0.58041355  0.82909155  1
  Ca2+  Ca6  1  0.65940925  0.08163882  0.16930176  1
  Ca2+  Ca7  1  0.66471278  0.09050956  0.50549793  1
  Ca2+  Ca8  1  0.65776315  0.07981107  0.84073512  1
  Ca2+  Ca9  1  0.67257565  0.58376687  0.17194001  1
  Ca2+  Ca10  1  0.67233832  0.57725970  0.50948071  1
  Ca2+  Ca11  1  0.67670972  0.57481784  0.83448186  1
  Ca2+  Ca12  1  0.07532480  0.34444395  0.16624991  1
  Ca2+  Ca13  1  0.07717980  0.33977860  0.49477868  1
  Ca2+  Ca14  1  0.07662585  0.33261378  0.82215114  1
  Ca2+  Ca15  1  0.08598316  0.83429986  0.16693557  1
  Ca2+  Ca16  1  0.09212043  0.82861253  0.49942163  1
  Ca2+  Ca17  1  0.08713416  0.82530618  0.82159158  1
  Ca2+  Ca18  1  0.58177017  0.32074776  0.16271162  1
  Ca2+  Ca19  1  0.58185226  0.33129773  0.50018511  1
  Ca2+  Ca20  1  0.58017963  0.32395615  0.82254736  1
  Ca2+  Ca21  1  0.58501111  0.82711753  0.16268395  1
  Ca2+  Ca22  1  0.57392680  0.82370741  0.49759477  1
  Ca2+  Ca23  1  0.57628762  0.83225711  0.82698805  1
  Ca2+  Ca24  1  0.33046451  0.42675098  0.17646387  1
  Ca2+  Ca25  1  0.32868832  0.42357940  0.51098767  1
  Ca2+  Ca26  1  0.33243264  0.41896300  0.83292600  1
  Ca2+  Ca27  1  0.32811837  0.92543363  0.17020720  1
  Ca2+  Ca28  1  0.32447750  0.91783310  0.50671767  1
  Ca2+  Ca29  1  0.33176244  0.92134425  0.83267147  1
  Ca2+  Ca30  1  0.83779765  0.41462511  0.16698868  1
  Ca2+  Ca31  1  0.83026142  0.41350408  0.51054196  1
  Ca2+  Ca32  1  0.83733774  0.41954140  0.83238801  1
  Ca2+  Ca33  1  0.82500044  0.91866728  0.16925454  1
  Ca2+  Ca34  1  0.83135252  0.92231691  0.50570190  1
  Ca2+  Ca35  1  0.82440403  0.92131804  0.83893553  1
  Ca2+  Ca36  1  0.42212991  0.16137057  0.16059653  1
  Ca2+  Ca37  1  0.42575619  0.17270685  0.50142364  1
  Ca2+  Ca38  1  0.42387325  0.16755549  0.82705884  1
  Ca2+  Ca39  1  0.41787274  0.66175724  0.16486989  1
  Ca2+  Ca40  1  0.41031362  0.66787256  0.49621171  1
  Ca2+  Ca41  1  0.40753157  0.67141813  0.82414109  1
  Ca2+  Ca42  1  0.92558245  0.17923860  0.16463772  1
  Ca2+  Ca43  1  0.92752196  0.17996549  0.49852976  1
  Ca2+  Ca44  1  0.92086986  0.17934539  0.82521896  1
  Ca2+  Ca45  1  0.91830959  0.66578780  0.15894094  1
  Ca2+  Ca46  1  0.92515018  0.65770482  0.50290825  1
  Ca2+  Ca47  1  0.91915969  0.66295319  0.82591967  1
  Al0+  Al48  1  -0.00260623  -0.00099716  -0.00008800  1
  Al0+  Al49  1  -0.00310926  0.00197452  0.33256757  1
  Al0+  Al50  1  -0.00325567  -0.00128907  0.67114475  1
  Al0+  Al51  1  -0.00035160  0.50231146  -0.00110488  1
  Al0+  Al52  1  0.00111542  0.50393644  0.32990969  1
  Al0+  Al53  1  0.00175964  0.50191715  0.66586358  1
  Al0+  Al54  1  0.49787739  -0.00372942  0.00519159  1
  Al0+  Al55  1  0.49848833  -0.00315109  0.33172012  1
  Al0+  Al56  1  0.49834176  -0.00302884  0.65743659  1
  Al0+  Al57  1  0.50259760  0.49895377  0.00326558  1
  Al0+  Al58  1  0.50426254  0.50158313  0.33163695  1
  Al0+  Al59  1  0.50257701  0.49972566  0.67318186  1
  Al0+  Al60  1  0.24921983  0.24932264  0.00571264  1
  Al0+  Al61  1  0.25081762  0.24965656  0.33471920  1
  Al0+  Al62  1  0.25260565  0.24630866  0.66332095  1
  Al0+  Al63  1  0.25026259  0.74876597  0.00436935  1
  Al0+  Al64  1  0.24969676  0.75346315  0.33613271  1
  Al0+  Al65  1  0.24784162  0.75181836  0.66453464  1
  Al0+  Al66  1  0.75123496  0.24913516  -0.00740742  1
  Al0+  Al67  1  0.75042501  0.24986052  0.32468861  1
  Al0+  Al68  1  0.75287022  0.24882127  0.66512138  1
  Al0+  Al69  1  0.74994620  0.74985611  0.00580614  1
  Al0+  Al70  1  0.74840645  0.75120427  0.33165638  1
  Al0+  Al71  1  0.74908277  0.75222636  0.67003873  1
  Al0+  Al72  1  0.17982202  0.42469850  0.68113736  1
  Al0+  Al73  1  0.32181202  0.57149005  0.68087422  1
  Al0+  Al74  1  0.17715868  0.93380853  0.34769581  1
  Al0+  Al75  1  0.67860406  0.93025122  0.01433911  1
  Al0+  Al76  1  0.17765253  0.93090910  0.68055160  1
  Al0+  Al77  1  0.32255998  0.57120256  0.01422012  1
  Al0+  Al78  1  0.07020835  0.68048271  0.65269737  1
  Al0+  Al79  1  0.82035100  0.56904299  0.01496448  1
  Al0+  Al80  1  0.42849699  0.32407186  0.65307072  1
  Al0+  Al81  1  0.57159853  0.17832988  0.65271590  1
  Al0+  Al82  1  0.07275537  0.17607534  0.65456668  1
  Al0+  Al83  1  0.32377755  0.57077010  0.34895423  1
  Al0+  Al84  1  0.82196104  0.57213875  0.68048266  1
  Al0+  Al85  1  0.17810369  0.42907051  0.34791093  1
  Al0+  Al86  1  0.42795747  0.81842828  0.65273946  1
  Al0+  Al87  1  0.67951380  0.42539000  0.68210007  1
  Al0+  Al88  1  0.57152651  0.67898599  0.31931278  1
  Al0+  Al89  1  0.93158363  0.32193839  0.98324885  1
  Al0+  Al90  1  0.56877282  0.17891530  0.31834440  1
  Al0+  Al91  1  0.31888583  0.07041802  0.01226853  1
  Al0+  Al92  1  0.07268033  0.17766198  0.31794165  1
  Al0+  Al93  1  0.93258143  0.32263084  0.65161551  1
  Al0+  Al94  1  0.93099698  0.32373661  0.31657749  1
  Al0+  Al95  1  0.56759076  0.17724947  0.98673094  1
  Si0+  Si96  1  0.32480213  0.07250579  0.35198501  1
  Si0+  Si97  1  0.82231739  0.07330142  0.01802071  1
  Si0+  Si98  1  0.92627718  0.82139611  0.98501197  1
  Si0+  Si99  1  0.07099179  0.68280784  0.98518591  1
  Si0+  Si100  1  0.67761154  0.92746221  0.35072553  1
  Si0+  Si101  1  0.67668325  0.93055382  0.68067873  1
  Si0+  Si102  1  0.57355490  0.67766439  0.98446144  1
  Si0+  Si103  1  0.42862655  0.32377420  0.31719832  1
  Si0+  Si104  1  0.42899740  0.81697646  0.98551776  1
  Si0+  Si105  1  0.82016781  0.06976228  0.68269925  1
  Si0+  Si106  1  0.07359099  0.17546062  0.98361425  1
  Si0+  Si107  1  0.57407348  0.67832951  0.65320482  1
  Si0+  Si108  1  0.42662355  0.32340883  0.98561546  1
  Si0+  Si109  1  0.92698339  0.82240953  0.31783061  1
  Si0+  Si110  1  0.68282089  0.42821173  0.34603763  1
  Si0+  Si111  1  0.67917148  0.42525729  0.01847353  1
  Si0+  Si112  1  0.07105870  0.68239548  0.31630632  1
  Si0+  Si113  1  0.42664453  0.82001556  0.31316097  1
  Si0+  Si114  1  0.17830826  0.42922278  0.01538609  1
  Si0+  Si115  1  0.92504585  0.82211637  0.65087850  1
  Si0+  Si116  1  0.82104752  0.57432272  0.34746207  1
  Si0+  Si117  1  0.17619474  0.92724106  0.01585779  1
  Si0+  Si118  1  0.32565389  0.06955268  0.68184498  1
  Si0+  Si119  1  0.81701785  0.07091106  0.34805718  1
  O2-  O120  1  0.23881846  0.00118879  0.05943923  1
  O2-  O121  1  0.24836025  0.01167798  0.39472047  1
  O2-  O122  1  0.25061194  0.00719242  0.72596924  1
  O2-  O123  1  0.25260885  0.49199137  0.05969440  1
  O2-  O124  1  0.25511706  0.49565967  0.39758835  1
  O2-  O125  1  0.25447181  0.49488944  0.73094725  1
  O2-  O126  1  0.75127493  0.00659831  0.06261487  1
  O2-  O127  1  0.74405670  0.00221903  0.39281151  1
  O2-  O128  1  0.74407326  0.00359735  0.72445108  1
  O2-  O129  1  0.74718045  0.49438332  0.06396775  1
  O2-  O130  1  0.75439994  0.49913346  0.38795840  1
  O2-  O131  1  0.75235291  0.49802616  0.73050897  1
  O2-  O132  1  0.00829774  0.25632356  0.26703340  1
  O2-  O133  1  0.01031424  0.25580188  0.60323633  1
  O2-  O134  1  0.00658208  0.24562109  0.94019917  1
  O2-  O135  1  -0.00164548  0.75241616  0.27431174  1
  O2-  O136  1  -0.00778658  0.75297988  0.60605162  1
  O2-  O137  1  0.00109716  0.75536338  0.94315344  1
  O2-  O138  1  0.49077418  0.24952375  0.27101820  1
  O2-  O139  1  0.50363393  0.25423909  0.60360982  1
  O2-  O140  1  0.49409714  0.25323596  0.94170350  1
  O2-  O141  1  0.49426092  0.74980665  0.26973649  1
  O2-  O142  1  0.49872431  0.73891458  0.60797474  1
  O2-  O143  1  0.49718010  0.74315892  0.94269757  1
  O2-  O144  1  0.07179331  0.17247628  0.08895645  1
  O2-  O145  1  0.06273796  0.17062189  0.43009656  1
  O2-  O146  1  0.06639867  0.17356823  0.76848407  1
  O2-  O147  1  0.07019642  0.68496274  0.09073799  1
  O2-  O148  1  0.06990932  0.68233498  0.42101725  1
  O2-  O149  1  0.07087254  0.68367740  0.76634160  1
  O2-  O150  1  0.56560845  0.17764303  0.10005193  1
  O2-  O151  1  0.57117934  0.18103191  0.43076715  1
  O2-  O152  1  0.56738573  0.17357175  0.76627870  1
  O2-  O153  1  0.57467530  0.68117690  0.08970122  1
  O2-  O154  1  0.57676956  0.68311546  0.43183950  1
  O2-  O155  1  0.57820680  0.68509267  0.75879984  1
  O2-  O156  1  0.17751664  0.43621398  0.23359219  1
  O2-  O157  1  0.17854928  0.42958979  0.56796624  1
  O2-  O158  1  0.17780046  0.43028792  0.91024347  1
  O2-  O159  1  0.17925946  0.93200096  0.23387972  1
  O2-  O160  1  0.17804595  0.93143050  0.56757102  1
  O2-  O161  1  0.17766229  0.92393686  0.91072215  1
  O2-  O162  1  0.68349547  0.42901291  0.24073590  1
  O2-  O163  1  0.68099670  0.42679472  0.56766422  1
  O2-  O164  1  0.67817107  0.42707253  0.91349801  1
  O2-  O165  1  0.68044363  0.92586565  0.24555411  1
  O2-  O166  1  0.67977852  0.92874427  0.57548954  1
  O2-  O167  1  0.67914665  0.92965822  0.90103250  1
  O2-  O168  1  0.42894354  0.32379305  0.09143829  1
  O2-  O169  1  0.43385016  0.32598001  0.42215037  1
  O2-  O170  1  0.42908090  0.32017387  0.76720434  1
  O2-  O171  1  0.42913013  0.81662610  0.09058939  1
  O2-  O172  1  0.42792949  0.82123683  0.41854091  1
  O2-  O173  1  0.43124509  0.82120041  0.76652131  1
  O2-  O174  1  0.93345661  0.32214807  0.09644598  1
  O2-  O175  1  0.92669459  0.32294605  0.42927346  1
  O2-  O176  1  0.93122783  0.31924654  0.76526675  1
  O2-  O177  1  0.92573672  0.82071136  0.09047899  1
  O2-  O178  1  0.92396010  0.82206674  0.42261415  1
  O2-  O179  1  0.92427767  0.82263718  0.75669769  1
  O2-  O180  1  0.32792978  0.06638618  0.24596321  1
  O2-  O181  1  0.33280700  0.06426724  0.57695107  1
  O2-  O182  1  0.32039787  0.06668276  0.89953578  1
  O2-  O183  1  0.32140925  0.57054255  0.23463562  1
  O2-  O184  1  0.31894613  0.57337019  0.56770205  1
  O2-  O185  1  0.31813928  0.57657332  0.90215946  1
  O2-  O186  1  0.81600019  0.06707863  0.24295490  1
  O2-  O187  1  0.82084261  0.06581032  0.57736943  1
  O2-  O188  1  0.82386698  0.06898096  0.91254168  1
  O2-  O189  1  0.81901552  0.57698534  0.24216128  1
  O2-  O190  1  0.81798294  0.57535615  0.56643525  1
  O2-  O191  1  0.81925737  0.57156522  0.90275983  1
  O2-  O192  1  0.03493905  0.08200694  0.26200845  1
  O2-  O193  1  0.03133817  0.08083986  0.60257766  1
  O2-  O194  1  0.04729350  0.08090295  0.93859023  1
  O2-  O195  1  0.04338964  0.59234741  0.26588327  1
  O2-  O196  1  0.04055860  0.58539796  0.59626554  1
  O2-  O197  1  0.04117453  0.59214781  0.93852075  1
  O2-  O198  1  0.54177254  0.07908863  0.26747957  1
  O2-  O199  1  0.54109729  0.08173790  0.59669373  1
  O2-  O200  1  0.53560973  0.07892928  0.93637035  1
  O2-  O201  1  0.54780071  0.58171571  0.26258881  1
  O2-  O202  1  0.55858378  0.58159010  0.61213095  1
  O2-  O203  1  0.55313532  0.58281294  0.94098519  1
  O2-  O204  1  0.17627334  0.19328245  0.27048772  1
  O2-  O205  1  0.17555327  0.18561848  0.60649705  1
  O2-  O206  1  0.16901771  0.19829277  0.94040659  1
  O2-  O207  1  0.16191294  0.71419585  0.26884165  1
  O2-  O208  1  0.16295710  0.71667855  0.59615212  1
  O2-  O209  1  0.16292642  0.71160339  0.93887269  1
  O2-  O210  1  0.66383088  0.21087748  0.26164157  1
  O2-  O211  1  0.67166584  0.20165111  0.60160705  1
  O2-  O212  1  0.66594867  0.20253079  0.93429179  1
  O2-  O213  1  0.66617127  0.71570960  0.26257395  1
  O2-  O214  1  0.66371903  0.71335803  0.60395608  1
  O2-  O215  1  0.66344273  0.71231919  0.93810292  1
  O2-  O216  1  0.08799566  0.46438771  0.06224479  1
  O2-  O217  1  0.08079610  0.46527538  0.39882033  1
  O2-  O218  1  0.08282740  0.45854924  0.73380638  1
  O2-  O219  1  0.07950765  0.94568315  0.05953935  1
  O2-  O220  1  0.07768791  0.95829234  0.39939477  1
  O2-  O221  1  0.08003383  0.95637900  0.73608507  1
  O2-  O222  1  0.58590695  0.45016131  0.06606301  1
  O2-  O223  1  0.59171224  0.45694859  0.39326971  1
  O2-  O224  1  0.58291328  0.45289857  0.73895950  1
  O2-  O225  1  0.58261594  0.95683869  0.07125973  1
  O2-  O226  1  0.58342833  0.94967676  0.39499554  1
  O2-  O227  1  0.58379633  0.95632334  0.72637488  1
  O2-  O228  1  0.19488884  0.33369729  0.06141087  1
  O2-  O229  1  0.19488798  0.32630725  0.39539676  1
  O2-  O230  1  0.20441784  0.32415235  0.73239892  1
  O2-  O231  1  0.20783137  0.83680119  0.06530007  1
  O2-  O232  1  0.21016694  0.83768900  0.40078880  1
  O2-  O233  1  0.21179620  0.83594782  0.73495420  1
  O2-  O234  1  0.70680307  0.33104899  0.06250375  1
  O2-  O235  1  0.71048305  0.33582363  0.39172644  1
  O2-  O236  1  0.70834741  0.32673199  0.73445302  1
  O2-  O237  1  0.71355751  0.83589439  0.07087985  1
  O2-  O238  1  0.71105864  0.83788608  0.39887482  1
  O2-  O239  1  0.70632487  0.84082009  0.73117584  1
  O2-  O240  1  0.46109306  0.41456950  0.26863233  1
  O2-  O241  1  0.45618688  0.42387031  0.60227851  1
  O2-  O242  1  0.45347441  0.41695793  0.94000373  1
  O2-  O243  1  0.45594946  0.91228455  0.26607315  1
  O2-  O244  1  0.46406635  0.90992392  0.59320213  1
  O2-  O245  1  0.46033813  0.90756668  0.93864041  1
  O2-  O246  1  0.95606674  0.42411387  0.26328790  1
  O2-  O247  1  0.95296201  0.42271425  0.60013821  1
  O2-  O248  1  0.96205557  0.41965409  0.93154995  1
  O2-  O249  1  0.95370943  0.91349039  0.26866214  1
  O2-  O250  1  0.95145036  0.91511840  0.60485641  1
  O2-  O251  1  0.94795179  0.91513521  0.93820770  1
  O2-  O252  1  0.33241365  0.30567826  0.27365051  1
  O2-  O253  1  0.33236898  0.29368786  0.59710471  1
  O2-  O254  1  0.33118279  0.29975740  0.94298732  1
  O2-  O255  1  0.33245710  0.79689392  0.26687534  1
  O2-  O256  1  0.33153929  0.79224219  0.59764273  1
  O2-  O257  1  0.33577717  0.79145807  0.93935650  1
  O2-  O258  1  0.83531152  0.28901271  0.26081738  1
  O2-  O259  1  0.83617382  0.28765596  0.59867049  1
  O2-  O260  1  0.83504056  0.29152996  0.92949795  1
  O2-  O261  1  0.83601097  0.79338018  0.26868773  1
  O2-  O262  1  0.83069779  0.79972374  0.60415376  1
  O2-  O263  1  0.83548944  0.79023143  0.93785380  1
  O2-  O264  1  0.41119051  0.03179388  0.07014553  1
  O2-  O265  1  0.41511490  0.03701789  0.39905075  1
  O2-  O266  1  0.41574088  0.03331302  0.72998866  1
  O2-  O267  1  0.42176044  0.54606663  0.06674988  1
  O2-  O268  1  0.42571981  0.54898793  0.39711929  1
  O2-  O269  1  0.42227828  0.55261018  0.73367506  1
  O2-  O270  1  0.91468696  0.04372747  0.06564824  1
  O2-  O271  1  0.90657797  0.03874289  0.39614902  1
  O2-  O272  1  0.90704826  0.03546211  0.73511873  1
  O2-  O273  1  0.91823771  0.54145547  0.06899831  1
  O2-  O274  1  0.91533600  0.55208411  0.39085681  1
  O2-  O275  1  0.92111419  0.54799774  0.73262599  1
  O2-  O276  1  0.29587010  0.16776246  0.06962672  1
  O2-  O277  1  0.31189490  0.16998377  0.39264356  1
  O2-  O278  1  0.30835542  0.16479596  0.72637674  1
  O2-  O279  1  0.28761479  0.66588069  0.07118717  1
  O2-  O280  1  0.29272161  0.66998477  0.39734988  1
  O2-  O281  1  0.28568458  0.66854845  0.73278786  1
  O2-  O282  1  0.79858946  0.16790492  0.06147360  1
  O2-  O283  1  0.78909159  0.16345439  0.39301767  1
  O2-  O284  1  0.79770978  0.16233190  0.72941929  1
  O2-  O285  1  0.78961924  0.66544574  0.07037421  1
  O2-  O286  1  0.78998065  0.66493895  0.39495412  1
  O2-  O287  1  0.79201740  0.67090539  0.73428549  1
