# generated using pymatgen
data_Ca2Al2SiO7
_symmetry_space_group_name_H-M   'P 1'
_cell_length_a   15.45684110
_cell_length_b   15.45811217
_cell_length_c   15.28301957
_cell_angle_alpha   90.00527936
_cell_angle_beta   89.99596313
_cell_angle_gamma   89.99287750
_symmetry_Int_Tables_number   1
_chemical_formula_structural   Ca2Al2SiO7
_chemical_formula_sum   'Ca48 Al48 Si24 O168'
_cell_volume   3651.62658061
_cell_formula_units_Z   24
loop_
 _symmetry_equiv_pos_site_id
 _symmetry_equiv_pos_as_xyz
  1  'x, y, z'
loop_
 _atom_type_symbol
 _atom_type_oxidation_number
  Ca2+  2.0
  Al0+  0.0
  Si0+  0.0
  O2-  -2.0
loop_
 _atom_site_type_symbol
 _atom_site_label
 _atom_site_symmetry_multiplicity
 _atom_site_fract_x
 _atom_site_fract_y
 _atom_site_fract_z
 _atom_site_occupancy
  Ca2+  Ca0  1  0.16738148  0.07770493  0.17356604  1
  Ca2+  Ca1  1  0.16609648  0.08879615  0.50294156  1
  Ca2+  Ca2  1  0.16537081  0.07853830  0.83815772  1
  Ca2+  Ca3  1  0.17380921  0.58405732  0.16903401  1
  Ca2+  Ca4  1  0.16857898  0.59349241  0.50216435  1
  Ca2+  Ca5  1  0.17139439  0.58064008  0.84224179  1
  Ca2+  Ca6  1  0.66705035  0.08357607  0.16897814  1
  Ca2+  Ca7  1  0.67696681  0.07429484  0.51271828  1
  Ca2+  Ca8  1  0.67050768  0.08369052  0.83374585  1
  Ca2+  Ca9  1  0.67248880  0.57065541  0.17505793  1
  Ca2+  Ca10  1  0.67267620  0.57804330  0.50540156  1
  Ca2+  Ca11  1  0.66077246  0.57325181  0.83506603  1
  Ca2+  Ca12  1  0.08204701  0.33077420  0.16013711  1
  Ca2+  Ca13  1  0.07730395  0.32289132  0.49760017  1
  Ca2+  Ca14  1  0.07357936  0.33527969  0.82539382  1
  Ca2+  Ca15  1  0.07505861  0.83016252  0.16279610  1
  Ca2+  Ca16  1  0.07650684  0.82265242  0.49367633  1
  Ca2+  Ca17  1  0.08304568  0.83000174  0.83108894  1
  Ca2+  Ca18  1  0.58858558  0.33046943  0.15969154  1
  Ca2+  Ca19  1  0.58045719  0.34457108  0.50100971  1
  Ca2+  Ca20  1  0.58329532  0.33412854  0.82883511  1
  Ca2+  Ca21  1  0.57399814  0.82823773  0.15678292  1
  Ca2+  Ca22  1  0.58531270  0.83169092  0.50201394  1
  Ca2+  Ca23  1  0.57146527  0.82822166  0.82299279  1
  Ca2+  Ca24  1  0.32899817  0.42819832  0.16967001  1
  Ca2+  Ca25  1  0.33334560  0.42197617  0.50423603  1
  Ca2+  Ca26  1  0.32820311  0.42186461  0.84098640  1
  Ca2+  Ca27  1  0.32760578  0.91843222  0.16866483  1
  Ca2+  Ca28  1  0.33474888  0.92282940  0.50434883  1
  Ca2+  Ca29  1  0.32904177  0.91011358  0.84084400  1
  Ca2+  Ca30  1  0.82525275  0.41550211  0.17121248  1
  Ca2+  Ca31  1  0.82487357  0.41564250  0.50633580  1
  Ca2+  Ca32  1  0.82736880  0.40949734  0.83826409  1
  Ca2+  Ca33  1  0.83632077  0.91185569  0.17114530  1
  Ca2+  Ca34  1  0.83400313  0.92015747  0.50945230  1
  Ca2+  Ca35  1  0.83320139  0.92093325  0.83499976  1
  Ca2+  Ca36  1  0.42373953  0.16442701  0.16190402  1
  Ca2+  Ca37  1  0.41385337  0.17445187  0.49609573  1
  Ca2+  Ca38  1  0.42403508  0.17402520  0.82802313  1
  Ca2+  Ca39  1  0.41107842  0.66635249  0.16150578  1
  Ca2+  Ca40  1  0.42236709  0.66813493  0.50014985  1
  Ca2+  Ca41  1  0.41636550  0.67369329  0.82674885  1
  Ca2+  Ca42  1  0.92294412  0.17306764  0.16099089  1
  Ca2+  Ca43  1  0.92233994  0.16540826  0.50040605  1
  Ca2+  Ca44  1  0.92076565  0.17696465  0.82553921  1
  Ca2+  Ca45  1  0.91393830  0.67289573  0.16568306  1
  Ca2+  Ca46  1  0.92460201  0.66652346  0.49017548  1
  Ca2+  Ca47  1  0.92380815  0.67053050  0.82822328  1
  Al0+  Al48  1  -0.00020189  -0.00006553  0.00091082  1
  Al0+  Al49  1  -0.00009520  0.00001633  0.32695220  1
  Al0+  Al50  1  0.00233872  0.00010868  0.66913067  1
  Al0+  Al51  1  -0.00066690  0.50033906  0.00052115  1
  Al0+  Al52  1  0.00020752  0.49893758  0.33080944  1
  Al0+  Al53  1  0.00019872  0.49924740  0.65751036  1
  Al0+  Al54  1  0.50178911  -0.00105837  -0.00883944  1
  Al0+  Al55  1  0.49880863  0.00126027  0.33719294  1
  Al0+  Al56  1  0.49927534  0.00152647  0.66728483  1
  Al0+  Al57  1  0.50134122  0.49854115  0.00912490  1
  Al0+  Al58  1  0.49685960  0.50020324  0.33878892  1
  Al0+  Al59  1  0.50021852  0.50203468  0.66384048  1
  Al0+  Al60  1  0.25236630  0.24928090  0.00387472  1
  Al0+  Al61  1  0.25112636  0.25025451  0.33083065  1
  Al0+  Al62  1  0.25085184  0.25119386  0.66134342  1
  Al0+  Al63  1  0.24901513  0.75231570  0.00568250  1
  Al0+  Al64  1  0.24901718  0.75100631  0.33487719  1
  Al0+  Al65  1  0.25095372  0.75255313  0.65916384  1
  Al0+  Al66  1  0.75177477  0.24802001  -0.00290296  1
  Al0+  Al67  1  0.74806977  0.24704503  0.33890973  1
  Al0+  Al68  1  0.75013000  0.24992011  0.67077938  1
  Al0+  Al69  1  0.74980768  0.75082938  -0.00541122  1
  Al0+  Al70  1  0.74732946  0.74741503  0.33228127  1
  Al0+  Al71  1  0.74892265  0.74946880  0.66952979  1
  Al0+  Al72  1  0.31791078  0.57249777  0.35089768  1
  Al0+  Al73  1  0.82202919  0.57162055  0.34810581  1
  Al0+  Al74  1  0.57180588  0.17902311  0.98579557  1
  Al0+  Al75  1  0.07090461  0.67892318  0.65468181  1
  Al0+  Al76  1  0.82364890  0.07008673  0.68404674  1
  Al0+  Al77  1  0.32085346  0.07108793  0.34713853  1
  Al0+  Al78  1  0.42862211  0.82341856  0.64907786  1
  Al0+  Al79  1  0.07180494  0.18035904  0.31722004  1
  Al0+  Al80  1  0.17604015  0.42685236  0.01368146  1
  Al0+  Al81  1  0.07151970  0.17784220  0.65331288  1
  Al0+  Al82  1  0.32046484  0.57142996  0.01323720  1
  Al0+  Al83  1  0.93116821  0.32180154  0.98792281  1
  Al0+  Al84  1  0.92678158  0.81944658  0.31954155  1
  Al0+  Al85  1  0.07310622  0.67670854  0.31481158  1
  Al0+  Al86  1  0.68177383  0.42752560  0.01347748  1
  Al0+  Al87  1  0.92601050  0.32095251  0.64983415  1
  Al0+  Al88  1  0.17786030  0.93116958  0.01452437  1
  Al0+  Al89  1  0.42796448  0.81868461  0.98804143  1
  Al0+  Al90  1  0.92778587  0.82241450  0.98348887  1
  Al0+  Al91  1  0.57186905  0.67881685  0.65100793  1
  Al0+  Al92  1  0.67740993  0.92688547  0.68428321  1
  Al0+  Al93  1  0.67911748  0.43168826  0.68269114  1
  Al0+  Al94  1  0.67942863  0.42683215  0.35041856  1
  Al0+  Al95  1  0.42991952  0.32151942  0.65373743  1
  Si0+  Si96  1  0.42863989  0.32316292  0.98563100  1
  Si0+  Si97  1  0.32069455  0.07469850  0.68239388  1
  Si0+  Si98  1  0.18212504  0.92889609  0.68090823  1
  Si0+  Si99  1  0.43068661  0.82345475  0.31811759  1
  Si0+  Si100  1  0.57202836  0.17865618  0.64886687  1
  Si0+  Si101  1  0.32535636  0.07132678  0.01463598  1
  Si0+  Si102  1  0.31905011  0.57224476  0.68024284  1
  Si0+  Si103  1  0.56995454  0.17795540  0.32030937  1
  Si0+  Si104  1  0.82149850  0.06878592  0.34670587  1
  Si0+  Si105  1  0.17916562  0.42850650  0.67869402  1
  Si0+  Si106  1  0.57191137  0.67566138  0.98538374  1
  Si0+  Si107  1  0.07153897  0.67959683  0.98440321  1
  Si0+  Si108  1  0.82581359  0.57184256  0.68392679  1
  Si0+  Si109  1  0.67722774  0.92845529  0.34543355  1
  Si0+  Si110  1  0.92495920  0.31946137  0.31685693  1
  Si0+  Si111  1  0.17673036  0.93044188  0.35179742  1
  Si0+  Si112  1  0.42981527  0.32239999  0.31651830  1
  Si0+  Si113  1  0.67843790  0.92855566  0.01473158  1
  Si0+  Si114  1  0.07429967  0.17826401  0.98498458  1
  Si0+  Si115  1  0.82223913  0.57510319  0.01510948  1
  Si0+  Si116  1  0.17772169  0.42641309  0.35110545  1
  Si0+  Si117  1  0.81992668  0.06942797  0.01669134  1
  Si0+  Si118  1  0.92853022  0.82167029  0.65312123  1
  Si0+  Si119  1  0.56841547  0.67765815  0.31701440  1
  O2-  O120  1  0.25288148  0.00701877  0.05940172  1
  O2-  O121  1  0.24455986  -0.00021186  0.39655857  1
  O2-  O122  1  0.25233674  0.00088529  0.72383322  1
  O2-  O123  1  0.24858480  0.49873906  0.06312464  1
  O2-  O124  1  0.24010626  0.50041645  0.39700578  1
  O2-  O125  1  0.24740653  0.50188724  0.72204363  1
  O2-  O126  1  0.75059724  -0.00324593  0.06007857  1
  O2-  O127  1  0.75411965  -0.00662882  0.38655937  1
  O2-  O128  1  0.75047080  -0.00158714  0.73397391  1
  O2-  O129  1  0.75513070  0.50408125  0.05864677  1
  O2-  O130  1  0.75342310  0.49710633  0.39925056  1
  O2-  O131  1  0.75650617  0.50410613  0.72934852  1
  O2-  O132  1  -0.00248902  0.25547627  0.27100544  1
  O2-  O133  1  -0.00287356  0.24663497  0.60237822  1
  O2-  O134  1  0.01212663  0.25288935  0.94194261  1
  O2-  O135  1  -0.00250624  0.74693384  0.26759301  1
  O2-  O136  1  -0.00837773  0.74886788  0.60843090  1
  O2-  O137  1  0.00187234  0.74664340  0.93878474  1
  O2-  O138  1  0.50263784  0.25173724  0.27639554  1
  O2-  O139  1  0.50535781  0.24868839  0.60390081  1
  O2-  O140  1  0.49700694  0.25453573  0.94102776  1
  O2-  O141  1  0.49775038  0.74932718  0.27456425  1
  O2-  O142  1  0.50394894  0.75467455  0.59978921  1
  O2-  O143  1  0.50035380  0.74174468  0.94216962  1
  O2-  O144  1  0.07094980  0.17662448  0.09079066  1
  O2-  O145  1  0.06956597  0.18001102  0.43000128  1
  O2-  O146  1  0.07397316  0.18031995  0.76703849  1
  O2-  O147  1  0.07137529  0.68127590  0.08958246  1
  O2-  O148  1  0.07329322  0.68291931  0.42860517  1
  O2-  O149  1  0.07324567  0.68107408  0.76806357  1
  O2-  O150  1  0.57057085  0.17775162  0.09986007  1
  O2-  O151  1  0.56815096  0.17447830  0.42463187  1
  O2-  O152  1  0.56884206  0.17890832  0.75467650  1
  O2-  O153  1  0.57349443  0.67920166  0.09142203  1
  O2-  O154  1  0.56889740  0.67965225  0.42164112  1
  O2-  O155  1  0.56523273  0.67589367  0.76487795  1
  O2-  O156  1  0.18298432  0.42419492  0.24551336  1
  O2-  O157  1  0.18231538  0.42720707  0.57384386  1
  O2-  O158  1  0.17743369  0.42848583  0.89935973  1
  O2-  O159  1  0.17846559  0.93178805  0.24601760  1
  O2-  O160  1  0.18236967  0.92879326  0.57602952  1
  O2-  O161  1  0.17912175  0.93116732  0.90088406  1
  O2-  O162  1  0.68062785  0.42514167  0.23633582  1
  O2-  O163  1  0.67873510  0.43424971  0.56990180  1
  O2-  O164  1  0.68041184  0.42870753  0.90063569  1
  O2-  O165  1  0.67342542  0.93202345  0.23992604  1
  O2-  O166  1  0.67979877  0.92969598  0.56952139  1
  O2-  O167  1  0.67818190  0.93016018  0.91057967  1
  O2-  O168  1  0.42929229  0.32192786  0.09141651  1
  O2-  O169  1  0.42913335  0.32172197  0.42166892  1
  O2-  O170  1  0.42811176  0.31951343  0.76699098  1
  O2-  O171  1  0.43134437  0.82128996  0.10174339  1
  O2-  O172  1  0.43487621  0.82626647  0.42265495  1
  O2-  O173  1  0.42380774  0.81832896  0.76271688  1
  O2-  O174  1  0.92828121  0.31632156  0.10121656  1
  O2-  O175  1  0.92351262  0.31459412  0.42197030  1
  O2-  O176  1  0.92994753  0.32235567  0.76370810  1
  O2-  O177  1  0.92704081  0.82107653  0.09633879  1
  O2-  O178  1  0.92838660  0.82243800  0.43321761  1
  O2-  O179  1  0.93296940  0.82226541  0.75885790  1
  O2-  O180  1  0.32464464  0.06638431  0.23402846  1
  O2-  O181  1  0.31927390  0.07517604  0.57720522  1
  O2-  O182  1  0.32469278  0.07168988  0.90896708  1
  O2-  O183  1  0.32087048  0.56974549  0.23791029  1
  O2-  O184  1  0.31791340  0.57147436  0.57517895  1
  O2-  O185  1  0.31962884  0.57090246  0.89908492  1
  O2-  O186  1  0.81837640  0.07233007  0.24131161  1
  O2-  O187  1  0.82374041  0.06621428  0.56947893  1
  O2-  O188  1  0.81935264  0.06906703  0.91224290  1
  O2-  O189  1  0.81583979  0.57263386  0.23414208  1
  O2-  O190  1  0.82551527  0.57100052  0.57851542  1
  O2-  O191  1  0.82196017  0.57647189  0.90961261  1
  O2-  O192  1  0.04055150  0.08434493  0.26252211  1
  O2-  O193  1  0.04628827  0.07825558  0.60027364  1
  O2-  O194  1  0.04236848  0.08702001  0.93844231  1
  O2-  O195  1  0.05154269  0.57552399  0.26450844  1
  O2-  O196  1  0.04690972  0.58283116  0.59732471  1
  O2-  O197  1  0.04822253  0.58531799  0.93869084  1
  O2-  O198  1  0.53878904  0.08755929  0.27039849  1
  O2-  O199  1  0.54505459  0.08566795  0.60273493  1
  O2-  O200  1  0.54151153  0.08434137  0.92849864  1
  O2-  O201  1  0.53819946  0.58576948  0.27106222  1
  O2-  O202  1  0.53807403  0.58398410  0.59488737  1
  O2-  O203  1  0.54817992  0.58028594  0.94280910  1
  O2-  O204  1  0.16940721  0.20881704  0.26337664  1
  O2-  O205  1  0.16781076  0.20915760  0.59780081  1
  O2-  O206  1  0.17158553  0.19460333  0.94306246  1
  O2-  O207  1  0.17143116  0.70986925  0.26348254  1
  O2-  O208  1  0.16390238  0.71522927  0.59775359  1
  O2-  O209  1  0.16447914  0.70847213  0.93917608  1
  O2-  O210  1  0.66318148  0.20237077  0.27305665  1
  O2-  O211  1  0.66710925  0.20056453  0.60580397  1
  O2-  O212  1  0.66752220  0.20909320  0.93122530  1
  O2-  O213  1  0.65956063  0.70458011  0.26808050  1
  O2-  O214  1  0.67232820  0.70360747  0.59959038  1
  O2-  O215  1  0.66353925  0.70275311  0.93703645  1
  O2-  O216  1  0.07779044  0.45382947  0.06777760  1
  O2-  O217  1  0.08069925  0.44292106  0.39255929  1
  O2-  O218  1  0.08565145  0.45441674  0.72330847  1
  O2-  O219  1  0.08192107  0.96223403  0.07009081  1
  O2-  O220  1  0.08244093  0.95661811  0.39583627  1
  O2-  O221  1  0.09063224  0.95480036  0.72986795  1
  O2-  O222  1  0.58568984  0.45447402  0.07078307  1
  O2-  O223  1  0.58085169  0.45769670  0.40038938  1
  O2-  O224  1  0.58163406  0.46456938  0.73535341  1
  O2-  O225  1  0.58678477  0.95902097  0.06199483  1
  O2-  O226  1  0.58941621  0.96253319  0.39619945  1
  O2-  O227  1  0.57803960  0.95716289  0.73509755  1
  O2-  O228  1  0.20402105  0.32817125  0.06768106  1
  O2-  O229  1  0.21062316  0.33517989  0.39776017  1
  O2-  O230  1  0.21006371  0.33796951  0.72689509  1
  O2-  O231  1  0.20940224  0.83679662  0.07145615  1
  O2-  O232  1  0.20394017  0.83744600  0.39724162  1
  O2-  O233  1  0.21256738  0.83779409  0.72899311  1
  O2-  O234  1  0.71441012  0.33064621  0.06677897  1
  O2-  O235  1  0.70364474  0.32710787  0.40371579  1
  O2-  O236  1  0.70496847  0.33296700  0.73466359  1
  O2-  O237  1  0.70399536  0.83532175  0.06128928  1
  O2-  O238  1  0.69791056  0.83457113  0.39063028  1
  O2-  O239  1  0.70138575  0.82736422  0.73706929  1
  O2-  O240  1  0.45710591  0.41460636  0.26993477  1
  O2-  O241  1  0.45922296  0.41751560  0.59852430  1
  O2-  O242  1  0.45501420  0.41706884  0.94102663  1
  O2-  O243  1  0.46229382  0.91409199  0.26988004  1
  O2-  O244  1  0.45329140  0.92405788  0.59884268  1
  O2-  O245  1  0.45991704  0.91301970  0.93110080  1
  O2-  O246  1  0.94446902  0.41501407  0.27312030  1
  O2-  O247  1  0.95584710  0.41715491  0.59408504  1
  O2-  O248  1  0.95386089  0.42039113  0.93372377  1
  O2-  O249  1  0.95516438  0.91741211  0.26456360  1
  O2-  O250  1  0.95920677  0.91337860  0.60659700  1
  O2-  O251  1  0.96050215  0.91918552  0.93134529  1
  O2-  O252  1  0.33951771  0.29269977  0.26802527  1
  O2-  O253  1  0.33581186  0.28903759  0.59593760  1
  O2-  O254  1  0.33463772  0.29809219  0.93939220  1
  O2-  O255  1  0.33665017  0.79887464  0.27449383  1
  O2-  O256  1  0.33297590  0.79262861  0.59266636  1
  O2-  O257  1  0.33017153  0.79083929  0.93519289  1
  O2-  O258  1  0.83227775  0.28724068  0.27132561  1
  O2-  O259  1  0.82707678  0.29245303  0.59891178  1
  O2-  O260  1  0.83800021  0.28382113  0.93260351  1
  O2-  O261  1  0.82684599  0.79351422  0.26593448  1
  O2-  O262  1  0.83231252  0.80363154  0.61088052  1
  O2-  O263  1  0.83075726  0.79448374  0.92879528  1
  O2-  O264  1  0.41817814  0.04052521  0.05999356  1
  O2-  O265  1  0.41594697  0.03882756  0.40408016  1
  O2-  O266  1  0.41373674  0.05091944  0.72864414  1
  O2-  O267  1  0.41790358  0.54415999  0.06970288  1
  O2-  O268  1  0.41304214  0.53818698  0.40543011  1
  O2-  O269  1  0.41042779  0.54370115  0.72675160  1
  O2-  O270  1  0.91207435  0.04331737  0.06431240  1
  O2-  O271  1  0.91441482  0.04356175  0.39257334  1
  O2-  O272  1  0.92210679  0.04154973  0.73771179  1
  O2-  O273  1  0.91630930  0.55262177  0.06084233  1
  O2-  O274  1  0.92346499  0.54914198  0.39698254  1
  O2-  O275  1  0.92046897  0.54564550  0.72831150  1
  O2-  O276  1  0.30676744  0.16610927  0.06152688  1
  O2-  O277  1  0.29308238  0.16933775  0.39922713  1
  O2-  O278  1  0.29055835  0.16558313  0.73053356  1
  O2-  O279  1  0.29145361  0.66840944  0.06878339  1
  O2-  O280  1  0.29183581  0.67104836  0.40385619  1
  O2-  O281  1  0.29056409  0.66505405  0.72533895  1
  O2-  O282  1  0.78881419  0.15955975  0.06540509  1
  O2-  O283  1  0.78974771  0.15718823  0.39774911  1
  O2-  O284  1  0.79446132  0.16822312  0.73666363  1
  O2-  O285  1  0.79350055  0.66822274  0.06150035  1
  O2-  O286  1  0.78988612  0.66924799  0.40177181  1
  O2-  O287  1  0.80282737  0.66645636  0.72920471  1
