# generated using pymatgen
data_Ca2Al2SiO7
_symmetry_space_group_name_H-M   'P 1'
_cell_length_a   15.47180271
_cell_length_b   15.47125889
_cell_length_c   15.29471190
_cell_angle_alpha   90.00899071
_cell_angle_beta   90.00144876
_cell_angle_gamma   90.02324300
_symmetry_Int_Tables_number   1
_chemical_formula_structural   Ca2Al2SiO7
_chemical_formula_sum   'Ca48 Al48 Si24 O168'
_cell_volume   3661.06830887
_cell_formula_units_Z   24
loop_
 _symmetry_equiv_pos_site_id
 _symmetry_equiv_pos_as_xyz
  1  'x, y, z'
loop_
 _atom_type_symbol
 _atom_type_oxidation_number
  Ca2+  2.0
  Al0+  0.0
  Si0+  0.0
  O2-  -2.0
loop_
 _atom_site_type_symbol
 _atom_site_label
 _atom_site_symmetry_multiplicity
 _atom_site_fract_x
 _atom_site_fract_y
 _atom_site_fract_z
 _atom_site_occupancy
  Ca2+  Ca0  1  0.16804267  0.08093030  0.17459954  1
  Ca2+  Ca1  1  0.17071670  0.07650741  0.51305319  1
  Ca2+  Ca2  1  0.16639101  0.09010605  0.83105056  1
  Ca2+  Ca3  1  0.15808521  0.57633507  0.16942693  1
  Ca2+  Ca4  1  0.16833218  0.57792235  0.50994313  1
  Ca2+  Ca5  1  0.17248794  0.56981740  0.83143577  1
  Ca2+  Ca6  1  0.66602289  0.07863977  0.16759304  1
  Ca2+  Ca7  1  0.67439832  0.07684871  0.51083501  1
  Ca2+  Ca8  1  0.66821469  0.07568857  0.83143971  1
  Ca2+  Ca9  1  0.68005341  0.57535589  0.16698841  1
  Ca2+  Ca10  1  0.67843834  0.58145424  0.51061649  1
  Ca2+  Ca11  1  0.67118587  0.57360455  0.83174600  1
  Ca2+  Ca12  1  0.07432050  0.33159019  0.15760947  1
  Ca2+  Ca13  1  0.07383831  0.33385396  0.50265849  1
  Ca2+  Ca14  1  0.07770935  0.32950023  0.82740983  1
  Ca2+  Ca15  1  0.08903131  0.82580120  0.16759242  1
  Ca2+  Ca16  1  0.09376303  0.82672473  0.49636223  1
  Ca2+  Ca17  1  0.08345902  0.83095069  0.82505596  1
  Ca2+  Ca18  1  0.58098824  0.33495815  0.16091699  1
  Ca2+  Ca19  1  0.57594618  0.34358607  0.50351074  1
  Ca2+  Ca20  1  0.57863810  0.34348683  0.82270378  1
  Ca2+  Ca21  1  0.58329201  0.83366058  0.15795559  1
  Ca2+  Ca22  1  0.58303533  0.83104301  0.50473777  1
  Ca2+  Ca23  1  0.58410323  0.82901871  0.81939808  1
  Ca2+  Ca24  1  0.32420874  0.41625776  0.16719577  1
  Ca2+  Ca25  1  0.32563386  0.42061420  0.51576391  1
  Ca2+  Ca26  1  0.32029318  0.40494358  0.82997427  1
  Ca2+  Ca27  1  0.32540876  0.92548753  0.17773735  1
  Ca2+  Ca28  1  0.32516016  0.92425183  0.50808133  1
  Ca2+  Ca29  1  0.33157228  0.91778380  0.82708324  1
  Ca2+  Ca30  1  0.84250351  0.42156997  0.16902345  1
  Ca2+  Ca31  1  0.83506893  0.42273165  0.50945030  1
  Ca2+  Ca32  1  0.83662527  0.42412365  0.83741671  1
  Ca2+  Ca33  1  0.82698358  0.91551110  0.16658564  1
  Ca2+  Ca34  1  0.83027449  0.92413389  0.51338039  1
  Ca2+  Ca35  1  0.82496816  0.92259706  0.83132725  1
  Ca2+  Ca36  1  0.41531516  0.16380493  0.16471310  1
  Ca2+  Ca37  1  0.41104714  0.16555403  0.50316959  1
  Ca2+  Ca38  1  0.41962191  0.17047592  0.82196682  1
  Ca2+  Ca39  1  0.41996245  0.67049301  0.16063622  1
  Ca2+  Ca40  1  0.41944775  0.66706488  0.50426737  1
  Ca2+  Ca41  1  0.42442193  0.67125550  0.81562506  1
  Ca2+  Ca42  1  0.92337602  0.17948528  0.15578795  1
  Ca2+  Ca43  1  0.91619422  0.17570508  0.50111203  1
  Ca2+  Ca44  1  0.92374290  0.17613595  0.82214048  1
  Ca2+  Ca45  1  0.91620308  0.66171685  0.16658023  1
  Ca2+  Ca46  1  0.91923202  0.66356850  0.49485133  1
  Ca2+  Ca47  1  0.90956156  0.66466076  0.82827458  1
  Al0+  Al48  1  0.00141748  -0.00234937  -0.00140903  1
  Al0+  Al49  1  -0.00265545  -0.00195904  0.33535494  1
  Al0+  Al50  1  0.00021759  -0.00024752  0.67100412  1
  Al0+  Al51  1  0.00302077  0.50109330  0.00362977  1
  Al0+  Al52  1  0.00018821  0.50129725  0.32975500  1
  Al0+  Al53  1  0.00159375  0.50025166  0.67116329  1
  Al0+  Al54  1  0.49837100  0.00068444  0.00365157  1
  Al0+  Al55  1  0.49878678  0.00024019  0.33558272  1
  Al0+  Al56  1  0.49764571  -0.00113199  0.66752677  1
  Al0+  Al57  1  0.50174895  0.50209877  0.00317396  1
  Al0+  Al58  1  0.50046572  0.50005485  0.32782551  1
  Al0+  Al59  1  0.50230195  0.50322322  0.66084718  1
  Al0+  Al60  1  0.25129380  0.25054021  0.00371928  1
  Al0+  Al61  1  0.25057373  0.25132155  0.33562625  1
  Al0+  Al62  1  0.25043040  0.24799445  0.66505522  1
  Al0+  Al63  1  0.25079249  0.75226430  -0.00089828  1
  Al0+  Al64  1  0.25139696  0.74980357  0.32884535  1
  Al0+  Al65  1  0.25077592  0.75103915  0.66981139  1
  Al0+  Al66  1  0.74816752  0.24906575  -0.00084343  1
  Al0+  Al67  1  0.74627853  0.24967272  0.32737823  1
  Al0+  Al68  1  0.74930230  0.25013535  0.66863040  1
  Al0+  Al69  1  0.74953193  0.74959071  0.00763547  1
  Al0+  Al70  1  0.74940098  0.74724371  0.33444239  1
  Al0+  Al71  1  0.75078423  0.74953590  0.66753322  1
  Al0+  Al72  1  0.67666497  0.42619263  0.01606457  1
  Al0+  Al73  1  0.82333722  0.57011306  0.68081110  1
  Al0+  Al74  1  0.92827860  0.32277673  0.98357011  1
  Al0+  Al75  1  0.67924153  0.92914788  0.67909344  1
  Al0+  Al76  1  0.82105931  0.56801618  0.34867503  1
  Al0+  Al77  1  0.42731856  0.82214159  0.64933177  1
  Al0+  Al78  1  0.07065628  0.17778478  0.65045186  1
  Al0+  Al79  1  0.32216677  0.57207820  0.67879110  1
  Al0+  Al80  1  0.17948214  0.42696963  0.68044822  1
  Al0+  Al81  1  0.92886272  0.31972388  0.31940773  1
  Al0+  Al82  1  0.17799586  0.92828258  0.68356620  1
  Al0+  Al83  1  0.82303592  0.07400160  0.68128049  1
  Al0+  Al84  1  0.32046370  0.07252673  0.35011502  1
  Al0+  Al85  1  0.43020011  0.32070077  0.65379281  1
  Al0+  Al86  1  0.17725608  0.92783842  0.34788162  1
  Al0+  Al87  1  0.67906760  0.93153990  0.01361124  1
  Al0+  Al88  1  0.07310816  0.17757794  0.98580787  1
  Al0+  Al89  1  0.32033884  0.07118006  0.68392116  1
  Al0+  Al90  1  0.82168891  0.56938576  0.01707260  1
  Al0+  Al91  1  0.67854413  0.42844827  0.67797857  1
  Al0+  Al92  1  0.18192533  0.42964200  0.01558160  1
  Al0+  Al93  1  0.92732852  0.32337621  0.65219266  1
  Al0+  Al94  1  0.57377167  0.67926799  0.64974731  1
  Al0+  Al95  1  0.07117599  0.68140487  0.32018613  1
  Si0+  Si96  1  0.56807502  0.17758514  0.31725575  1
  Si0+  Si97  1  0.31913523  0.06985006  0.01573042  1
  Si0+  Si98  1  0.17762559  0.92612319  0.01725960  1
  Si0+  Si99  1  0.32180910  0.57503724  0.01677500  1
  Si0+  Si100  1  0.07190251  0.17670393  0.31892593  1
  Si0+  Si101  1  0.82383302  0.07117300  0.01719172  1
  Si0+  Si102  1  0.42762098  0.32282977  0.31648788  1
  Si0+  Si103  1  0.92751399  0.81934872  0.98521173  1
  Si0+  Si104  1  0.56951187  0.17633659  0.98567606  1
  Si0+  Si105  1  0.42923524  0.82277999  0.98492526  1
  Si0+  Si106  1  0.32399334  0.57066415  0.34595536  1
  Si0+  Si107  1  0.92392191  0.82290486  0.31663867  1
  Si0+  Si108  1  0.07115131  0.68001757  0.65420325  1
  Si0+  Si109  1  0.67877149  0.92827948  0.34752460  1
  Si0+  Si110  1  0.07286571  0.68009196  0.98360157  1
  Si0+  Si111  1  0.67621268  0.42641160  0.34985603  1
  Si0+  Si112  1  0.43189397  0.82043444  0.31603594  1
  Si0+  Si113  1  0.81876511  0.07250678  0.34547203  1
  Si0+  Si114  1  0.57267864  0.67826086  0.31395846  1
  Si0+  Si115  1  0.57216952  0.17619797  0.65013477  1
  Si0+  Si116  1  0.57048846  0.68135904  0.98528906  1
  Si0+  Si117  1  0.17968429  0.43108735  0.34801592  1
  Si0+  Si118  1  0.92904446  0.82057161  0.65355005  1
  Si0+  Si119  1  0.43140400  0.32162940  0.98692346  1
  O2-  O120  1  0.24520463  0.00145995  0.05720887  1
  O2-  O121  1  0.24298534  0.00536300  0.39715145  1
  O2-  O122  1  0.24701256  0.00183694  0.73551941  1
  O2-  O123  1  0.25380417  0.50736169  0.06361743  1
  O2-  O124  1  0.25353285  0.49999639  0.38827678  1
  O2-  O125  1  0.25630140  0.49533499  0.72935411  1
  O2-  O126  1  0.75333767  0.00480348  0.06373973  1
  O2-  O127  1  0.75324054  -0.00401657  0.38764563  1
  O2-  O128  1  0.74837544  0.00324545  0.72921085  1
  O2-  O129  1  0.75511070  0.49116006  0.06644976  1
  O2-  O130  1  0.74713898  0.49224223  0.39304908  1
  O2-  O131  1  0.75448640  0.49474128  0.72928122  1
  O2-  O132  1  0.00277435  0.24356359  0.27298312  1
  O2-  O133  1  -0.00225425  0.24953832  0.60167402  1
  O2-  O134  1  -0.00212858  0.24661951  0.93706001  1
  O2-  O135  1  -0.00311364  0.75768574  0.27340438  1
  O2-  O136  1  0.00052761  0.75070413  0.61093595  1
  O2-  O137  1  -0.00114862  0.74856369  0.94274520  1
  O2-  O138  1  0.49682399  0.24918846  0.27516927  1
  O2-  O139  1  0.50606912  0.24751145  0.60545558  1
  O2-  O140  1  0.50686268  0.25522195  0.94556267  1
  O2-  O141  1  0.50289808  0.75064957  0.27097377  1
  O2-  O142  1  0.50020815  0.75052115  0.59973317  1
  O2-  O143  1  0.49796225  0.75043304  0.94324766  1
  O2-  O144  1  0.07307794  0.17786610  0.10050939  1
  O2-  O145  1  0.07125525  0.17772024  0.42363700  1
  O2-  O146  1  0.06949034  0.17965222  0.76397604  1
  O2-  O147  1  0.07543887  0.68330989  0.08898587  1
  O2-  O148  1  0.07243250  0.68060856  0.43295896  1
  O2-  O149  1  0.07090431  0.68139399  0.75946640  1
  O2-  O150  1  0.56384438  0.17158425  0.09120314  1
  O2-  O151  1  0.56997533  0.17529823  0.42139553  1
  O2-  O152  1  0.56901618  0.17382731  0.75590851  1
  O2-  O153  1  0.56748287  0.68373931  0.09116265  1
  O2-  O154  1  0.57274689  0.67754306  0.41809181  1
  O2-  O155  1  0.57418087  0.68174922  0.76386177  1
  O2-  O156  1  0.18164247  0.43133538  0.24250109  1
  O2-  O157  1  0.17799409  0.43157996  0.56624752  1
  O2-  O158  1  0.18497739  0.42877881  0.90357764  1
  O2-  O159  1  0.18183831  0.92765551  0.23339208  1
  O2-  O160  1  0.17964491  0.92645005  0.57012491  1
  O2-  O161  1  0.17928113  0.91942770  0.91330574  1
  O2-  O162  1  0.67317531  0.42822341  0.24428181  1
  O2-  O163  1  0.67856907  0.43196482  0.56397504  1
  O2-  O164  1  0.66714140  0.43332847  0.90430618  1
  O2-  O165  1  0.67733203  0.93027769  0.24188631  1
  O2-  O166  1  0.68292255  0.92997896  0.56475801  1
  O2-  O167  1  0.67812697  0.93213659  0.90178192  1
  O2-  O168  1  0.42997058  0.31869726  0.09272478  1
  O2-  O169  1  0.42872528  0.32797898  0.42060972  1
  O2-  O170  1  0.43115356  0.31873916  0.76740882  1
  O2-  O171  1  0.43024171  0.82238696  0.09077220  1
  O2-  O172  1  0.43279922  0.81955251  0.42007297  1
  O2-  O173  1  0.42896296  0.82002227  0.76362673  1
  O2-  O174  1  0.93244446  0.32079523  0.09812828  1
  O2-  O175  1  0.92833300  0.31952349  0.43172960  1
  O2-  O176  1  0.93013806  0.32483313  0.76530687  1
  O2-  O177  1  0.92830258  0.82040141  0.09059828  1
  O2-  O178  1  0.91856426  0.82197588  0.42153624  1
  O2-  O179  1  0.92828147  0.81839481  0.75899198  1
  O2-  O180  1  0.32224269  0.06971197  0.23541920  1
  O2-  O181  1  0.31924964  0.06983205  0.57056686  1
  O2-  O182  1  0.32306613  0.06932206  0.91165013  1
  O2-  O183  1  0.32563018  0.56849127  0.24040281  1
  O2-  O184  1  0.31688394  0.57127992  0.56431640  1
  O2-  O185  1  0.32100335  0.57729748  0.91225605  1
  O2-  O186  1  0.81564837  0.07199669  0.24018937  1
  O2-  O187  1  0.82106304  0.07030783  0.56654112  1
  O2-  O188  1  0.82286969  0.06788543  0.91253757  1
  O2-  O189  1  0.81945024  0.56855941  0.23575070  1
  O2-  O190  1  0.82386618  0.57156172  0.56701711  1
  O2-  O191  1  0.81807899  0.57426194  0.90457075  1
  O2-  O192  1  0.04847678  0.08132404  0.27402342  1
  O2-  O193  1  0.04230604  0.07783014  0.59988937  1
  O2-  O194  1  0.05160331  0.07583237  0.93663547  1
  O2-  O195  1  0.03861819  0.58650339  0.26324526  1
  O2-  O196  1  0.04446576  0.58837692  0.60659579  1
  O2-  O197  1  0.04982665  0.58679225  0.93922853  1
  O2-  O198  1  0.53879358  0.08612324  0.26768078  1
  O2-  O199  1  0.54333496  0.08423094  0.60233008  1
  O2-  O200  1  0.53255981  0.08808696  0.93710359  1
  O2-  O201  1  0.54215081  0.58755009  0.26477121  1
  O2-  O202  1  0.54609606  0.58328549  0.59174208  1
  O2-  O203  1  0.54355060  0.58888996  0.93998075  1
  O2-  O204  1  0.16645545  0.20322352  0.27375445  1
  O2-  O205  1  0.16901773  0.20524764  0.59787074  1
  O2-  O206  1  0.17203240  0.20896104  0.93609769  1
  O2-  O207  1  0.16759079  0.71022881  0.26186681  1
  O2-  O208  1  0.16213271  0.70865804  0.60604096  1
  O2-  O209  1  0.16375340  0.71173828  0.93665697  1
  O2-  O210  1  0.65820909  0.20456759  0.26533696  1
  O2-  O211  1  0.66689353  0.19688932  0.60476120  1
  O2-  O212  1  0.66461354  0.19174722  0.94172865  1
  O2-  O213  1  0.66425495  0.70665378  0.26614141  1
  O2-  O214  1  0.67079728  0.71245564  0.59534965  1
  O2-  O215  1  0.66229509  0.71209155  0.94174576  1
  O2-  O216  1  0.08687756  0.46166659  0.07156558  1
  O2-  O217  1  0.08939174  0.46289417  0.39376359  1
  O2-  O218  1  0.08557620  0.46127812  0.73651919  1
  O2-  O219  1  0.08442961  0.94882209  0.06448892  1
  O2-  O220  1  0.07440348  0.94349146  0.39602544  1
  O2-  O221  1  0.07915200  0.95163648  0.73674916  1
  O2-  O222  1  0.58060575  0.46189835  0.07344436  1
  O2-  O223  1  0.58215386  0.45567927  0.39307455  1
  O2-  O224  1  0.58200538  0.46262629  0.73065977  1
  O2-  O225  1  0.58295158  0.96393518  0.07013204  1
  O2-  O226  1  0.58850714  0.95944948  0.39428569  1
  O2-  O227  1  0.58045980  0.95411545  0.73086592  1
  O2-  O228  1  0.21706142  0.33514325  0.07267502  1
  O2-  O229  1  0.20516843  0.33877869  0.39403164  1
  O2-  O230  1  0.20851733  0.32962665  0.73302622  1
  O2-  O231  1  0.21126488  0.83663097  0.06718401  1
  O2-  O232  1  0.21300575  0.83022753  0.39746757  1
  O2-  O233  1  0.20924305  0.83162890  0.73832647  1
  O2-  O234  1  0.69303407  0.32298210  0.06523033  1
  O2-  O235  1  0.69603909  0.33021311  0.39170727  1
  O2-  O236  1  0.69350453  0.32733082  0.72873458  1
  O2-  O237  1  0.71025537  0.83653097  0.07115739  1
  O2-  O238  1  0.70196865  0.83475296  0.39184295  1
  O2-  O239  1  0.71164109  0.83335465  0.73325988  1
  O2-  O240  1  0.45722173  0.41281213  0.26478813  1
  O2-  O241  1  0.45972007  0.41674213  0.59717770  1
  O2-  O242  1  0.45384401  0.41588005  0.94294134  1
  O2-  O243  1  0.46051655  0.91281776  0.26866893  1
  O2-  O244  1  0.45554369  0.92039582  0.59624959  1
  O2-  O245  1  0.45810911  0.91464404  0.93974528  1
  O2-  O246  1  0.96378823  0.41495458  0.26526101  1
  O2-  O247  1  0.96106917  0.42131857  0.59970744  1
  O2-  O248  1  0.96081610  0.42174964  0.93556232  1
  O2-  O249  1  0.94406195  0.91802282  0.27005514  1
  O2-  O250  1  0.95418177  0.91292471  0.60679033  1
  O2-  O251  1  0.95495349  0.91085865  0.93785187  1
  O2-  O252  1  0.33519383  0.29639097  0.26834528  1
  O2-  O253  1  0.33463865  0.29020003  0.59808463  1
  O2-  O254  1  0.34117925  0.28869864  0.94100419  1
  O2-  O255  1  0.34121702  0.79165284  0.26595228  1
  O2-  O256  1  0.32924550  0.79079515  0.59717303  1
  O2-  O257  1  0.33636612  0.79796186  0.93905911  1
  O2-  O258  1  0.83101120  0.29102931  0.26514336  1
  O2-  O259  1  0.82778286  0.29629104  0.59990564  1
  O2-  O260  1  0.82605691  0.30051377  0.93643790  1
  O2-  O261  1  0.83215093  0.79231755  0.26746756  1
  O2-  O262  1  0.83869798  0.79281675  0.60376565  1
  O2-  O263  1  0.83502069  0.79067565  0.94013220  1
  O2-  O264  1  0.40873475  0.03810152  0.06648029  1
  O2-  O265  1  0.41791651  0.03976384  0.40147126  1
  O2-  O266  1  0.41818138  0.04161483  0.73687154  1
  O2-  O267  1  0.41510850  0.54925116  0.06381502  1
  O2-  O268  1  0.41641903  0.54352733  0.39179638  1
  O2-  O269  1  0.42345897  0.55192822  0.72618917  1
  O2-  O270  1  0.91650202  0.04172596  0.06410468  1
  O2-  O271  1  0.91192428  0.05065679  0.39186184  1
  O2-  O272  1  0.91760149  0.04099830  0.73684712  1
  O2-  O273  1  0.92248474  0.54782914  0.06880505  1
  O2-  O274  1  0.91949072  0.54039986  0.39952372  1
  O2-  O275  1  0.92126195  0.54642721  0.73594979  1
  O2-  O276  1  0.29521075  0.16174608  0.06523051  1
  O2-  O277  1  0.30137754  0.17443637  0.39861027  1
  O2-  O278  1  0.29504971  0.17009554  0.73621741  1
  O2-  O279  1  0.29647596  0.66926399  0.06383370  1
  O2-  O280  1  0.29751731  0.66353011  0.38952216  1
  O2-  O281  1  0.29025774  0.66702304  0.73480656  1
  O2-  O282  1  0.79849095  0.16509796  0.06255934  1
  O2-  O283  1  0.78410084  0.16195628  0.39242353  1
  O2-  O284  1  0.79594953  0.17105875  0.73526791  1
  O2-  O285  1  0.78746293  0.66562305  0.07312365  1
  O2-  O286  1  0.78984205  0.66569528  0.40033475  1
  O2-  O287  1  0.79284599  0.66775833  0.73301683  1
