# generated using pymatgen
data_Ca2Al2SiO7
_symmetry_space_group_name_H-M   'P 1'
_cell_length_a   15.46358845
_cell_length_b   15.46324968
_cell_length_c   15.28787270
_cell_angle_alpha   89.99992349
_cell_angle_beta   90.00123992
_cell_angle_gamma   90.03970338
_symmetry_Int_Tables_number   1
_chemical_formula_structural   Ca2Al2SiO7
_chemical_formula_sum   'Ca48 Al48 Si24 O168'
_cell_volume   3655.59441009
_cell_formula_units_Z   24
loop_
 _symmetry_equiv_pos_site_id
 _symmetry_equiv_pos_as_xyz
  1  'x, y, z'
loop_
 _atom_type_symbol
 _atom_type_oxidation_number
  Ca2+  2.0
  Al0+  0.0
  Si0+  0.0
  O2-  -2.0
loop_
 _atom_site_type_symbol
 _atom_site_label
 _atom_site_symmetry_multiplicity
 _atom_site_fract_x
 _atom_site_fract_y
 _atom_site_fract_z
 _atom_site_occupancy
  Ca2+  Ca0  1  0.17003688  0.08818391  0.16886135  1
  Ca2+  Ca1  1  0.16916403  0.07994668  0.50880867  1
  Ca2+  Ca2  1  0.17421175  0.07335142  0.83868570  1
  Ca2+  Ca3  1  0.16486262  0.58314454  0.16895968  1
  Ca2+  Ca4  1  0.15239353  0.57050732  0.49983015  1
  Ca2+  Ca5  1  0.17012199  0.57952193  0.83990045  1
  Ca2+  Ca6  1  0.68074488  0.07733177  0.17036156  1
  Ca2+  Ca7  1  0.67749129  0.07647712  0.50662156  1
  Ca2+  Ca8  1  0.66991837  0.08103801  0.83713528  1
  Ca2+  Ca9  1  0.67097818  0.56912454  0.17400847  1
  Ca2+  Ca10  1  0.68013876  0.58145704  0.49995835  1
  Ca2+  Ca11  1  0.67498285  0.57900883  0.83852841  1
  Ca2+  Ca12  1  0.07753297  0.33021251  0.16355944  1
  Ca2+  Ca13  1  0.08641534  0.32850578  0.49171852  1
  Ca2+  Ca14  1  0.07798964  0.33446585  0.83073843  1
  Ca2+  Ca15  1  0.07791367  0.82544309  0.16046462  1
  Ca2+  Ca16  1  0.07481990  0.82982626  0.48776630  1
  Ca2+  Ca17  1  0.09277648  0.83057481  0.83152747  1
  Ca2+  Ca18  1  0.58231020  0.33709984  0.15479575  1
  Ca2+  Ca19  1  0.58514677  0.32726146  0.49727246  1
  Ca2+  Ca20  1  0.57822389  0.32929671  0.83001452  1
  Ca2+  Ca21  1  0.58823465  0.83634853  0.16349240  1
  Ca2+  Ca22  1  0.58693711  0.84055934  0.49606373  1
  Ca2+  Ca23  1  0.58597038  0.84081680  0.82799456  1
  Ca2+  Ca24  1  0.33224442  0.42227673  0.17009974  1
  Ca2+  Ca25  1  0.31934641  0.41670992  0.50222649  1
  Ca2+  Ca26  1  0.32902116  0.41779903  0.84035391  1
  Ca2+  Ca27  1  0.32614955  0.92039191  0.16236693  1
  Ca2+  Ca28  1  0.32311010  0.92260538  0.50953307  1
  Ca2+  Ca29  1  0.32783446  0.92791347  0.83773094  1
  Ca2+  Ca30  1  0.82600081  0.41466664  0.17122602  1
  Ca2+  Ca31  1  0.83872379  0.43043385  0.50089204  1
  Ca2+  Ca32  1  0.83036358  0.41850592  0.84013142  1
  Ca2+  Ca33  1  0.82944711  0.92084544  0.17338100  1
  Ca2+  Ca34  1  0.83308164  0.92434059  0.50407537  1
  Ca2+  Ca35  1  0.82366108  0.92972499  0.83917210  1
  Ca2+  Ca36  1  0.41890877  0.17486670  0.15651203  1
  Ca2+  Ca37  1  0.42435525  0.15866523  0.49932721  1
  Ca2+  Ca38  1  0.41807040  0.16392008  0.82807381  1
  Ca2+  Ca39  1  0.41735643  0.66609569  0.15753251  1
  Ca2+  Ca40  1  0.42084723  0.67061515  0.49554046  1
  Ca2+  Ca41  1  0.41729365  0.66643791  0.83266304  1
  Ca2+  Ca42  1  0.91756774  0.16526713  0.16177087  1
  Ca2+  Ca43  1  0.92208710  0.16068118  0.49235328  1
  Ca2+  Ca44  1  0.90612125  0.17095409  0.83223484  1
  Ca2+  Ca45  1  0.92333719  0.66575787  0.16540284  1
  Ca2+  Ca46  1  0.91516450  0.67219431  0.48886252  1
  Ca2+  Ca47  1  0.92135063  0.66669740  0.82941004  1
  Al0+  Al48  1  0.00019824  -0.00196751  0.00404140  1
  Al0+  Al49  1  0.00177965  -0.00086483  0.32612867  1
  Al0+  Al50  1  -0.00141793  -0.00023358  0.67465526  1
  Al0+  Al51  1  0.00114850  0.50000138  -0.00963044  1
  Al0+  Al52  1  0.00058655  0.49856590  0.33525147  1
  Al0+  Al53  1  -0.00021032  0.50016967  0.67449306  1
  Al0+  Al54  1  0.49887462  -0.00026588  0.00687020  1
  Al0+  Al55  1  0.50001506  0.00148925  0.33238287  1
  Al0+  Al56  1  0.49897419  0.00032461  0.66579348  1
  Al0+  Al57  1  0.49926229  0.50050661  0.00041419  1
  Al0+  Al58  1  0.49839478  0.50042219  0.33940483  1
  Al0+  Al59  1  0.49982021  0.50077376  0.66087651  1
  Al0+  Al60  1  0.24880624  0.25071643  -0.00235214  1
  Al0+  Al61  1  0.25164324  0.25135113  0.33256804  1
  Al0+  Al62  1  0.24812071  0.25224686  0.67367675  1
  Al0+  Al63  1  0.25219109  0.74919526  0.00195622  1
  Al0+  Al64  1  0.25219977  0.75115154  0.32981251  1
  Al0+  Al65  1  0.25096842  0.74652782  0.66452477  1
  Al0+  Al66  1  0.74938082  0.24997013  0.00219364  1
  Al0+  Al67  1  0.74934819  0.24718787  0.34064723  1
  Al0+  Al68  1  0.74812045  0.25277209  0.66111078  1
  Al0+  Al69  1  0.75222947  0.74910900  0.00135057  1
  Al0+  Al70  1  0.74689508  0.74877136  0.33321196  1
  Al0+  Al71  1  0.75180485  0.74910370  0.67334919  1
  Al0+  Al72  1  0.92617494  0.82079884  0.31764268  1
  Al0+  Al73  1  0.32026732  0.56903188  0.01236221  1
  Al0+  Al74  1  0.68008365  0.43107266  0.00996863  1
  Al0+  Al75  1  0.17710829  0.92590949  0.67903580  1
  Al0+  Al76  1  0.67519684  0.42606600  0.35049387  1
  Al0+  Al77  1  0.56944302  0.17905423  0.65178248  1
  Al0+  Al78  1  0.07300685  0.17902325  0.32093990  1
  Al0+  Al79  1  0.42796133  0.32296604  0.98630105  1
  Al0+  Al80  1  0.82171520  0.07495568  0.68210666  1
  Al0+  Al81  1  0.32088112  0.07133683  0.67999909  1
  Al0+  Al82  1  0.67753774  0.92953450  0.34858798  1
  Al0+  Al83  1  0.82097213  0.56900109  0.34556566  1
  Al0+  Al84  1  0.82087295  0.07264736  0.01578512  1
  Al0+  Al85  1  0.31977221  0.07367630  0.01680694  1
  Al0+  Al86  1  0.67883010  0.92695912  0.01592235  1
  Al0+  Al87  1  0.07194972  0.68122380  0.98360295  1
  Al0+  Al88  1  0.82524201  0.06915280  0.34931420  1
  Al0+  Al89  1  0.82058141  0.57050438  0.68233547  1
  Al0+  Al90  1  0.07161582  0.67684801  0.31852964  1
  Al0+  Al91  1  0.17939095  0.92728977  0.01678435  1
  Al0+  Al92  1  0.18072115  0.42987532  0.34403211  1
  Al0+  Al93  1  0.67951888  0.92951248  0.68088628  1
  Al0+  Al94  1  0.92844908  0.31863110  0.98682339  1
  Al0+  Al95  1  0.17899686  0.43001610  0.68211911  1
  Si0+  Si96  1  0.07172940  0.67789572  0.65125220  1
  Si0+  Si97  1  0.43049525  0.32091764  0.31936922  1
  Si0+  Si98  1  0.56854349  0.67757025  0.31787436  1
  Si0+  Si99  1  0.06983961  0.17969027  0.65469386  1
  Si0+  Si100  1  0.18093173  0.92803202  0.34644643  1
  Si0+  Si101  1  0.92723572  0.32096884  0.31938704  1
  Si0+  Si102  1  0.92990522  0.82007529  0.65398649  1
  Si0+  Si103  1  0.57225820  0.67842216  0.98558900  1
  Si0+  Si104  1  0.92904637  0.32308192  0.65065189  1
  Si0+  Si105  1  0.42942249  0.82287020  0.31657716  1
  Si0+  Si106  1  0.56947991  0.17824781  0.98461218  1
  Si0+  Si107  1  0.07240365  0.17563235  0.98139212  1
  Si0+  Si108  1  0.57130541  0.17898599  0.31726585  1
  Si0+  Si109  1  0.67615174  0.42918982  0.68271004  1
  Si0+  Si110  1  0.32466327  0.57128334  0.68211235  1
  Si0+  Si111  1  0.42909065  0.81973392  0.65131684  1
  Si0+  Si112  1  0.31983395  0.07209397  0.34786240  1
  Si0+  Si113  1  0.17569727  0.42860567  0.01677384  1
  Si0+  Si114  1  0.43121097  0.82093556  0.98436823  1
  Si0+  Si115  1  0.42522237  0.32374128  0.64776554  1
  Si0+  Si116  1  0.32206882  0.57502603  0.35133144  1
  Si0+  Si117  1  0.92676214  0.82271090  0.98016183  1
  Si0+  Si118  1  0.82522337  0.57124890  0.01639265  1
  Si0+  Si119  1  0.57357638  0.67889511  0.65089733  1
  O2-  O120  1  0.24465390  0.00540931  0.06778381  1
  O2-  O121  1  0.24837218  0.00177845  0.39015111  1
  O2-  O122  1  0.24861282  -0.00115488  0.72781778  1
  O2-  O123  1  0.24654419  0.49484453  0.06065824  1
  O2-  O124  1  0.24941942  0.50971034  0.39341651  1
  O2-  O125  1  0.25710474  0.50218398  0.72593760  1
  O2-  O126  1  0.75317653  -0.00372618  0.06479799  1
  O2-  O127  1  0.75348932  -0.00349753  0.39862145  1
  O2-  O128  1  0.74712705  0.00499443  0.73039725  1
  O2-  O129  1  0.75602771  0.50284485  0.05893009  1
  O2-  O130  1  0.75088276  0.49572887  0.39788847  1
  O2-  O131  1  0.74513503  0.49641988  0.72788805  1
  O2-  O132  1  -0.00627650  0.24986380  0.27583474  1
  O2-  O133  1  -0.00278937  0.24838375  0.61006554  1
  O2-  O134  1  0.00081487  0.24207702  0.93784865  1
  O2-  O135  1  -0.00154979  0.74758156  0.26895398  1
  O2-  O136  1  0.00454372  0.75273844  0.61045591  1
  O2-  O137  1  -0.00195732  0.75631363  0.93534991  1
  O2-  O138  1  0.50658499  0.25640931  0.27595249  1
  O2-  O139  1  0.49241038  0.25304343  0.60428926  1
  O2-  O140  1  0.49900845  0.24501989  0.93960767  1
  O2-  O141  1  0.49962348  0.75049469  0.27505579  1
  O2-  O142  1  0.50291383  0.75108971  0.60889434  1
  O2-  O143  1  0.50702266  0.75453860  0.94214708  1
  O2-  O144  1  0.07462162  0.18016695  0.08710551  1
  O2-  O145  1  0.07692267  0.18067788  0.43472317  1
  O2-  O146  1  0.07060475  0.18217707  0.75928030  1
  O2-  O147  1  0.06998395  0.67957491  0.09644535  1
  O2-  O148  1  0.07139795  0.67972228  0.43283578  1
  O2-  O149  1  0.07263457  0.67786758  0.75613492  1
  O2-  O150  1  0.56875070  0.18132267  0.09054026  1
  O2-  O151  1  0.56635187  0.17632515  0.42227255  1
  O2-  O152  1  0.56857095  0.18157157  0.76491653  1
  O2-  O153  1  0.56860270  0.67619766  0.09060295  1
  O2-  O154  1  0.56534991  0.67672770  0.42327770  1
  O2-  O155  1  0.57096885  0.67600122  0.75587237  1
  O2-  O156  1  0.18499649  0.42802670  0.23153440  1
  O2-  O157  1  0.17812946  0.43056849  0.56862544  1
  O2-  O158  1  0.17660138  0.43131131  0.91097453  1
  O2-  O159  1  0.18548498  0.92647891  0.24216729  1
  O2-  O160  1  0.17794149  0.92685438  0.56463283  1
  O2-  O161  1  0.18582270  0.92663822  0.90311714  1
  O2-  O162  1  0.67227815  0.42928255  0.23676137  1
  O2-  O163  1  0.67634379  0.43180167  0.57731073  1
  O2-  O164  1  0.67970407  0.43378489  0.89679000  1
  O2-  O165  1  0.67448007  0.93387611  0.23562583  1
  O2-  O166  1  0.68244477  0.92805523  0.56769532  1
  O2-  O167  1  0.67756796  0.92895706  0.90242352  1
  O2-  O168  1  0.43148801  0.32448242  0.09995330  1
  O2-  O169  1  0.42757984  0.31771275  0.42444062  1
  O2-  O170  1  0.42783177  0.32786756  0.75295479  1
  O2-  O171  1  0.43009946  0.81836100  0.08969716  1
  O2-  O172  1  0.42761153  0.82222582  0.42197605  1
  O2-  O173  1  0.42741259  0.81727052  0.75614309  1
  O2-  O174  1  0.93029657  0.32045768  0.09995638  1
  O2-  O175  1  0.93152578  0.32313595  0.42533897  1
  O2-  O176  1  0.92966265  0.32421285  0.75568296  1
  O2-  O177  1  0.92486663  0.81865038  0.08537830  1
  O2-  O178  1  0.92954530  0.82128490  0.43236159  1
  O2-  O179  1  0.92933868  0.81689628  0.75868430  1
  O2-  O180  1  0.31980033  0.07274108  0.24322037  1
  O2-  O181  1  0.31907271  0.06894100  0.56553260  1
  O2-  O182  1  0.32172369  0.07040530  0.90343623  1
  O2-  O183  1  0.32692980  0.57313479  0.24611276  1
  O2-  O184  1  0.32609461  0.57255217  0.57641186  1
  O2-  O185  1  0.32074159  0.56862770  0.89908216  1
  O2-  O186  1  0.82253122  0.07119271  0.23625263  1
  O2-  O187  1  0.82569589  0.07107638  0.56888236  1
  O2-  O188  1  0.81498553  0.07476739  0.90229431  1
  O2-  O189  1  0.81935644  0.56614373  0.23207504  1
  O2-  O190  1  0.82116359  0.57114386  0.56938763  1
  O2-  O191  1  0.82256625  0.57101073  0.91035583  1
  O2-  O192  1  0.04895563  0.08257179  0.26455524  1
  O2-  O193  1  0.04464366  0.08591394  0.60888416  1
  O2-  O194  1  0.05164340  0.07944843  0.93888707  1
  O2-  O195  1  0.04547206  0.57721591  0.26665530  1
  O2-  O196  1  0.03775547  0.58655825  0.60623000  1
  O2-  O197  1  0.04206915  0.58524088  0.92707384  1
  O2-  O198  1  0.53635237  0.09041072  0.26804536  1
  O2-  O199  1  0.53773650  0.08264365  0.59612267  1
  O2-  O200  1  0.54379040  0.08351739  0.94088708  1
  O2-  O201  1  0.53693821  0.58601293  0.27121820  1
  O2-  O202  1  0.54435461  0.58862734  0.60005680  1
  O2-  O203  1  0.53790995  0.59028941  0.93505734  1
  O2-  O204  1  0.16782649  0.21505041  0.26546388  1
  O2-  O205  1  0.16185929  0.20952727  0.60741667  1
  O2-  O206  1  0.16462069  0.20415388  0.93364421  1
  O2-  O207  1  0.17140449  0.70498826  0.26748618  1
  O2-  O208  1  0.16565077  0.69759809  0.60371719  1
  O2-  O209  1  0.17018600  0.71143833  0.93104960  1
  O2-  O210  1  0.66604612  0.20034651  0.27335682  1
  O2-  O211  1  0.66464279  0.21182341  0.59478445  1
  O2-  O212  1  0.66194722  0.20669642  0.93870550  1
  O2-  O213  1  0.66038610  0.70066298  0.26946268  1
  O2-  O214  1  0.66595817  0.70695130  0.60494559  1
  O2-  O215  1  0.66665193  0.69951551  0.93960046  1
  O2-  O216  1  0.08276241  0.45806042  0.06097289  1
  O2-  O217  1  0.08401299  0.45520159  0.40068267  1
  O2-  O218  1  0.08534246  0.46353397  0.73862951  1
  O2-  O219  1  0.07808650  0.94514825  0.06605499  1
  O2-  O220  1  0.08783076  0.95271105  0.39102957  1
  O2-  O221  1  0.08080234  0.95209887  0.73511690  1
  O2-  O222  1  0.58536027  0.46471844  0.06521273  1
  O2-  O223  1  0.57844380  0.45798858  0.40546927  1
  O2-  O224  1  0.58172167  0.45582244  0.72631614  1
  O2-  O225  1  0.58033807  0.95316892  0.06877624  1
  O2-  O226  1  0.57926920  0.96202031  0.40142278  1
  O2-  O227  1  0.57878511  0.95321658  0.73005603  1
  O2-  O228  1  0.19735834  0.33342897  0.05944668  1
  O2-  O229  1  0.21797287  0.33609022  0.40084556  1
  O2-  O230  1  0.20594629  0.33456744  0.73897635  1
  O2-  O231  1  0.21686229  0.83246573  0.07050015  1
  O2-  O232  1  0.21217837  0.83755141  0.39530903  1
  O2-  O233  1  0.20801355  0.82698312  0.72906316  1
  O2-  O234  1  0.70733136  0.33498996  0.06533691  1
  O2-  O235  1  0.69826557  0.32672289  0.40207258  1
  O2-  O236  1  0.70080314  0.33532373  0.72677792  1
  O2-  O237  1  0.70439619  0.82646352  0.06683156  1
  O2-  O238  1  0.69510045  0.82707368  0.39645215  1
  O2-  O239  1  0.70764950  0.83197628  0.73503084  1
  O2-  O240  1  0.45172680  0.41634605  0.27576640  1
  O2-  O241  1  0.45186460  0.41661581  0.59892428  1
  O2-  O242  1  0.46199277  0.41806829  0.93055695  1
  O2-  O243  1  0.45765050  0.91433442  0.26872959  1
  O2-  O244  1  0.45299507  0.91184170  0.60271622  1
  O2-  O245  1  0.45530121  0.91457981  0.93857856  1
  O2-  O246  1  0.95524661  0.41291453  0.27180323  1
  O2-  O247  1  0.96324044  0.41411738  0.60477940  1
  O2-  O248  1  0.96023441  0.41359366  0.92875051  1
  O2-  O249  1  0.95732398  0.91687806  0.26245969  1
  O2-  O250  1  0.95470633  0.91377847  0.60831748  1
  O2-  O251  1  0.94902447  0.91831697  0.93670516  1
  O2-  O252  1  0.34163526  0.28851740  0.26943296  1
  O2-  O253  1  0.32952997  0.29944437  0.60477380  1
  O2-  O254  1  0.32977275  0.29706507  0.93280572  1
  O2-  O255  1  0.33866521  0.79531440  0.26713309  1
  O2-  O256  1  0.33916938  0.78791258  0.60042674  1
  O2-  O257  1  0.34232022  0.78699794  0.93575022  1
  O2-  O258  1  0.83125026  0.29838079  0.27684199  1
  O2-  O259  1  0.83581518  0.30330701  0.60293703  1
  O2-  O260  1  0.83086237  0.29030029  0.93179291  1
  O2-  O261  1  0.82670592  0.79338367  0.26623794  1
  O2-  O262  1  0.83903657  0.78775412  0.60686459  1
  O2-  O263  1  0.83380249  0.79361040  0.93314554  1
  O2-  O264  1  0.41622916  0.04237512  0.07165105  1
  O2-  O265  1  0.41090036  0.04120308  0.39443773  1
  O2-  O266  1  0.41769972  0.04095993  0.73315665  1
  O2-  O267  1  0.41601157  0.53896921  0.06840287  1
  O2-  O268  1  0.41264216  0.54554554  0.40148118  1
  O2-  O269  1  0.41929890  0.54788193  0.72703876  1
  O2-  O270  1  0.92170133  0.05051535  0.06490894  1
  O2-  O271  1  0.92557890  0.04153073  0.39946663  1
  O2-  O272  1  0.91807882  0.04639838  0.73803693  1
  O2-  O273  1  0.91931436  0.54408461  0.05850689  1
  O2-  O274  1  0.91894544  0.54242938  0.40109374  1
  O2-  O275  1  0.91506934  0.53869172  0.73839538  1
  O2-  O276  1  0.29386600  0.17390441  0.06804421  1
  O2-  O277  1  0.29378813  0.16356279  0.39594856  1
  O2-  O278  1  0.29568598  0.16969046  0.73262242  1
  O2-  O279  1  0.29240363  0.66500223  0.06787725  1
  O2-  O280  1  0.30173342  0.67058140  0.39570604  1
  O2-  O281  1  0.29859600  0.66422103  0.72844134  1
  O2-  O282  1  0.78923958  0.16898632  0.07058400  1
  O2-  O283  1  0.79778233  0.16721912  0.40328713  1
  O2-  O284  1  0.79353105  0.17565921  0.72957668  1
  O2-  O285  1  0.80089097  0.66478149  0.06134193  1
  O2-  O286  1  0.78871206  0.66599488  0.39941617  1
  O2-  O287  1  0.78934024  0.66471863  0.73944822  1
