# generated using pymatgen
data_Ca2Al2SiO7
_symmetry_space_group_name_H-M   'P 1'
_cell_length_a   15.45746308
_cell_length_b   15.45891868
_cell_length_c   15.28300382
_cell_angle_alpha   90.01886882
_cell_angle_beta   90.00450451
_cell_angle_gamma   90.00438465
_symmetry_Int_Tables_number   1
_chemical_formula_structural   Ca2Al2SiO7
_chemical_formula_sum   'Ca48 Al48 Si24 O168'
_cell_volume   3651.96011715
_cell_formula_units_Z   24
loop_
 _symmetry_equiv_pos_site_id
 _symmetry_equiv_pos_as_xyz
  1  'x, y, z'
loop_
 _atom_type_symbol
 _atom_type_oxidation_number
  Ca2+  2.0
  Al0+  0.0
  Si0+  0.0
  O2-  -2.0
loop_
 _atom_site_type_symbol
 _atom_site_label
 _atom_site_symmetry_multiplicity
 _atom_site_fract_x
 _atom_site_fract_y
 _atom_site_fract_z
 _atom_site_occupancy
  Ca2+  Ca0  1  0.16808740  0.07926496  0.17318577  1
  Ca2+  Ca1  1  0.17648531  0.08780373  0.49724144  1
  Ca2+  Ca2  1  0.17439003  0.08294547  0.84034360  1
  Ca2+  Ca3  1  0.16861111  0.56939765  0.16935558  1
  Ca2+  Ca4  1  0.16857223  0.57646996  0.50179013  1
  Ca2+  Ca5  1  0.16925449  0.57381751  0.84122784  1
  Ca2+  Ca6  1  0.67052020  0.08396083  0.16702808  1
  Ca2+  Ca7  1  0.65750052  0.06997379  0.50372806  1
  Ca2+  Ca8  1  0.67039229  0.08373719  0.83939333  1
  Ca2+  Ca9  1  0.66193085  0.57022957  0.16897233  1
  Ca2+  Ca10  1  0.66865875  0.57499028  0.50989133  1
  Ca2+  Ca11  1  0.66229635  0.57500122  0.83125504  1
  Ca2+  Ca12  1  0.09073467  0.32195934  0.16187692  1
  Ca2+  Ca13  1  0.07749781  0.33051716  0.49192693  1
  Ca2+  Ca14  1  0.08077366  0.32841083  0.82898976  1
  Ca2+  Ca15  1  0.08148932  0.84055600  0.15645624  1
  Ca2+  Ca16  1  0.08325147  0.83406048  0.49375471  1
  Ca2+  Ca17  1  0.07715925  0.84070130  0.83490330  1
  Ca2+  Ca18  1  0.57538977  0.33219747  0.15719672  1
  Ca2+  Ca19  1  0.57348012  0.34234879  0.49549527  1
  Ca2+  Ca20  1  0.57974182  0.33329832  0.82934164  1
  Ca2+  Ca21  1  0.57810862  0.83539520  0.16048613  1
  Ca2+  Ca22  1  0.58656345  0.83306860  0.49976877  1
  Ca2+  Ca23  1  0.57437607  0.83262703  0.82262033  1
  Ca2+  Ca24  1  0.32693818  0.40387082  0.16924568  1
  Ca2+  Ca25  1  0.32899742  0.40417522  0.50115021  1
  Ca2+  Ca26  1  0.33404593  0.41287758  0.83984392  1
  Ca2+  Ca27  1  0.32522294  0.92264029  0.17407215  1
  Ca2+  Ca28  1  0.33517882  0.93129545  0.50697549  1
  Ca2+  Ca29  1  0.33518004  0.91995724  0.83879573  1
  Ca2+  Ca30  1  0.81794160  0.41104641  0.16895395  1
  Ca2+  Ca31  1  0.82233316  0.41778097  0.51166612  1
  Ca2+  Ca32  1  0.82468868  0.41530451  0.83505641  1
  Ca2+  Ca33  1  0.83266980  0.92253262  0.16761307  1
  Ca2+  Ca34  1  0.82120168  0.91751380  0.50417786  1
  Ca2+  Ca35  1  0.82752142  0.91986192  0.84041247  1
  Ca2+  Ca36  1  0.42019147  0.17271644  0.16265718  1
  Ca2+  Ca37  1  0.41136860  0.17197368  0.49700694  1
  Ca2+  Ca38  1  0.41914679  0.17527981  0.83035861  1
  Ca2+  Ca39  1  0.41639874  0.67535674  0.15969093  1
  Ca2+  Ca40  1  0.42304027  0.67183603  0.50164337  1
  Ca2+  Ca41  1  0.42126269  0.67890328  0.82648698  1
  Ca2+  Ca42  1  0.92860619  0.15970024  0.15926610  1
  Ca2+  Ca43  1  0.92162079  0.17249215  0.49632561  1
  Ca2+  Ca44  1  0.92156339  0.16715035  0.83307114  1
  Ca2+  Ca45  1  0.91928498  0.67604312  0.16063156  1
  Ca2+  Ca46  1  0.91249811  0.66430746  0.49967203  1
  Ca2+  Ca47  1  0.91433282  0.66761517  0.82984281  1
  Al0+  Al48  1  -0.00022863  0.00015127  -0.00346813  1
  Al0+  Al49  1  -0.00075002  0.00001052  0.33508942  1
  Al0+  Al50  1  0.00116666  -0.00146797  0.66268738  1
  Al0+  Al51  1  0.00018853  0.50045845  0.00643193  1
  Al0+  Al52  1  -0.00024869  0.50149059  0.33392007  1
  Al0+  Al53  1  -0.00121726  0.49926463  0.66574299  1
  Al0+  Al54  1  0.50086694  0.00125828  -0.00644331  1
  Al0+  Al55  1  0.50007145  0.00103061  0.33882703  1
  Al0+  Al56  1  0.49779639  0.00197561  0.67301563  1
  Al0+  Al57  1  0.49961494  0.50214160  0.00128389  1
  Al0+  Al58  1  0.49922571  0.50235626  0.33132973  1
  Al0+  Al59  1  0.49792515  0.50133788  0.66225719  1
  Al0+  Al60  1  0.25051593  0.24876635  -0.00430481  1
  Al0+  Al61  1  0.24856688  0.25012241  0.33341367  1
  Al0+  Al62  1  0.25082847  0.24696257  0.66851298  1
  Al0+  Al63  1  0.24931680  0.74862741  -0.00092833  1
  Al0+  Al64  1  0.24904389  0.74844620  0.33516980  1
  Al0+  Al65  1  0.24867190  0.74953060  0.66228906  1
  Al0+  Al66  1  0.75154967  0.24912038  0.00642876  1
  Al0+  Al67  1  0.74910451  0.25038386  0.33890833  1
  Al0+  Al68  1  0.75084576  0.24810331  0.66466962  1
  Al0+  Al69  1  0.75099742  0.74949192  -0.00332154  1
  Al0+  Al70  1  0.75032890  0.74994531  0.33346431  1
  Al0+  Al71  1  0.75052362  0.74933060  0.67077603  1
  Al0+  Al72  1  0.17948428  0.42699683  0.01291433  1
  Al0+  Al73  1  0.92968671  0.82092198  0.98575931  1
  Al0+  Al74  1  0.42947732  0.32051107  0.65215527  1
  Al0+  Al75  1  0.92901509  0.32072300  0.65371202  1
  Al0+  Al76  1  0.43065496  0.32089409  0.31907948  1
  Al0+  Al77  1  0.67975896  0.92996307  0.68207828  1
  Al0+  Al78  1  0.57489058  0.17966149  0.98536268  1
  Al0+  Al79  1  0.67609480  0.42752056  0.68233963  1
  Al0+  Al80  1  0.67726661  0.42881413  0.34765522  1
  Al0+  Al81  1  0.68005898  0.92924382  0.34509605  1
  Al0+  Al82  1  0.57177350  0.68074166  0.65074145  1
  Al0+  Al83  1  0.42771205  0.82414020  0.64925539  1
  Al0+  Al84  1  0.32041365  0.07102005  0.34740566  1
  Al0+  Al85  1  0.17674192  0.92733350  0.34842247  1
  Al0+  Al86  1  0.67874642  0.43012302  0.01384620  1
  Al0+  Al87  1  0.82248954  0.57017914  0.68299377  1
  Al0+  Al88  1  0.31926101  0.07127140  0.68428382  1
  Al0+  Al89  1  0.82119585  0.07014276  0.01296103  1
  Al0+  Al90  1  0.18020730  0.42958159  0.34750911  1
  Al0+  Al91  1  0.42996139  0.32136813  0.98473380  1
  Al0+  Al92  1  0.07091258  0.17890006  0.98565476  1
  Al0+  Al93  1  0.42789342  0.82111876  0.98826141  1
  Al0+  Al94  1  0.06804489  0.18060236  0.31943945  1
  Al0+  Al95  1  0.18065901  0.92980034  0.01113687  1
  Si0+  Si96  1  0.92949913  0.82086584  0.65017284  1
  Si0+  Si97  1  0.32402267  0.07184426  0.01699783  1
  Si0+  Si98  1  0.57319594  0.17813908  0.64967597  1
  Si0+  Si99  1  0.07225691  0.17745075  0.64861437  1
  Si0+  Si100  1  0.57266667  0.67824725  0.98354191  1
  Si0+  Si101  1  0.17957787  0.42912626  0.68051332  1
  Si0+  Si102  1  0.42897191  0.82235708  0.31936126  1
  Si0+  Si103  1  0.92809809  0.32370729  0.98617637  1
  Si0+  Si104  1  0.57347335  0.17559166  0.31778650  1
  Si0+  Si105  1  0.82044433  0.57178636  0.34854897  1
  Si0+  Si106  1  0.57186924  0.68097923  0.31676761  1
  Si0+  Si107  1  0.82322366  0.07216032  0.35137665  1
  Si0+  Si108  1  0.07278999  0.67730547  0.31674393  1
  Si0+  Si109  1  0.17733954  0.92537384  0.68365651  1
  Si0+  Si110  1  0.32258858  0.57415751  0.35144760  1
  Si0+  Si111  1  0.92955770  0.81909376  0.31891818  1
  Si0+  Si112  1  0.07064394  0.67724774  0.65085556  1
  Si0+  Si113  1  0.82531653  0.07100104  0.68284602  1
  Si0+  Si114  1  0.31944674  0.57287039  0.68119714  1
  Si0+  Si115  1  0.82289181  0.57404402  0.01903609  1
  Si0+  Si116  1  0.92577273  0.32423920  0.31586906  1
  Si0+  Si117  1  0.32155722  0.57220631  0.01623140  1
  Si0+  Si118  1  0.07097737  0.67606418  0.98345058  1
  Si0+  Si119  1  0.67716655  0.92695449  0.01524133  1
  O2-  O120  1  0.25664666  0.00120826  0.06018051  1
  O2-  O121  1  0.25045113  -0.00336760  0.39840826  1
  O2-  O122  1  0.24657205  -0.00725972  0.72779541  1
  O2-  O123  1  0.25698096  0.49924034  0.05980397  1
  O2-  O124  1  0.25617794  0.50260260  0.39523719  1
  O2-  O125  1  0.25151312  0.49871829  0.72322825  1
  O2-  O126  1  0.74507404  -0.00380591  0.05966239  1
  O2-  O127  1  0.75055057  0.00688973  0.39400890  1
  O2-  O128  1  0.75495121  0.00451987  0.72729396  1
  O2-  O129  1  0.75385768  0.50510215  0.06172616  1
  O2-  O130  1  0.75630526  0.49957138  0.39272361  1
  O2-  O131  1  0.74999515  0.49841955  0.73189265  1
  O2-  O132  1  -0.00724144  0.25444974  0.27105143  1
  O2-  O133  1  0.00282877  0.24589275  0.60551205  1
  O2-  O134  1  -0.00105199  0.25754984  0.94119842  1
  O2-  O135  1  0.00507827  0.75259580  0.27629848  1
  O2-  O136  1  0.00030915  0.74924426  0.60836044  1
  O2-  O137  1  0.00326980  0.74505260  0.93835895  1
  O2-  O138  1  0.50856472  0.24830338  0.27440999  1
  O2-  O139  1  0.50832776  0.25031992  0.60507792  1
  O2-  O140  1  0.50419391  0.25228245  0.93445951  1
  O2-  O141  1  0.50022848  0.75205344  0.27551087  1
  O2-  O142  1  0.50286394  0.75530423  0.59880690  1
  O2-  O143  1  0.50633671  0.75019459  0.94175034  1
  O2-  O144  1  0.07035830  0.17811893  0.09889020  1
  O2-  O145  1  0.06580742  0.18312434  0.43277603  1
  O2-  O146  1  0.07149621  0.17736267  0.75426967  1
  O2-  O147  1  0.06963240  0.67597287  0.08922406  1
  O2-  O148  1  0.07102039  0.67495688  0.42197633  1
  O2-  O149  1  0.07178983  0.67611256  0.75571558  1
  O2-  O150  1  0.57351077  0.17928961  0.09947301  1
  O2-  O151  1  0.57234959  0.17260255  0.42316431  1
  O2-  O152  1  0.57338374  0.17884448  0.75510770  1
  O2-  O153  1  0.57169095  0.67850094  0.08992866  1
  O2-  O154  1  0.57347569  0.68159011  0.42132015  1
  O2-  O155  1  0.56739735  0.68096095  0.76444614  1
  O2-  O156  1  0.18087802  0.43072282  0.23452034  1
  O2-  O157  1  0.17945928  0.43101605  0.57518922  1
  O2-  O158  1  0.17735064  0.43076972  0.89937777  1
  O2-  O159  1  0.17759468  0.92760460  0.23466001  1
  O2-  O160  1  0.17555353  0.92545972  0.57819315  1
  O2-  O161  1  0.18108884  0.93134785  0.89803780  1
  O2-  O162  1  0.67715980  0.43108184  0.23425114  1
  O2-  O163  1  0.67734348  0.43082162  0.56853544  1
  O2-  O164  1  0.67895237  0.43140952  0.90126793  1
  O2-  O165  1  0.68222525  0.92726643  0.23207542  1
  O2-  O166  1  0.68284401  0.93039386  0.56838285  1
  O2-  O167  1  0.67921898  0.92596778  0.90996310  1
  O2-  O168  1  0.42975098  0.31878410  0.09854199  1
  O2-  O169  1  0.43081477  0.31949939  0.43227686  1
  O2-  O170  1  0.42683802  0.31947974  0.76478786  1
  O2-  O171  1  0.42872940  0.81931042  0.10227417  1
  O2-  O172  1  0.42990196  0.82067026  0.42392846  1
  O2-  O173  1  0.42626967  0.81962993  0.76298416  1
  O2-  O174  1  0.92829789  0.32267500  0.09192155  1
  O2-  O175  1  0.92790782  0.32423769  0.42165860  1
  O2-  O176  1  0.93282507  0.32092483  0.76691748  1
  O2-  O177  1  0.93029506  0.81962601  0.09949602  1
  O2-  O178  1  0.92772703  0.81563962  0.42414604  1
  O2-  O179  1  0.93202959  0.82339635  0.75500015  1
  O2-  O180  1  0.32176431  0.06855329  0.23375854  1
  O2-  O181  1  0.31603729  0.07393017  0.57125952  1
  O2-  O182  1  0.32179009  0.07163618  0.91141440  1
  O2-  O183  1  0.32007419  0.57906900  0.24593763  1
  O2-  O184  1  0.31573031  0.57562881  0.57612442  1
  O2-  O185  1  0.31898882  0.57410762  0.91050265  1
  O2-  O186  1  0.82584478  0.06922067  0.24581598  1
  O2-  O187  1  0.82834044  0.06758213  0.57714469  1
  O2-  O188  1  0.82160749  0.06784383  0.89984372  1
  O2-  O189  1  0.81843132  0.57525797  0.24297737  1
  O2-  O190  1  0.82373504  0.56832215  0.56887666  1
  O2-  O191  1  0.82490041  0.57414507  0.91399663  1
  O2-  O192  1  0.03768636  0.08237357  0.26708460  1
  O2-  O193  1  0.04743368  0.08360282  0.60202225  1
  O2-  O194  1  0.03598997  0.08546373  0.92897221  1
  O2-  O195  1  0.04103732  0.58741267  0.26701366  1
  O2-  O196  1  0.04172087  0.58668211  0.60107780  1
  O2-  O197  1  0.04360753  0.58266475  0.93726386  1
  O2-  O198  1  0.54531325  0.08285824  0.27029693  1
  O2-  O199  1  0.54102291  0.08583376  0.60487326  1
  O2-  O200  1  0.54865389  0.08149521  0.93097157  1
  O2-  O201  1  0.54217593  0.59051189  0.26757779  1
  O2-  O202  1  0.53883131  0.58450128  0.59566757  1
  O2-  O203  1  0.54332602  0.58666035  0.93657911  1
  O2-  O204  1  0.16410428  0.21212154  0.26569458  1
  O2-  O205  1  0.16471687  0.20622347  0.60327412  1
  O2-  O206  1  0.16666741  0.20797889  0.93003715  1
  O2-  O207  1  0.16596135  0.70003847  0.26972383  1
  O2-  O208  1  0.16141878  0.70386997  0.60052840  1
  O2-  O209  1  0.16480427  0.69916107  0.93723596  1
  O2-  O210  1  0.66983521  0.19725527  0.27502214  1
  O2-  O211  1  0.66872886  0.19454069  0.60355270  1
  O2-  O212  1  0.67486087  0.20597645  0.93469728  1
  O2-  O213  1  0.66324409  0.70955498  0.26835635  1
  O2-  O214  1  0.67224761  0.70654725  0.59980172  1
  O2-  O215  1  0.66730350  0.69868263  0.93840422  1
  O2-  O216  1  0.08460984  0.45980329  0.06990729  1
  O2-  O217  1  0.08323294  0.46302880  0.40061358  1
  O2-  O218  1  0.08881852  0.45951029  0.72756666  1
  O2-  O219  1  0.08400770  0.96146009  0.06376535  1
  O2-  O220  1  0.07838017  0.95534437  0.40199866  1
  O2-  O221  1  0.08284217  0.95250440  0.72790554  1
  O2-  O222  1  0.58282749  0.46368559  0.06897934  1
  O2-  O223  1  0.58185640  0.46536296  0.39962405  1
  O2-  O224  1  0.57721641  0.45944241  0.73262562  1
  O2-  O225  1  0.58306767  0.95265929  0.06037041  1
  O2-  O226  1  0.58395348  0.95653930  0.40140538  1
  O2-  O227  1  0.58318655  0.95925527  0.73523709  1
  O2-  O228  1  0.21009221  0.32986109  0.06578831  1
  O2-  O229  1  0.20913088  0.33382521  0.40277016  1
  O2-  O230  1  0.20546220  0.33675925  0.72662751  1
  O2-  O231  1  0.20546384  0.83058623  0.06379279  1
  O2-  O232  1  0.19968540  0.82637704  0.39876145  1
  O2-  O233  1  0.19906866  0.83002105  0.72787461  1
  O2-  O234  1  0.71040281  0.33500158  0.07020480  1
  O2-  O235  1  0.70220954  0.33110280  0.40217352  1
  O2-  O236  1  0.70521429  0.32747425  0.73134309  1
  O2-  O237  1  0.70341591  0.83283304  0.06070547  1
  O2-  O238  1  0.71549582  0.83421661  0.40008859  1
  O2-  O239  1  0.71107042  0.83411439  0.73577140  1
  O2-  O240  1  0.45612633  0.42000459  0.26644912  1
  O2-  O241  1  0.45256035  0.41872359  0.59763435  1
  O2-  O242  1  0.45376551  0.42279597  0.93578217  1
  O2-  O243  1  0.45719695  0.91432675  0.27289367  1
  O2-  O244  1  0.45505074  0.92442532  0.60083750  1
  O2-  O245  1  0.45500442  0.91736627  0.93314330  1
  O2-  O246  1  0.95069756  0.41867438  0.27128036  1
  O2-  O247  1  0.96099634  0.41645347  0.59793583  1
  O2-  O248  1  0.95141027  0.41890572  0.94246037  1
  O2-  O249  1  0.95295630  0.91260292  0.27336269  1
  O2-  O250  1  0.95750499  0.91160071  0.59970975  1
  O2-  O251  1  0.96257784  0.91475113  0.92879771  1
  O2-  O252  1  0.33388451  0.28804122  0.26704808  1
  O2-  O253  1  0.33271514  0.28512889  0.59962167  1
  O2-  O254  1  0.33245931  0.29220011  0.93081794  1
  O2-  O255  1  0.33665436  0.79257135  0.27315258  1
  O2-  O256  1  0.32966987  0.79218583  0.59658266  1
  O2-  O257  1  0.33298173  0.78673102  0.93287596  1
  O2-  O258  1  0.83039046  0.29916435  0.27306577  1
  O2-  O259  1  0.83305234  0.29017110  0.59751618  1
  O2-  O260  1  0.83585275  0.29485294  0.94054102  1
  O2-  O261  1  0.83989701  0.78679047  0.26936797  1
  O2-  O262  1  0.83796758  0.79222267  0.60331900  1
  O2-  O263  1  0.83303508  0.79152878  0.93105922  1
  O2-  O264  1  0.41889116  0.04773276  0.06090829  1
  O2-  O265  1  0.41827164  0.04464936  0.40275091  1
  O2-  O266  1  0.41558399  0.04425943  0.73945333  1
  O2-  O267  1  0.41621985  0.55350087  0.06264426  1
  O2-  O268  1  0.41729094  0.55197817  0.39539393  1
  O2-  O269  1  0.41171525  0.54756810  0.72726158  1
  O2-  O270  1  0.91576396  0.03393353  0.06762709  1
  O2-  O271  1  0.91369991  0.04158552  0.40043049  1
  O2-  O272  1  0.91872812  0.04248282  0.72841610  1
  O2-  O273  1  0.91622371  0.55055258  0.06721006  1
  O2-  O274  1  0.91602073  0.55220801  0.39313951  1
  O2-  O275  1  0.92156675  0.54240605  0.73596360  1
  O2-  O276  1  0.29550645  0.16477457  0.06173455  1
  O2-  O277  1  0.28698421  0.16726302  0.40143386  1
  O2-  O278  1  0.28427140  0.16582982  0.74035126  1
  O2-  O279  1  0.29074044  0.66318788  0.06545312  1
  O2-  O280  1  0.29333342  0.66526025  0.40080990  1
  O2-  O281  1  0.28773101  0.66325646  0.72976006  1
  O2-  O282  1  0.79517366  0.16552504  0.07160286  1
  O2-  O283  1  0.80289240  0.16704503  0.39663266  1
  O2-  O284  1  0.80233531  0.16537246  0.72736260  1
  O2-  O285  1  0.79654071  0.66814838  0.06501092  1
  O2-  O286  1  0.79142453  0.66367239  0.39661104  1
  O2-  O287  1  0.79732790  0.66906838  0.73564366  1
