# generated using pymatgen
data_Ca2Al2SiO7
_symmetry_space_group_name_H-M   'P 1'
_cell_length_a   15.45677398
_cell_length_b   15.45689094
_cell_length_c   15.28314285
_cell_angle_alpha   90.00614534
_cell_angle_beta   90.00187040
_cell_angle_gamma   89.97638727
_symmetry_Int_Tables_number   1
_chemical_formula_structural   Ca2Al2SiO7
_chemical_formula_sum   'Ca48 Al48 Si24 O168'
_cell_volume   3651.35141073
_cell_formula_units_Z   24
loop_
 _symmetry_equiv_pos_site_id
 _symmetry_equiv_pos_as_xyz
  1  'x, y, z'
loop_
 _atom_type_symbol
 _atom_type_oxidation_number
  Ca2+  2.0
  Al0+  0.0
  Si0+  0.0
  O2-  -2.0
loop_
 _atom_site_type_symbol
 _atom_site_label
 _atom_site_symmetry_multiplicity
 _atom_site_fract_x
 _atom_site_fract_y
 _atom_site_fract_z
 _atom_site_occupancy
  Ca2+  Ca0  1  0.16686726  0.07589481  0.16594334  1
  Ca2+  Ca1  1  0.16446013  0.07874546  0.51075512  1
  Ca2+  Ca2  1  0.15742680  0.07432628  0.83562576  1
  Ca2+  Ca3  1  0.17599225  0.58353804  0.17065562  1
  Ca2+  Ca4  1  0.17019998  0.59351390  0.50357240  1
  Ca2+  Ca5  1  0.17051588  0.57862046  0.84233646  1
  Ca2+  Ca6  1  0.67793390  0.08628241  0.17287332  1
  Ca2+  Ca7  1  0.66803849  0.08107361  0.50728003  1
  Ca2+  Ca8  1  0.66992214  0.08000121  0.83523962  1
  Ca2+  Ca9  1  0.66420208  0.58307531  0.16704428  1
  Ca2+  Ca10  1  0.66760897  0.57765958  0.51288610  1
  Ca2+  Ca11  1  0.66147952  0.58154142  0.83403193  1
  Ca2+  Ca12  1  0.07936456  0.33245761  0.15685305  1
  Ca2+  Ca13  1  0.07923903  0.32829060  0.50215781  1
  Ca2+  Ca14  1  0.07458509  0.33270893  0.82615582  1
  Ca2+  Ca15  1  0.07680448  0.83243196  0.16222994  1
  Ca2+  Ca16  1  0.07745723  0.82991568  0.49899403  1
  Ca2+  Ca17  1  0.07697102  0.83664615  0.82649539  1
  Ca2+  Ca18  1  0.57906834  0.32726819  0.16108041  1
  Ca2+  Ca19  1  0.58571447  0.32494507  0.50347556  1
  Ca2+  Ca20  1  0.57266695  0.33101745  0.82423263  1
  Ca2+  Ca21  1  0.57370353  0.82465050  0.15441018  1
  Ca2+  Ca22  1  0.58996423  0.82978554  0.50111611  1
  Ca2+  Ca23  1  0.58381668  0.82329725  0.82772455  1
  Ca2+  Ca24  1  0.33391812  0.42461921  0.16528877  1
  Ca2+  Ca25  1  0.33614895  0.42218862  0.50489989  1
  Ca2+  Ca26  1  0.33058116  0.41728157  0.84319699  1
  Ca2+  Ca27  1  0.32630665  0.90490120  0.16548508  1
  Ca2+  Ca28  1  0.32529376  0.91928299  0.50978048  1
  Ca2+  Ca29  1  0.32081823  0.91255917  0.83973859  1
  Ca2+  Ca30  1  0.83453950  0.41721737  0.16868878  1
  Ca2+  Ca31  1  0.82841679  0.41791753  0.51055992  1
  Ca2+  Ca32  1  0.82945248  0.40928961  0.83655630  1
  Ca2+  Ca33  1  0.84083431  0.92554175  0.17001072  1
  Ca2+  Ca34  1  0.83490929  0.91877331  0.50692710  1
  Ca2+  Ca35  1  0.83389628  0.91802051  0.83848396  1
  Ca2+  Ca36  1  0.42486105  0.17016227  0.16016478  1
  Ca2+  Ca37  1  0.42880061  0.16863982  0.49897766  1
  Ca2+  Ca38  1  0.41686456  0.17909656  0.82477444  1
  Ca2+  Ca39  1  0.41770122  0.66375365  0.15788172  1
  Ca2+  Ca40  1  0.42096594  0.66392231  0.49966629  1
  Ca2+  Ca41  1  0.42277810  0.66521932  0.83477600  1
  Ca2+  Ca42  1  0.91288443  0.16778455  0.15950956  1
  Ca2+  Ca43  1  0.91546992  0.16736590  0.50185621  1
  Ca2+  Ca44  1  0.91794266  0.17335819  0.83071114  1
  Ca2+  Ca45  1  0.92041108  0.67935191  0.16120996  1
  Ca2+  Ca46  1  0.92666188  0.67847512  0.49590326  1
  Ca2+  Ca47  1  0.92516350  0.67799082  0.82451486  1
  Al0+  Al48  1  -0.00033164  0.00016997  0.00608797  1
  Al0+  Al49  1  -0.00059267  0.00236183  0.33548001  1
  Al0+  Al50  1  -0.00020818  0.00158987  0.66475359  1
  Al0+  Al51  1  -0.00256160  0.49928737  0.00087083  1
  Al0+  Al52  1  0.00075271  0.49968342  0.33118735  1
  Al0+  Al53  1  0.00166178  0.50222683  0.65907538  1
  Al0+  Al54  1  0.49994648  -0.00231716  -0.00371138  1
  Al0+  Al55  1  0.50073083  0.00029104  0.32780261  1
  Al0+  Al56  1  0.50002446  0.00100751  0.66984197  1
  Al0+  Al57  1  0.50053703  0.49704472  -0.00195787  1
  Al0+  Al58  1  0.49778848  0.49923548  0.33813590  1
  Al0+  Al59  1  0.50088547  0.50118576  0.66355793  1
  Al0+  Al60  1  0.24989413  0.24724442  0.00193746  1
  Al0+  Al61  1  0.24975660  0.25095638  0.33318236  1
  Al0+  Al62  1  0.24983433  0.25320266  0.65804519  1
  Al0+  Al63  1  0.25070000  0.74868358  0.00549335  1
  Al0+  Al64  1  0.25009160  0.74822033  0.33640159  1
  Al0+  Al65  1  0.25117635  0.75134056  0.67012348  1
  Al0+  Al66  1  0.75106224  0.24912494  0.00146219  1
  Al0+  Al67  1  0.74964810  0.24846566  0.33433466  1
  Al0+  Al68  1  0.74840540  0.25126727  0.66603726  1
  Al0+  Al69  1  0.75041412  0.74909396  -0.00598700  1
  Al0+  Al70  1  0.74992978  0.75008575  0.32845680  1
  Al0+  Al71  1  0.74991266  0.75054450  0.66341447  1
  Al0+  Al72  1  0.42882861  0.31783049  0.98799990  1
  Al0+  Al73  1  0.81770203  0.06932868  0.01347752  1
  Al0+  Al74  1  0.92887695  0.82288604  0.31628319  1
  Al0+  Al75  1  0.93136616  0.82292459  0.98570650  1
  Al0+  Al76  1  0.57134443  0.17915145  0.31787345  1
  Al0+  Al77  1  0.42567624  0.82130408  0.98392436  1
  Al0+  Al78  1  0.92722576  0.32237720  0.65139176  1
  Al0+  Al79  1  0.07280204  0.67892748  0.31549504  1
  Al0+  Al80  1  0.07462559  0.67970990  0.65347766  1
  Al0+  Al81  1  0.68018751  0.42961087  0.68165208  1
  Al0+  Al82  1  0.32150655  0.56805283  0.01453105  1
  Al0+  Al83  1  0.17567039  0.42621965  0.01380682  1
  Al0+  Al84  1  0.82060231  0.07080049  0.34986951  1
  Al0+  Al85  1  0.57121297  0.67760889  0.98447817  1
  Al0+  Al86  1  0.92830934  0.82252763  0.65197382  1
  Al0+  Al87  1  0.67833307  0.92766268  0.68100421  1
  Al0+  Al88  1  0.31956261  0.56994337  0.35047274  1
  Al0+  Al89  1  0.56977314  0.68075166  0.65174176  1
  Al0+  Al90  1  0.42802784  0.32357550  0.64975234  1
  Al0+  Al91  1  0.07006326  0.17953360  0.65264920  1
  Al0+  Al92  1  0.57060160  0.17703432  0.65330312  1
  Al0+  Al93  1  0.17915519  0.93079490  0.68011578  1
  Al0+  Al94  1  0.17977301  0.92948517  0.01523013  1
  Al0+  Al95  1  0.92896620  0.32185456  0.98786006  1
  Si0+  Si96  1  0.67990465  0.43021688  0.34800860  1
  Si0+  Si97  1  0.92884029  0.31983997  0.31829687  1
  Si0+  Si98  1  0.18075114  0.93108804  0.34936286  1
  Si0+  Si99  1  0.57392382  0.17751025  0.98368212  1
  Si0+  Si100  1  0.17591739  0.42636915  0.35248326  1
  Si0+  Si101  1  0.42803361  0.32258553  0.31516368  1
  Si0+  Si102  1  0.42765513  0.82242498  0.65061218  1
  Si0+  Si103  1  0.32139953  0.57092737  0.68302213  1
  Si0+  Si104  1  0.82106749  0.57293844  0.01473489  1
  Si0+  Si105  1  0.32166909  0.07487392  0.68195504  1
  Si0+  Si106  1  0.32487645  0.07214626  0.01680414  1
  Si0+  Si107  1  0.67679244  0.92474270  0.01657519  1
  Si0+  Si108  1  0.32309229  0.07274724  0.34753575  1
  Si0+  Si109  1  0.17834404  0.42909245  0.67996128  1
  Si0+  Si110  1  0.68015515  0.42894066  0.01559281  1
  Si0+  Si111  1  0.82148718  0.07219847  0.68459889  1
  Si0+  Si112  1  0.07155279  0.17760777  0.98624137  1
  Si0+  Si113  1  0.07274093  0.17942752  0.31690091  1
  Si0+  Si114  1  0.82161049  0.57248969  0.34733396  1
  Si0+  Si115  1  0.07151903  0.67767483  0.98527556  1
  Si0+  Si116  1  0.57037457  0.67676531  0.31955232  1
  Si0+  Si117  1  0.42930147  0.82063533  0.32059964  1
  Si0+  Si118  1  0.82375877  0.57199961  0.68259752  1
  Si0+  Si119  1  0.67649485  0.92741078  0.34769589  1
  O2-  O120  1  0.25931332  0.00034066  0.06200867  1
  O2-  O121  1  0.25171650  0.00290153  0.39083207  1
  O2-  O122  1  0.25209455  0.00771889  0.72674350  1
  O2-  O123  1  0.24738411  0.49790640  0.06517185  1
  O2-  O124  1  0.24315563  0.49655521  0.39674400  1
  O2-  O125  1  0.24898830  0.50010711  0.72260050  1
  O2-  O126  1  0.74308991  -0.00513965  0.06214746  1
  O2-  O127  1  0.74732098  -0.00689000  0.39289792  1
  O2-  O128  1  0.75354134  0.00204948  0.72763912  1
  O2-  O129  1  0.75002532  0.50133723  0.05783686  1
  O2-  O130  1  0.74976068  0.50252163  0.39009434  1
  O2-  O131  1  0.75787900  0.50127243  0.72884190  1
  O2-  O132  1  0.00187717  0.25104455  0.27580385  1
  O2-  O133  1  -0.00232884  0.24972899  0.60013268  1
  O2-  O134  1  0.00860221  0.25198149  0.94338488  1
  O2-  O135  1  0.00028075  0.75032633  0.26575538  1
  O2-  O136  1  0.00193598  0.75116081  0.60386890  1
  O2-  O137  1  0.00653076  0.74866503  0.93987083  1
  O2-  O138  1  0.49539982  0.25264711  0.27114921  1
  O2-  O139  1  0.49906142  0.24923754  0.60212284  1
  O2-  O140  1  0.49966651  0.24004142  0.94085986  1
  O2-  O141  1  0.50113442  0.74979421  0.27920067  1
  O2-  O142  1  0.49836411  0.75765412  0.60323496  1
  O2-  O143  1  0.50057171  0.75163359  0.93560494  1
  O2-  O144  1  0.06936205  0.17673515  0.09253415  1
  O2-  O145  1  0.07449054  0.17959316  0.42158520  1
  O2-  O146  1  0.07003604  0.18060251  0.76623558  1
  O2-  O147  1  0.06833866  0.67810763  0.09096005  1
  O2-  O148  1  0.07253164  0.68296399  0.42882422  1
  O2-  O149  1  0.07440112  0.67864625  0.76715987  1
  O2-  O150  1  0.57504704  0.18144278  0.08988725  1
  O2-  O151  1  0.57026604  0.17934747  0.43036526  1
  O2-  O152  1  0.56845828  0.17856848  0.76691045  1
  O2-  O153  1  0.57075897  0.67737496  0.09926636  1
  O2-  O154  1  0.57105992  0.67609091  0.42446769  1
  O2-  O155  1  0.56716906  0.67858673  0.76404568  1
  O2-  O156  1  0.17679284  0.42377955  0.24716433  1
  O2-  O157  1  0.17928056  0.42872586  0.57473934  1
  O2-  O158  1  0.17528157  0.42830129  0.89996079  1
  O2-  O159  1  0.18211876  0.93180885  0.24409605  1
  O2-  O160  1  0.18251358  0.93118404  0.56631128  1
  O2-  O161  1  0.17754273  0.93263005  0.90250534  1
  O2-  O162  1  0.68011361  0.43126531  0.24237529  1
  O2-  O163  1  0.68097644  0.43214851  0.56768216  1
  O2-  O164  1  0.68048022  0.42756524  0.91099143  1
  O2-  O165  1  0.67398453  0.92848386  0.24229661  1
  O2-  O166  1  0.67897954  0.92878436  0.56729487  1
  O2-  O167  1  0.67860799  0.92541143  0.91120563  1
  O2-  O168  1  0.43352525  0.31779747  0.10157467  1
  O2-  O169  1  0.42917975  0.32273931  0.42032897  1
  O2-  O170  1  0.42726600  0.32296420  0.76352270  1
  O2-  O171  1  0.42795046  0.81925690  0.09867982  1
  O2-  O172  1  0.42984985  0.82245632  0.42565146  1
  O2-  O173  1  0.42599362  0.81873807  0.75556455  1
  O2-  O174  1  0.92672116  0.31893717  0.10168434  1
  O2-  O175  1  0.92825513  0.31963154  0.42296408  1
  O2-  O176  1  0.92902614  0.32133398  0.76496108  1
  O2-  O177  1  0.93242899  0.82231116  0.09885159  1
  O2-  O178  1  0.92917204  0.82177037  0.42942827  1
  O2-  O179  1  0.93018897  0.82184305  0.76573229  1
  O2-  O180  1  0.32201348  0.07279932  0.24250100  1
  O2-  O181  1  0.32193567  0.07093606  0.57561914  1
  O2-  O182  1  0.32261681  0.07540913  0.91169738  1
  O2-  O183  1  0.32340335  0.56784721  0.23792531  1
  O2-  O184  1  0.32093905  0.57123818  0.57747112  1
  O2-  O185  1  0.32153206  0.56589990  0.90088362  1
  O2-  O186  1  0.81942272  0.07321812  0.23661928  1
  O2-  O187  1  0.82062093  0.07165378  0.57870064  1
  O2-  O188  1  0.81693138  0.07117093  0.90081696  1
  O2-  O189  1  0.81951368  0.57085754  0.24183466  1
  O2-  O190  1  0.82024012  0.57051840  0.57637788  1
  O2-  O191  1  0.82242017  0.57258882  0.91014272  1
  O2-  O192  1  0.04421224  0.08802063  0.27001292  1
  O2-  O193  1  0.04258402  0.08235516  0.59718847  1
  O2-  O194  1  0.03832056  0.08707353  0.93995713  1
  O2-  O195  1  0.04633872  0.57856854  0.26544376  1
  O2-  O196  1  0.04913051  0.58270438  0.59633384  1
  O2-  O197  1  0.04257946  0.58507791  0.93943478  1
  O2-  O198  1  0.54120570  0.08307577  0.26172657  1
  O2-  O199  1  0.54165818  0.07905926  0.59862729  1
  O2-  O200  1  0.55638273  0.08091080  0.94182496  1
  O2-  O201  1  0.54016087  0.58512270  0.27296218  1
  O2-  O202  1  0.53666475  0.58623058  0.59553474  1
  O2-  O203  1  0.54246782  0.57930641  0.93265396  1
  O2-  O204  1  0.16507675  0.20598009  0.26876160  1
  O2-  O205  1  0.16695595  0.20786602  0.59584539  1
  O2-  O206  1  0.16726880  0.19399878  0.94223689  1
  O2-  O207  1  0.17218922  0.70833007  0.26490595  1
  O2-  O208  1  0.17254692  0.71045709  0.60039505  1
  O2-  O209  1  0.16722685  0.69859129  0.94359199  1
  O2-  O210  1  0.66700694  0.21371856  0.26390857  1
  O2-  O211  1  0.66777269  0.20690685  0.59953405  1
  O2-  O212  1  0.66457753  0.20965219  0.93731539  1
  O2-  O213  1  0.66241638  0.70070222  0.27066821  1
  O2-  O214  1  0.66661082  0.70820453  0.59673439  1
  O2-  O215  1  0.66945772  0.70313634  0.93050126  1
  O2-  O216  1  0.07642607  0.45306933  0.06743459  1
  O2-  O217  1  0.08073567  0.44918896  0.39695975  1
  O2-  O218  1  0.08556465  0.45642019  0.72586752  1
  O2-  O219  1  0.08664983  0.96581347  0.07298710  1
  O2-  O220  1  0.08940578  0.96053755  0.39571191  1
  O2-  O221  1  0.08227818  0.96192075  0.73342321  1
  O2-  O222  1  0.58914682  0.45647912  0.06490448  1
  O2-  O223  1  0.58793736  0.45646865  0.39534423  1
  O2-  O224  1  0.58365221  0.46424135  0.73365363  1
  O2-  O225  1  0.58107521  0.94694249  0.06098966  1
  O2-  O226  1  0.58308126  0.95494524  0.39413575  1
  O2-  O227  1  0.58133690  0.95706956  0.73588155  1
  O2-  O228  1  0.20267336  0.32694452  0.06723294  1
  O2-  O229  1  0.20357840  0.33268237  0.39876477  1
  O2-  O230  1  0.20575799  0.33669661  0.72630857  1
  O2-  O231  1  0.20827064  0.83295189  0.07128435  1
  O2-  O232  1  0.21017511  0.83974877  0.39602648  1
  O2-  O233  1  0.21220018  0.83558950  0.73557461  1
  O2-  O234  1  0.71045441  0.33858452  0.06523657  1
  O2-  O235  1  0.70987604  0.33908418  0.39465969  1
  O2-  O236  1  0.70712359  0.33224805  0.73603700  1
  O2-  O237  1  0.70282571  0.83059931  0.06169731  1
  O2-  O238  1  0.69897828  0.83139185  0.39144675  1
  O2-  O239  1  0.70801252  0.83010943  0.73384341  1
  O2-  O240  1  0.45747540  0.41573849  0.27016616  1
  O2-  O241  1  0.46031380  0.41980805  0.59561260  1
  O2-  O242  1  0.46275507  0.41193644  0.93314396  1
  O2-  O243  1  0.45456467  0.91164594  0.27018329  1
  O2-  O244  1  0.44870508  0.91795476  0.60708238  1
  O2-  O245  1  0.44799071  0.92155666  0.93206440  1
  O2-  O246  1  0.95341976  0.41271949  0.27092279  1
  O2-  O247  1  0.95597820  0.41969194  0.59635264  1
  O2-  O248  1  0.95205247  0.41991785  0.93373813  1
  O2-  O249  1  0.95971915  0.92231486  0.26642620  1
  O2-  O250  1  0.95602758  0.92053648  0.59929263  1
  O2-  O251  1  0.96272926  0.92000517  0.93420550  1
  O2-  O252  1  0.33325206  0.29825642  0.27078870  1
  O2-  O253  1  0.33076202  0.29830030  0.59342433  1
  O2-  O254  1  0.33079050  0.29025294  0.93506677  1
  O2-  O255  1  0.33812204  0.79076042  0.27401210  1
  O2-  O256  1  0.33590928  0.79333376  0.60262743  1
  O2-  O257  1  0.32726320  0.79107774  0.93281964  1
  O2-  O258  1  0.83753488  0.29064509  0.27093494  1
  O2-  O259  1  0.82884335  0.29533095  0.59857025  1
  O2-  O260  1  0.83387700  0.28658824  0.93404925  1
  O2-  O261  1  0.82968753  0.79478306  0.26305701  1
  O2-  O262  1  0.83145506  0.79300388  0.59733579  1
  O2-  O263  1  0.83476790  0.79267483  0.93309579  1
  O2-  O264  1  0.42050931  0.05015764  0.06175087  1
  O2-  O265  1  0.41496763  0.04291102  0.39382228  1
  O2-  O266  1  0.41448136  0.05072890  0.72947958  1
  O2-  O267  1  0.41957983  0.53578296  0.06823084  1
  O2-  O268  1  0.41589946  0.53773524  0.40610383  1
  O2-  O269  1  0.41299227  0.54160241  0.72851057  1
  O2-  O270  1  0.91367813  0.03979003  0.06996606  1
  O2-  O271  1  0.91870467  0.04423610  0.40350698  1
  O2-  O272  1  0.91558153  0.04809628  0.72971529  1
  O2-  O273  1  0.91108982  0.54427705  0.06553541  1
  O2-  O274  1  0.91346869  0.54369725  0.39376312  1
  O2-  O275  1  0.91954308  0.54984673  0.72557227  1
  O2-  O276  1  0.29647497  0.16323831  0.06758024  1
  O2-  O277  1  0.29688170  0.16539826  0.39428439  1
  O2-  O278  1  0.29664645  0.17043390  0.72383153  1
  O2-  O279  1  0.29609753  0.66642642  0.06952888  1
  O2-  O280  1  0.29148917  0.66740960  0.40539856  1
  O2-  O281  1  0.29536606  0.66283186  0.73049981  1
  O2-  O282  1  0.78641370  0.16572264  0.07012787  1
  O2-  O283  1  0.78733402  0.16700107  0.40358825  1
  O2-  O284  1  0.79453038  0.16582438  0.72957395  1
  O2-  O285  1  0.79141381  0.66400619  0.06359716  1
  O2-  O286  1  0.79413893  0.66492410  0.39342610  1
  O2-  O287  1  0.79505178  0.66470262  0.72776763  1
