# generated using pymatgen
data_Ca2Al2SiO7
_symmetry_space_group_name_H-M   'P 1'
_cell_length_a   15.45546685
_cell_length_b   15.45527030
_cell_length_c   15.28219046
_cell_angle_alpha   90.00639395
_cell_angle_beta   90.00763812
_cell_angle_gamma   89.99891884
_symmetry_Int_Tables_number   1
_chemical_formula_structural   Ca2Al2SiO7
_chemical_formula_sum   'Ca48 Al48 Si24 O168'
_cell_volume   3650.43259945
_cell_formula_units_Z   24
loop_
 _symmetry_equiv_pos_site_id
 _symmetry_equiv_pos_as_xyz
  1  'x, y, z'
loop_
 _atom_type_symbol
 _atom_type_oxidation_number
  Ca2+  2.0
  Al0+  0.0
  Si0+  0.0
  O2-  -2.0
loop_
 _atom_site_type_symbol
 _atom_site_label
 _atom_site_symmetry_multiplicity
 _atom_site_fract_x
 _atom_site_fract_y
 _atom_site_fract_z
 _atom_site_occupancy
  Ca2+  Ca0  1  0.16302020  0.07320029  0.17444279  1
  Ca2+  Ca1  1  0.16936911  0.08050906  0.50700647  1
  Ca2+  Ca2  1  0.16522773  0.07831223  0.83226493  1
  Ca2+  Ca3  1  0.17096851  0.57649145  0.17765373  1
  Ca2+  Ca4  1  0.17488894  0.57597631  0.49654050  1
  Ca2+  Ca5  1  0.16753377  0.58509009  0.83993766  1
  Ca2+  Ca6  1  0.66420229  0.08344915  0.16860341  1
  Ca2+  Ca7  1  0.65736852  0.07319456  0.50230777  1
  Ca2+  Ca8  1  0.66875041  0.07389307  0.84483400  1
  Ca2+  Ca9  1  0.67357288  0.58439566  0.17747350  1
  Ca2+  Ca10  1  0.66677034  0.58224664  0.50121098  1
  Ca2+  Ca11  1  0.66666870  0.57449787  0.83353111  1
  Ca2+  Ca12  1  0.08190456  0.32950882  0.16451550  1
  Ca2+  Ca13  1  0.09055082  0.32007341  0.49342633  1
  Ca2+  Ca14  1  0.07359715  0.32634554  0.82753010  1
  Ca2+  Ca15  1  0.08875555  0.82853870  0.15994143  1
  Ca2+  Ca16  1  0.07767219  0.84373331  0.49644566  1
  Ca2+  Ca17  1  0.08239873  0.83717327  0.82844684  1
  Ca2+  Ca18  1  0.57503745  0.32497160  0.16002118  1
  Ca2+  Ca19  1  0.57476042  0.32938769  0.49167856  1
  Ca2+  Ca20  1  0.57654630  0.32670543  0.82731470  1
  Ca2+  Ca21  1  0.58309731  0.83529964  0.16947384  1
  Ca2+  Ca22  1  0.57899025  0.83385271  0.48699409  1
  Ca2+  Ca23  1  0.59106087  0.83500099  0.82911185  1
  Ca2+  Ca24  1  0.33365158  0.41824995  0.17579926  1
  Ca2+  Ca25  1  0.33913219  0.41517534  0.50024510  1
  Ca2+  Ca26  1  0.33653740  0.41302229  0.83534407  1
  Ca2+  Ca27  1  0.32346619  0.91347114  0.17509001  1
  Ca2+  Ca28  1  0.32582765  0.92239679  0.50549624  1
  Ca2+  Ca29  1  0.32519422  0.92701051  0.83677310  1
  Ca2+  Ca30  1  0.83747071  0.42199515  0.17327154  1
  Ca2+  Ca31  1  0.82648680  0.42442400  0.50296121  1
  Ca2+  Ca32  1  0.82752846  0.40914007  0.83787151  1
  Ca2+  Ca33  1  0.82210577  0.92337752  0.16990258  1
  Ca2+  Ca34  1  0.82199670  0.91397159  0.50503869  1
  Ca2+  Ca35  1  0.82787514  0.92123357  0.83847930  1
  Ca2+  Ca36  1  0.42567916  0.17361958  0.16410947  1
  Ca2+  Ca37  1  0.41573732  0.17389782  0.49226670  1
  Ca2+  Ca38  1  0.41540085  0.17277309  0.82931836  1
  Ca2+  Ca39  1  0.41522071  0.66987547  0.17133940  1
  Ca2+  Ca40  1  0.42250908  0.67334105  0.48789435  1
  Ca2+  Ca41  1  0.41903143  0.67172562  0.83020161  1
  Ca2+  Ca42  1  0.91921047  0.16853415  0.16242023  1
  Ca2+  Ca43  1  0.93052601  0.16089463  0.49653991  1
  Ca2+  Ca44  1  0.91797906  0.16338062  0.83246507  1
  Ca2+  Ca45  1  0.92319745  0.66556437  0.16128621  1
  Ca2+  Ca46  1  0.91327019  0.67285789  0.49665325  1
  Ca2+  Ca47  1  0.92556903  0.67510744  0.82858626  1
  Al0+  Al48  1  -0.00177868  -0.00104345  0.00841515  1
  Al0+  Al49  1  -0.00229740  0.00016211  0.33083199  1
  Al0+  Al50  1  -0.00155137  -0.00148725  0.66168290  1
  Al0+  Al51  1  0.00099379  0.49983516  -0.01050525  1
  Al0+  Al52  1  0.00025227  0.50085628  0.34572457  1
  Al0+  Al53  1  0.00120803  0.50165023  0.66545307  1
  Al0+  Al54  1  0.49796808  -0.00097312  0.00031661  1
  Al0+  Al55  1  0.49801049  0.00009867  0.32840299  1
  Al0+  Al56  1  0.49838950  0.00008595  0.67657625  1
  Al0+  Al57  1  0.50008312  0.50151612  -0.00276167  1
  Al0+  Al58  1  0.50139285  0.50205342  0.32922363  1
  Al0+  Al59  1  0.50104559  0.50007877  0.66803002  1
  Al0+  Al60  1  0.24920944  0.25010139  -0.00296632  1
  Al0+  Al61  1  0.24829838  0.24790936  0.32529423  1
  Al0+  Al62  1  0.25002407  0.25187679  0.66421272  1
  Al0+  Al63  1  0.25169829  0.74845471  -0.00161063  1
  Al0+  Al64  1  0.24821665  0.74826575  0.34002803  1
  Al0+  Al65  1  0.25062776  0.74801379  0.66901306  1
  Al0+  Al66  1  0.74949641  0.24924842  -0.00274643  1
  Al0+  Al67  1  0.75290757  0.25027637  0.33223788  1
  Al0+  Al68  1  0.74922424  0.25062529  0.66833664  1
  Al0+  Al69  1  0.75040934  0.74949187  0.00199599  1
  Al0+  Al70  1  0.75054624  0.75157973  0.33659751  1
  Al0+  Al71  1  0.75307794  0.74837264  0.66817973  1
  Al0+  Al72  1  0.42863784  0.32203263  0.31733988  1
  Al0+  Al73  1  0.93076649  0.81921304  0.65238222  1
  Al0+  Al74  1  0.17718918  0.92814515  0.34780315  1
  Al0+  Al75  1  0.32023642  0.07437851  0.68180147  1
  Al0+  Al76  1  0.57363195  0.17783995  0.31908892  1
  Al0+  Al77  1  0.82166707  0.57232196  0.34704933  1
  Al0+  Al78  1  0.43110573  0.32080210  0.65126943  1
  Al0+  Al79  1  0.17729136  0.92862936  0.68136419  1
  Al0+  Al80  1  0.17990153  0.42591951  0.34799915  1
  Al0+  Al81  1  0.57028352  0.17716107  0.98229389  1
  Al0+  Al82  1  0.67679152  0.92680746  0.01773782  1
  Al0+  Al83  1  0.07030232  0.17757732  0.31782616  1
  Al0+  Al84  1  0.57331792  0.68050894  0.31882363  1
  Al0+  Al85  1  0.67855191  0.93280478  0.34697365  1
  Al0+  Al86  1  0.06830233  0.18081271  0.65393898  1
  Al0+  Al87  1  0.07223701  0.67993246  0.98756380  1
  Al0+  Al88  1  0.42559232  0.82099739  0.31961861  1
  Al0+  Al89  1  0.18054174  0.92907182  0.01423900  1
  Al0+  Al90  1  0.67942144  0.42978998  0.67997572  1
  Al0+  Al91  1  0.32361658  0.56986256  0.34868536  1
  Al0+  Al92  1  0.92993250  0.32104793  0.98706080  1
  Al0+  Al93  1  0.67885251  0.92835190  0.67985939  1
  Al0+  Al94  1  0.42852285  0.32264301  0.98261699  1
  Al0+  Al95  1  0.82020056  0.07314876  0.01661297  1
  Si0+  Si96  1  0.92780971  0.82149847  0.98518702  1
  Si0+  Si97  1  0.82392498  0.57160698  0.68673145  1
  Si0+  Si98  1  0.07093189  0.17499649  0.98375979  1
  Si0+  Si99  1  0.32061909  0.07105023  0.34719601  1
  Si0+  Si100  1  0.82212909  0.56900336  0.01232432  1
  Si0+  Si101  1  0.67828905  0.43033162  0.01476462  1
  Si0+  Si102  1  0.17872883  0.42928388  0.68330973  1
  Si0+  Si103  1  0.67871538  0.42695758  0.34723681  1
  Si0+  Si104  1  0.82213691  0.07164837  0.68116261  1
  Si0+  Si105  1  0.92518724  0.32471626  0.64788113  1
  Si0+  Si106  1  0.42891305  0.82184038  0.65448009  1
  Si0+  Si107  1  0.32085592  0.07423442  0.01878803  1
  Si0+  Si108  1  0.06889414  0.67848984  0.32134357  1
  Si0+  Si109  1  0.32208886  0.57040825  0.01456132  1
  Si0+  Si110  1  0.57058755  0.68010940  0.65367890  1
  Si0+  Si111  1  0.57354984  0.67968719  0.98363115  1
  Si0+  Si112  1  0.32161708  0.56996939  0.68351301  1
  Si0+  Si113  1  0.17781041  0.42988471  0.01137800  1
  Si0+  Si114  1  0.82226238  0.07409194  0.35180446  1
  Si0+  Si115  1  0.07551782  0.67624411  0.64599589  1
  Si0+  Si116  1  0.93003038  0.32433301  0.31992923  1
  Si0+  Si117  1  0.92813855  0.82086851  0.31650376  1
  Si0+  Si118  1  0.57271173  0.17583100  0.65128411  1
  Si0+  Si119  1  0.42807349  0.81929126  0.98390032  1
  O2-  O120  1  0.25158974  0.00582255  0.06286778  1
  O2-  O121  1  0.25255493  0.00232296  0.39274090  1
  O2-  O122  1  0.24841911  0.00115593  0.73137210  1
  O2-  O123  1  0.25320395  0.49609428  0.05385168  1
  O2-  O124  1  0.25730195  0.49236256  0.39881831  1
  O2-  O125  1  0.24863747  0.50125738  0.72652875  1
  O2-  O126  1  0.74559586  0.00297497  0.06566749  1
  O2-  O127  1  0.74896324  0.01036644  0.39584496  1
  O2-  O128  1  0.74987027  0.00674702  0.72547310  1
  O2-  O129  1  0.75157395  0.49917480  0.05698252  1
  O2-  O130  1  0.74504640  0.49838242  0.39144895  1
  O2-  O131  1  0.75867248  0.49910165  0.72993422  1
  O2-  O132  1  -0.00267302  0.25554156  0.27411491  1
  O2-  O133  1  -0.00630609  0.25558862  0.60514046  1
  O2-  O134  1  0.00168590  0.24357469  0.93998878  1
  O2-  O135  1  0.00109977  0.75082242  0.27583814  1
  O2-  O136  1  0.00815806  0.74723672  0.60394329  1
  O2-  O137  1  0.00037469  0.75696638  0.94061514  1
  O2-  O138  1  0.50397550  0.25254979  0.26949255  1
  O2-  O139  1  0.50437566  0.24433479  0.60620000  1
  O2-  O140  1  0.49810125  0.24899987  0.93185050  1
  O2-  O141  1  0.49907432  0.75015027  0.26852114  1
  O2-  O142  1  0.50474782  0.75582629  0.61247158  1
  O2-  O143  1  0.50539697  0.75392988  0.94175750  1
  O2-  O144  1  0.07103599  0.17721220  0.08916426  1
  O2-  O145  1  0.06905546  0.17659342  0.43115503  1
  O2-  O146  1  0.06549329  0.18223196  0.76740406  1
  O2-  O147  1  0.07024411  0.67712726  0.10085390  1
  O2-  O148  1  0.06653741  0.67870896  0.42627302  1
  O2-  O149  1  0.07425546  0.67391500  0.75200653  1
  O2-  O150  1  0.56941368  0.18132400  0.09566743  1
  O2-  O151  1  0.57182532  0.17820640  0.43323684  1
  O2-  O152  1  0.57317041  0.17799123  0.75657564  1
  O2-  O153  1  0.57446776  0.67594365  0.08787665  1
  O2-  O154  1  0.57381858  0.68313023  0.43309852  1
  O2-  O155  1  0.56814704  0.67893151  0.75949659  1
  O2-  O156  1  0.17488708  0.43122044  0.23384562  1
  O2-  O157  1  0.17929185  0.42964660  0.57871174  1
  O2-  O158  1  0.17711566  0.43299966  0.90597034  1
  O2-  O159  1  0.17783589  0.92724668  0.23429328  1
  O2-  O160  1  0.17945917  0.93006445  0.56797399  1
  O2-  O161  1  0.18174522  0.92926147  0.90127175  1
  O2-  O162  1  0.68261396  0.42709665  0.24138154  1
  O2-  O163  1  0.67931821  0.43481696  0.56709779  1
  O2-  O164  1  0.67824732  0.43386100  0.90939277  1
  O2-  O165  1  0.68243216  0.93082857  0.23457972  1
  O2-  O166  1  0.67795921  0.92680780  0.56687727  1
  O2-  O167  1  0.68284008  0.92392380  0.90375009  1
  O2-  O168  1  0.43050596  0.32614934  0.09548531  1
  O2-  O169  1  0.43048443  0.31970248  0.43129028  1
  O2-  O170  1  0.43265524  0.32251435  0.76413480  1
  O2-  O171  1  0.42337719  0.81438171  0.08834615  1
  O2-  O172  1  0.42745214  0.82095633  0.43386692  1
  O2-  O173  1  0.42797505  0.81733826  0.75996622  1
  O2-  O174  1  0.93525281  0.32783664  0.09980260  1
  O2-  O175  1  0.92921222  0.32350570  0.42546126  1
  O2-  O176  1  0.92696102  0.32514703  0.75378666  1
  O2-  O177  1  0.92626496  0.81688701  0.09070654  1
  O2-  O178  1  0.92776970  0.82013349  0.42175944  1
  O2-  O179  1  0.93045517  0.81672367  0.76577689  1
  O2-  O180  1  0.31830924  0.06951244  0.24149711  1
  O2-  O181  1  0.32116822  0.07309800  0.56810777  1
  O2-  O182  1  0.31906548  0.07339558  0.91302381  1
  O2-  O183  1  0.31775095  0.57195847  0.23464016  1
  O2-  O184  1  0.32285895  0.57040134  0.57915315  1
  O2-  O185  1  0.32174492  0.57264681  0.90893957  1
  O2-  O186  1  0.82463278  0.07218748  0.24648894  1
  O2-  O187  1  0.82267689  0.06984342  0.57562562  1
  O2-  O188  1  0.82263494  0.06897828  0.90249385  1
  O2-  O189  1  0.82477258  0.56954754  0.23318769  1
  O2-  O190  1  0.82190330  0.57332974  0.58127702  1
  O2-  O191  1  0.81980378  0.56900189  0.90730340  1
  O2-  O192  1  0.03469572  0.08297020  0.26246628  1
  O2-  O193  1  0.03809320  0.08491042  0.59863221  1
  O2-  O194  1  0.04385499  0.08080311  0.93965120  1
  O2-  O195  1  0.03833424  0.58651276  0.27552987  1
  O2-  O196  1  0.04724647  0.58321810  0.59991453  1
  O2-  O197  1  0.03897604  0.58706653  0.92730281  1
  O2-  O198  1  0.54279318  0.08172243  0.26386844  1
  O2-  O199  1  0.54588721  0.08074356  0.60882078  1
  O2-  O200  1  0.54315141  0.07691507  0.93175175  1
  O2-  O201  1  0.55036131  0.58165379  0.26455982  1
  O2-  O202  1  0.53762071  0.59071614  0.60572272  1
  O2-  O203  1  0.54126222  0.59002633  0.93361386  1
  O2-  O204  1  0.16510954  0.20484638  0.25982924  1
  O2-  O205  1  0.16399353  0.21360610  0.59989901  1
  O2-  O206  1  0.16392407  0.20117150  0.93719633  1
  O2-  O207  1  0.16155727  0.70327110  0.27489104  1
  O2-  O208  1  0.17100660  0.69806152  0.60281390  1
  O2-  O209  1  0.16908068  0.70768667  0.93184989  1
  O2-  O210  1  0.67393344  0.20358194  0.26775968  1
  O2-  O211  1  0.66720958  0.19986485  0.60605698  1
  O2-  O212  1  0.66915438  0.20515739  0.93036738  1
  O2-  O213  1  0.67148812  0.71079506  0.26566563  1
  O2-  O214  1  0.66530958  0.70049860  0.60997334  1
  O2-  O215  1  0.66619712  0.70431491  0.93509976  1
  O2-  O216  1  0.08740064  0.46309705  0.05783356  1
  O2-  O217  1  0.08584376  0.45976061  0.40682407  1
  O2-  O218  1  0.08575655  0.45686677  0.72978899  1
  O2-  O219  1  0.08258904  0.95283244  0.06855392  1
  O2-  O220  1  0.07950751  0.96056087  0.39838232  1
  O2-  O221  1  0.07780798  0.95708581  0.73225106  1
  O2-  O222  1  0.58760819  0.46234581  0.06151884  1
  O2-  O223  1  0.58484461  0.45155244  0.39215004  1
  O2-  O224  1  0.58599838  0.46740851  0.73685106  1
  O2-  O225  1  0.57520758  0.94902145  0.06590530  1
  O2-  O226  1  0.57935239  0.95906123  0.39870025  1
  O2-  O227  1  0.58235057  0.95322380  0.73667524  1
  O2-  O228  1  0.19897855  0.33573511  0.05684953  1
  O2-  O229  1  0.20377523  0.32485308  0.39671008  1
  O2-  O230  1  0.20687723  0.33858612  0.73172117  1
  O2-  O231  1  0.21485993  0.83169202  0.06579969  1
  O2-  O232  1  0.20363276  0.83168092  0.40303978  1
  O2-  O233  1  0.20495332  0.82863166  0.73259287  1
  O2-  O234  1  0.70359945  0.33757163  0.05939519  1
  O2-  O235  1  0.70691281  0.33505317  0.39570823  1
  O2-  O236  1  0.70616541  0.33214632  0.73494234  1
  O2-  O237  1  0.70849043  0.82833037  0.06983244  1
  O2-  O238  1  0.71338047  0.83755925  0.40143609  1
  O2-  O239  1  0.71273284  0.83181102  0.73325505  1
  O2-  O240  1  0.45326098  0.42183834  0.26597026  1
  O2-  O241  1  0.46439186  0.41802993  0.59927938  1
  O2-  O242  1  0.45818726  0.42188112  0.92993619  1
  O2-  O243  1  0.45117334  0.91831861  0.26438508  1
  O2-  O244  1  0.45175134  0.91604081  0.61064160  1
  O2-  O245  1  0.44830602  0.91330428  0.93826698  1
  O2-  O246  1  0.95721527  0.41881424  0.27613532  1
  O2-  O247  1  0.95096825  0.41944005  0.60424775  1
  O2-  O248  1  0.96261041  0.41410271  0.92599789  1
  O2-  O249  1  0.95410693  0.91243976  0.26869235  1
  O2-  O250  1  0.95662864  0.91521725  0.59529843  1
  O2-  O251  1  0.95101303  0.91656848  0.94178816  1
  O2-  O252  1  0.33135811  0.29288732  0.26290474  1
  O2-  O253  1  0.33291778  0.29479963  0.59905746  1
  O2-  O254  1  0.32790247  0.29689604  0.93126941  1
  O2-  O255  1  0.32746066  0.78737253  0.26767335  1
  O2-  O256  1  0.33855024  0.78945230  0.60720970  1
  O2-  O257  1  0.34077650  0.78338335  0.93232520  1
  O2-  O258  1  0.83680331  0.30124044  0.27188874  1
  O2-  O259  1  0.83049703  0.30149944  0.60338111  1
  O2-  O260  1  0.83277388  0.29377426  0.93260006  1
  O2-  O261  1  0.83802399  0.78983245  0.26896685  1
  O2-  O262  1  0.83519818  0.78334392  0.59764414  1
  O2-  O263  1  0.83619247  0.79075378  0.93722441  1
  O2-  O264  1  0.41435116  0.04747919  0.06311467  1
  O2-  O265  1  0.41414549  0.04697723  0.39351424  1
  O2-  O266  1  0.41625657  0.04485839  0.73959672  1
  O2-  O267  1  0.41501177  0.54580932  0.06120564  1
  O2-  O268  1  0.42496376  0.54931448  0.39950216  1
  O2-  O269  1  0.41256235  0.54123146  0.73264518  1
  O2-  O270  1  0.91706802  0.04360715  0.07269647  1
  O2-  O271  1  0.91312060  0.04029778  0.39855146  1
  O2-  O272  1  0.91352578  0.04096920  0.72844660  1
  O2-  O273  1  0.91497081  0.54004200  0.05723466  1
  O2-  O274  1  0.91433718  0.54138602  0.40817746  1
  O2-  O275  1  0.91986035  0.55017986  0.73019992  1
  O2-  O276  1  0.29627994  0.16886785  0.06325114  1
  O2-  O277  1  0.29349810  0.16454329  0.39175708  1
  O2-  O278  1  0.28967143  0.17231059  0.73496801  1
  O2-  O279  1  0.29145730  0.66054529  0.06249279  1
  O2-  O280  1  0.28839249  0.66433662  0.40577554  1
  O2-  O281  1  0.29493891  0.66158220  0.73307899  1
  O2-  O282  1  0.79548722  0.17338653  0.06837184  1
  O2-  O283  1  0.80556423  0.17011906  0.39640966  1
  O2-  O284  1  0.80323224  0.16748313  0.72578723  1
  O2-  O285  1  0.79594524  0.66069210  0.06045868  1
  O2-  O286  1  0.79074186  0.66767438  0.40303225  1
  O2-  O287  1  0.79415738  0.66282963  0.73516042  1
