# generated using pymatgen
data_Ca2Al2SiO7
_symmetry_space_group_name_H-M   'P 1'
_cell_length_a   15.46034542
_cell_length_b   15.45940010
_cell_length_c   15.28498791
_cell_angle_alpha   90.00335842
_cell_angle_beta   90.00689099
_cell_angle_gamma   89.97751076
_symmetry_Int_Tables_number   1
_chemical_formula_structural   Ca2Al2SiO7
_chemical_formula_sum   'Ca48 Al48 Si24 O168'
_cell_volume   3653.22896219
_cell_formula_units_Z   24
loop_
 _symmetry_equiv_pos_site_id
 _symmetry_equiv_pos_as_xyz
  1  'x, y, z'
loop_
 _atom_type_symbol
 _atom_type_oxidation_number
  Ca2+  2.0
  Al0+  0.0
  Si0+  0.0
  O2-  -2.0
loop_
 _atom_site_type_symbol
 _atom_site_label
 _atom_site_symmetry_multiplicity
 _atom_site_fract_x
 _atom_site_fract_y
 _atom_site_fract_z
 _atom_site_occupancy
  Ca2+  Ca0  1  0.15608033  0.07913786  0.16832663  1
  Ca2+  Ca1  1  0.16256671  0.08149261  0.50721954  1
  Ca2+  Ca2  1  0.15503252  0.07679382  0.83642207  1
  Ca2+  Ca3  1  0.16949745  0.57637681  0.17131311  1
  Ca2+  Ca4  1  0.17364610  0.59020864  0.50558833  1
  Ca2+  Ca5  1  0.16179544  0.57993670  0.83715351  1
  Ca2+  Ca6  1  0.67564824  0.08387929  0.17713722  1
  Ca2+  Ca7  1  0.66920318  0.08270407  0.50680571  1
  Ca2+  Ca8  1  0.66529512  0.07868516  0.83295876  1
  Ca2+  Ca9  1  0.66425682  0.57758130  0.16987631  1
  Ca2+  Ca10  1  0.67071731  0.58143212  0.51319714  1
  Ca2+  Ca11  1  0.67071113  0.57594807  0.83282267  1
  Ca2+  Ca12  1  0.07456688  0.32583892  0.15615541  1
  Ca2+  Ca13  1  0.07142856  0.32464219  0.49375425  1
  Ca2+  Ca14  1  0.07815694  0.32919045  0.82440528  1
  Ca2+  Ca15  1  0.07943949  0.83365283  0.15712604  1
  Ca2+  Ca16  1  0.08147475  0.83367027  0.50608501  1
  Ca2+  Ca17  1  0.07510585  0.83532455  0.82609456  1
  Ca2+  Ca18  1  0.58807286  0.32834220  0.16451921  1
  Ca2+  Ca19  1  0.59500814  0.32281354  0.49997489  1
  Ca2+  Ca20  1  0.58858291  0.33294905  0.82728086  1
  Ca2+  Ca21  1  0.57105915  0.82796051  0.16263597  1
  Ca2+  Ca22  1  0.58638300  0.82267756  0.49494000  1
  Ca2+  Ca23  1  0.57877995  0.83004568  0.82375340  1
  Ca2+  Ca24  1  0.32477758  0.42017693  0.17205471  1
  Ca2+  Ca25  1  0.33533645  0.42402921  0.50243066  1
  Ca2+  Ca26  1  0.32490386  0.41906210  0.84134561  1
  Ca2+  Ca27  1  0.33010179  0.90980648  0.16832422  1
  Ca2+  Ca28  1  0.32910348  0.91483513  0.50545575  1
  Ca2+  Ca29  1  0.32068181  0.91475900  0.83895451  1
  Ca2+  Ca30  1  0.83165617  0.40739113  0.16787149  1
  Ca2+  Ca31  1  0.83325535  0.41940957  0.50923537  1
  Ca2+  Ca32  1  0.83065674  0.41451300  0.83550751  1
  Ca2+  Ca33  1  0.83778692  0.92523610  0.17291107  1
  Ca2+  Ca34  1  0.83047857  0.92400672  0.50948293  1
  Ca2+  Ca35  1  0.83199792  0.91063548  0.83461086  1
  Ca2+  Ca36  1  0.42671614  0.16119337  0.16611627  1
  Ca2+  Ca37  1  0.42940344  0.16510880  0.49862175  1
  Ca2+  Ca38  1  0.42229891  0.16989242  0.82746761  1
  Ca2+  Ca39  1  0.41457431  0.67175577  0.16861392  1
  Ca2+  Ca40  1  0.42878262  0.66907240  0.49106025  1
  Ca2+  Ca41  1  0.42127820  0.67173747  0.82920440  1
  Ca2+  Ca42  1  0.92231224  0.17286927  0.16440961  1
  Ca2+  Ca43  1  0.91968225  0.17410481  0.49423630  1
  Ca2+  Ca44  1  0.92626738  0.17797167  0.82891211  1
  Ca2+  Ca45  1  0.91667024  0.67578961  0.16069685  1
  Ca2+  Ca46  1  0.91498426  0.66971592  0.50418437  1
  Ca2+  Ca47  1  0.91885794  0.67484099  0.82278960  1
  Al0+  Al48  1  -0.00086711  -0.00020293  -0.00236537  1
  Al0+  Al49  1  -0.00144743  0.00082506  0.33770841  1
  Al0+  Al50  1  -0.00005041  0.00026207  0.66463789  1
  Al0+  Al51  1  -0.00125252  0.50075786  0.00386640  1
  Al0+  Al52  1  -0.00252262  0.49976801  0.33023163  1
  Al0+  Al53  1  0.00201610  0.50244799  0.66217173  1
  Al0+  Al54  1  0.49898476  -0.00231543  -0.00381775  1
  Al0+  Al55  1  0.49770270  -0.00182255  0.32586367  1
  Al0+  Al56  1  0.49914638  0.00280149  0.66786230  1
  Al0+  Al57  1  0.50236823  0.49870268  0.00568516  1
  Al0+  Al58  1  0.49913049  0.49912801  0.33407158  1
  Al0+  Al59  1  0.49947337  0.50209300  0.66875199  1
  Al0+  Al60  1  0.25346218  0.24823592  0.00269821  1
  Al0+  Al61  1  0.24943493  0.24670606  0.33271036  1
  Al0+  Al62  1  0.25189349  0.25150372  0.66217101  1
  Al0+  Al63  1  0.25161845  0.75146471  0.00072849  1
  Al0+  Al64  1  0.24945022  0.74840361  0.33510376  1
  Al0+  Al65  1  0.24905557  0.75269279  0.67005085  1
  Al0+  Al66  1  0.75162115  0.24892012  0.00056146  1
  Al0+  Al67  1  0.75115755  0.24885610  0.33074349  1
  Al0+  Al68  1  0.74994814  0.24966538  0.66480866  1
  Al0+  Al69  1  0.74840822  0.74860993  -0.00155743  1
  Al0+  Al70  1  0.74922035  0.74775504  0.32725106  1
  Al0+  Al71  1  0.74926386  0.75090987  0.66748514  1
  Al0+  Al72  1  0.07261387  0.17922988  0.65059132  1
  Al0+  Al73  1  0.57039984  0.17946749  0.31957388  1
  Al0+  Al74  1  0.17898151  0.93151663  0.01417115  1
  Al0+  Al75  1  0.68116408  0.42806238  0.01614128  1
  Al0+  Al76  1  0.92862315  0.32256811  0.65112398  1
  Al0+  Al77  1  0.42710904  0.81954348  0.31864929  1
  Al0+  Al78  1  0.17777675  0.42757496  0.01293926  1
  Al0+  Al79  1  0.07285050  0.67960598  0.65229254  1
  Al0+  Al80  1  0.57296731  0.67593089  0.31640414  1
  Al0+  Al81  1  0.42879697  0.82011392  0.98295815  1
  Al0+  Al82  1  0.07185097  0.17667570  0.31713649  1
  Al0+  Al83  1  0.57042491  0.17973459  0.65488418  1
  Al0+  Al84  1  0.31907447  0.56963031  0.34835263  1
  Al0+  Al85  1  0.92857915  0.32224790  0.98315855  1
  Al0+  Al86  1  0.67801273  0.92965022  0.67920552  1
  Al0+  Al87  1  0.82368166  0.57178812  0.68169275  1
  Al0+  Al88  1  0.92836020  0.82092850  0.98746673  1
  Al0+  Al89  1  0.92920348  0.32206343  0.31593691  1
  Al0+  Al90  1  0.81976351  0.07024856  0.34844992  1
  Al0+  Al91  1  0.67939731  0.42801369  0.68108599  1
  Al0+  Al92  1  0.56975440  0.67982041  0.65497248  1
  Al0+  Al93  1  0.07347741  0.17950721  0.98433726  1
  Al0+  Al94  1  0.92702709  0.82164568  0.65059940  1
  Al0+  Al95  1  0.17938484  0.93137097  0.68130365  1
  Si0+  Si96  1  0.32129218  0.57278650  0.68311578  1
  Si0+  Si97  1  0.82138725  0.57361270  0.34813221  1
  Si0+  Si98  1  0.18113459  0.42945410  0.67882291  1
  Si0+  Si99  1  0.57168886  0.17899944  0.98551222  1
  Si0+  Si100  1  0.82138473  0.57400829  0.01859556  1
  Si0+  Si101  1  0.92927128  0.82063463  0.31964621  1
  Si0+  Si102  1  0.42685553  0.32200839  0.31674488  1
  Si0+  Si103  1  0.17868121  0.92914079  0.34907557  1
  Si0+  Si104  1  0.32372790  0.07076837  0.34881347  1
  Si0+  Si105  1  0.57106563  0.67577855  0.98167061  1
  Si0+  Si106  1  0.07252941  0.67832464  0.98654340  1
  Si0+  Si107  1  0.68003115  0.42927745  0.34805959  1
  Si0+  Si108  1  0.17623893  0.42676610  0.35057445  1
  Si0+  Si109  1  0.81846135  0.06816735  0.01426223  1
  Si0+  Si110  1  0.67596850  0.92686264  0.01561275  1
  Si0+  Si111  1  0.82197666  0.07208938  0.68506460  1
  Si0+  Si112  1  0.32260699  0.57140161  0.01727373  1
  Si0+  Si113  1  0.32223911  0.07473361  0.68347970  1
  Si0+  Si114  1  0.42766160  0.32447038  0.65054170  1
  Si0+  Si115  1  0.67671531  0.92720259  0.34659908  1
  Si0+  Si116  1  0.42785845  0.82267157  0.65128784  1
  Si0+  Si117  1  0.32571322  0.07134952  0.01841512  1
  Si0+  Si118  1  0.43058044  0.32205278  0.98723024  1
  Si0+  Si119  1  0.07130826  0.67949040  0.31814642  1
  O2-  O120  1  0.25277758  0.00675348  0.06235331  1
  O2-  O121  1  0.25004933  0.00138695  0.38940319  1
  O2-  O122  1  0.25109586  0.00932354  0.72789570  1
  O2-  O123  1  0.25186817  0.50363712  0.05989720  1
  O2-  O124  1  0.24531234  0.49447082  0.39662634  1
  O2-  O125  1  0.25004636  0.50157668  0.72387806  1
  O2-  O126  1  0.74820443  -0.00389355  0.05806178  1
  O2-  O127  1  0.74361337  -0.00418184  0.39304116  1
  O2-  O128  1  0.75375258  0.00214499  0.72902780  1
  O2-  O129  1  0.75619076  0.50205329  0.06370019  1
  O2-  O130  1  0.74908328  0.50287297  0.38849340  1
  O2-  O131  1  0.75369475  0.49739682  0.73169187  1
  O2-  O132  1  0.00471423  0.25285016  0.26764780  1
  O2-  O133  1  -0.00083122  0.24927302  0.60118604  1
  O2-  O134  1  0.00793473  0.25759009  0.93486026  1
  O2-  O135  1  0.00010061  0.75015988  0.27607819  1
  O2-  O136  1  -0.00112166  0.74893483  0.60087307  1
  O2-  O137  1  0.00315958  0.74584276  0.94283129  1
  O2-  O138  1  0.49532779  0.25339622  0.27159973  1
  O2-  O139  1  0.49918559  0.25791678  0.60812488  1
  O2-  O140  1  0.50113112  0.25100047  0.94444419  1
  O2-  O141  1  0.50038244  0.74850853  0.26841957  1
  O2-  O142  1  0.49805258  0.75659747  0.60661321  1
  O2-  O143  1  0.50374806  0.74564815  0.93746266  1
  O2-  O144  1  0.06889500  0.17802003  0.09776867  1
  O2-  O145  1  0.07017001  0.17667920  0.43031014  1
  O2-  O146  1  0.07359659  0.18253259  0.76409233  1
  O2-  O147  1  0.07216065  0.68032161  0.09292023  1
  O2-  O148  1  0.07280233  0.68053231  0.42272338  1
  O2-  O149  1  0.07510555  0.68080115  0.76594950  1
  O2-  O150  1  0.57087699  0.17866571  0.09081180  1
  O2-  O151  1  0.56961615  0.17959348  0.43238871  1
  O2-  O152  1  0.56670791  0.17873692  0.76842208  1
  O2-  O153  1  0.57023619  0.67640800  0.08729267  1
  O2-  O154  1  0.57418033  0.67716570  0.42993642  1
  O2-  O155  1  0.56521051  0.67858220  0.76809724  1
  O2-  O156  1  0.17867057  0.42974473  0.24477424  1
  O2-  O157  1  0.18595263  0.42907409  0.57394092  1
  O2-  O158  1  0.18122360  0.42955820  0.89944081  1
  O2-  O159  1  0.17740091  0.92800261  0.24380530  1
  O2-  O160  1  0.18383248  0.92952182  0.56769598  1
  O2-  O161  1  0.17971459  0.93146516  0.90162811  1
  O2-  O162  1  0.68110105  0.42910315  0.24257240  1
  O2-  O163  1  0.67784790  0.42977037  0.56718933  1
  O2-  O164  1  0.67819068  0.42880157  0.90383163  1
  O2-  O165  1  0.68005844  0.92905937  0.24046631  1
  O2-  O166  1  0.67685061  0.93198846  0.56594124  1
  O2-  O167  1  0.67457312  0.92897290  0.91058866  1
  O2-  O168  1  0.43157668  0.32206549  0.09221942  1
  O2-  O169  1  0.42736080  0.32193068  0.42227393  1
  O2-  O170  1  0.42376355  0.32318365  0.75645445  1
  O2-  O171  1  0.42925521  0.81873885  0.09587941  1
  O2-  O172  1  0.42689410  0.81883871  0.43218443  1
  O2-  O173  1  0.42823886  0.81971804  0.75706950  1
  O2-  O174  1  0.92653516  0.31684756  0.09650412  1
  O2-  O175  1  0.92853181  0.32297845  0.42907054  1
  O2-  O176  1  0.93093286  0.32188585  0.76470410  1
  O2-  O177  1  0.93033008  0.82093347  0.10161091  1
  O2-  O178  1  0.92838150  0.81945457  0.42405757  1
  O2-  O179  1  0.92925380  0.82078302  0.76427358  1
  O2-  O180  1  0.32694275  0.07037564  0.24398635  1
  O2-  O181  1  0.32477351  0.07282786  0.57773066  1
  O2-  O182  1  0.33178941  0.07019632  0.91324367  1
  O2-  O183  1  0.31519644  0.56902687  0.23504545  1
  O2-  O184  1  0.32222756  0.57216567  0.57803423  1
  O2-  O185  1  0.32443280  0.56943919  0.91140660  1
  O2-  O186  1  0.81989642  0.06754264  0.23456966  1
  O2-  O187  1  0.81930010  0.07151453  0.57925556  1
  O2-  O188  1  0.81505313  0.06855958  0.90948515  1
  O2-  O189  1  0.82221150  0.57677548  0.24309469  1
  O2-  O190  1  0.82018813  0.57163800  0.56739844  1
  O2-  O191  1  0.81910041  0.57734858  0.91373568  1
  O2-  O192  1  0.03799360  0.07858600  0.26595060  1
  O2-  O193  1  0.04649755  0.08015074  0.59979873  1
  O2-  O194  1  0.03706278  0.08367700  0.93191998  1
  O2-  O195  1  0.04363829  0.58786790  0.27035840  1
  O2-  O196  1  0.05132735  0.58143657  0.59650950  1
  O2-  O197  1  0.04887317  0.58403957  0.94197985  1
  O2-  O198  1  0.53987898  0.08377820  0.26331449  1
  O2-  O199  1  0.53567708  0.08530524  0.59848812  1
  O2-  O200  1  0.54274297  0.08754034  0.93846563  1
  O2-  O201  1  0.54192039  0.57768939  0.26462565  1
  O2-  O202  1  0.53654555  0.58428720  0.60021716  1
  O2-  O203  1  0.54330471  0.58182218  0.93784186  1
  O2-  O204  1  0.17366341  0.19639740  0.26706400  1
  O2-  O205  1  0.17165115  0.20725560  0.59789866  1
  O2-  O206  1  0.17691790  0.19746014  0.93747147  1
  O2-  O207  1  0.16201932  0.70788703  0.26955202  1
  O2-  O208  1  0.17039321  0.71323212  0.59877635  1
  O2-  O209  1  0.16664595  0.70200431  0.94174672  1
  O2-  O210  1  0.66538063  0.21157135  0.26394545  1
  O2-  O211  1  0.66663565  0.20664069  0.59931893  1
  O2-  O212  1  0.66289359  0.20639552  0.93856272  1
  O2-  O213  1  0.67033774  0.70355751  0.25999758  1
  O2-  O214  1  0.66598263  0.70867057  0.60100607  1
  O2-  O215  1  0.66482378  0.70061607  0.93687335  1
  O2-  O216  1  0.08196026  0.45782837  0.06937868  1
  O2-  O217  1  0.08215567  0.45428042  0.39383563  1
  O2-  O218  1  0.08937506  0.45623747  0.72554632  1
  O2-  O219  1  0.08138563  0.96076312  0.06856310  1
  O2-  O220  1  0.08749773  0.95646072  0.39760532  1
  O2-  O221  1  0.08114424  0.95893031  0.73376390  1
  O2-  O222  1  0.58458631  0.45813195  0.07241154  1
  O2-  O223  1  0.58632657  0.45164621  0.39355071  1
  O2-  O224  1  0.58027082  0.45783523  0.73416750  1
  O2-  O225  1  0.58463446  0.95692570  0.06283156  1
  O2-  O226  1  0.58136503  0.95038938  0.38917789  1
  O2-  O227  1  0.58205778  0.96313275  0.73485816  1
  O2-  O228  1  0.21237654  0.33227200  0.06801830  1
  O2-  O229  1  0.20121316  0.33189883  0.39430909  1
  O2-  O230  1  0.21182590  0.33856432  0.72715357  1
  O2-  O231  1  0.21062611  0.83414218  0.06820470  1
  O2-  O232  1  0.20750277  0.83765404  0.39625422  1
  O2-  O233  1  0.21262589  0.83624636  0.73761968  1
  O2-  O234  1  0.71088587  0.33025316  0.06978342  1
  O2-  O235  1  0.71012297  0.33775394  0.39411072  1
  O2-  O236  1  0.70366198  0.32793038  0.73316989  1
  O2-  O237  1  0.70050745  0.83348489  0.06131360  1
  O2-  O238  1  0.70343041  0.83242371  0.38967497  1
  O2-  O239  1  0.70572249  0.83348687  0.73510756  1
  O2-  O240  1  0.45225116  0.41498453  0.26989084  1
  O2-  O241  1  0.45035419  0.41893541  0.60587991  1
  O2-  O242  1  0.45815483  0.41399526  0.93987837  1
  O2-  O243  1  0.45215430  0.91705899  0.26205676  1
  O2-  O244  1  0.44941803  0.91806090  0.60818585  1
  O2-  O245  1  0.45949965  0.91643646  0.92863973  1
  O2-  O246  1  0.95291654  0.42210793  0.26260514  1
  O2-  O247  1  0.95786122  0.42023773  0.59813932  1
  O2-  O248  1  0.94820155  0.42530608  0.93735287  1
  O2-  O249  1  0.95831350  0.91233894  0.27343690  1
  O2-  O250  1  0.95729694  0.91904757  0.59730352  1
  O2-  O251  1  0.95806520  0.91622304  0.93248534  1
  O2-  O252  1  0.33300307  0.29679009  0.27117752  1
  O2-  O253  1  0.33715905  0.29685805  0.59952365  1
  O2-  O254  1  0.33953878  0.29479686  0.93809797  1
  O2-  O255  1  0.32927925  0.78728341  0.26514906  1
  O2-  O256  1  0.33508202  0.79494211  0.60618353  1
  O2-  O257  1  0.33210409  0.78897151  0.92952620  1
  O2-  O258  1  0.83244384  0.28873622  0.26298521  1
  O2-  O259  1  0.82982721  0.29512260  0.59929505  1
  O2-  O260  1  0.83194270  0.28643577  0.93097795  1
  O2-  O261  1  0.83840415  0.79359568  0.26957025  1
  O2-  O262  1  0.82864784  0.79509319  0.59759231  1
  O2-  O263  1  0.83053807  0.79214640  0.93509258  1
  O2-  O264  1  0.41761758  0.03931737  0.06629998  1
  O2-  O265  1  0.41470173  0.03993659  0.39714836  1
  O2-  O266  1  0.41429676  0.04783798  0.73219791  1
  O2-  O267  1  0.41471854  0.54343545  0.06500780  1
  O2-  O268  1  0.41638708  0.53882625  0.40219417  1
  O2-  O269  1  0.41139632  0.54399595  0.73308812  1
  O2-  O270  1  0.90966607  0.03923488  0.06196046  1
  O2-  O271  1  0.91467648  0.03773943  0.40447670  1
  O2-  O272  1  0.91575418  0.04688745  0.72980896  1
  O2-  O273  1  0.91640373  0.55476266  0.06486974  1
  O2-  O274  1  0.91376440  0.54639449  0.39488490  1
  O2-  O275  1  0.92487386  0.54886274  0.73186154  1
  O2-  O276  1  0.30827281  0.16676373  0.06421321  1
  O2-  O277  1  0.30032051  0.16377859  0.39670148  1
  O2-  O278  1  0.30106508  0.17056711  0.72767772  1
  O2-  O279  1  0.29721211  0.66509583  0.06281973  1
  O2-  O280  1  0.28701652  0.66546965  0.40349835  1
  O2-  O281  1  0.29313965  0.66385966  0.73142366  1
  O2-  O282  1  0.78857752  0.15857244  0.06338518  1
  O2-  O283  1  0.78750369  0.16677259  0.40107243  1
  O2-  O284  1  0.79381795  0.16470528  0.73109639  1
  O2-  O285  1  0.79106091  0.66635675  0.06717924  1
  O2-  O286  1  0.79391311  0.66589438  0.39524890  1
  O2-  O287  1  0.79276064  0.66940058  0.73456487  1
