# generated using pymatgen
data_Ca2Al2SiO7
_symmetry_space_group_name_H-M   'P 1'
_cell_length_a   15.45857249
_cell_length_b   15.45823180
_cell_length_c   15.28386654
_cell_angle_alpha   89.99543020
_cell_angle_beta   89.99926291
_cell_angle_gamma   90.00906499
_symmetry_Int_Tables_number   1
_chemical_formula_structural   Ca2Al2SiO7
_chemical_formula_sum   'Ca48 Al48 Si24 O168'
_cell_volume   3652.26626598
_cell_formula_units_Z   24
loop_
 _symmetry_equiv_pos_site_id
 _symmetry_equiv_pos_as_xyz
  1  'x, y, z'
loop_
 _atom_type_symbol
 _atom_type_oxidation_number
  Ca2+  2.0
  Al0+  0.0
  Si0+  0.0
  O2-  -2.0
loop_
 _atom_site_type_symbol
 _atom_site_label
 _atom_site_symmetry_multiplicity
 _atom_site_fract_x
 _atom_site_fract_y
 _atom_site_fract_z
 _atom_site_occupancy
  Ca2+  Ca0  1  0.16427610  0.08316090  0.17185253  1
  Ca2+  Ca1  1  0.16945369  0.08876711  0.49712477  1
  Ca2+  Ca2  1  0.16695030  0.07630783  0.84221407  1
  Ca2+  Ca3  1  0.16717965  0.58490782  0.16752339  1
  Ca2+  Ca4  1  0.16460517  0.57624685  0.51161279  1
  Ca2+  Ca5  1  0.15893843  0.57893489  0.83620637  1
  Ca2+  Ca6  1  0.67739871  0.07253886  0.17462844  1
  Ca2+  Ca7  1  0.67472589  0.07349975  0.50744440  1
  Ca2+  Ca8  1  0.67510599  0.07561477  0.83826891  1
  Ca2+  Ca9  1  0.67266245  0.58677062  0.17503950  1
  Ca2+  Ca10  1  0.67549509  0.58445429  0.49715284  1
  Ca2+  Ca11  1  0.67979237  0.58745145  0.83850192  1
  Ca2+  Ca12  1  0.08060912  0.31937477  0.16382277  1
  Ca2+  Ca13  1  0.07581714  0.33133787  0.49904278  1
  Ca2+  Ca14  1  0.07748901  0.32727857  0.82590692  1
  Ca2+  Ca15  1  0.07415850  0.83293748  0.15965942  1
  Ca2+  Ca16  1  0.07388173  0.82611266  0.49415122  1
  Ca2+  Ca17  1  0.08507517  0.82291882  0.83020376  1
  Ca2+  Ca18  1  0.57882183  0.34090978  0.16716339  1
  Ca2+  Ca19  1  0.57328449  0.34077125  0.49192055  1
  Ca2+  Ca20  1  0.57760110  0.33083409  0.82571795  1
  Ca2+  Ca21  1  0.59549586  0.82705726  0.16525555  1
  Ca2+  Ca22  1  0.58920219  0.83350098  0.49612899  1
  Ca2+  Ca23  1  0.58749520  0.83476920  0.83010890  1
  Ca2+  Ca24  1  0.33260194  0.41611959  0.17430102  1
  Ca2+  Ca25  1  0.32927191  0.41253254  0.50550051  1
  Ca2+  Ca26  1  0.32782181  0.41343872  0.83138348  1
  Ca2+  Ca27  1  0.32291930  0.92134244  0.17096669  1
  Ca2+  Ca28  1  0.33838838  0.92293175  0.50436381  1
  Ca2+  Ca29  1  0.32885958  0.91102132  0.83681163  1
  Ca2+  Ca30  1  0.82815986  0.43073696  0.17399231  1
  Ca2+  Ca31  1  0.83522944  0.42531200  0.50631428  1
  Ca2+  Ca32  1  0.84300889  0.42526138  0.83395339  1
  Ca2+  Ca33  1  0.82859288  0.92055765  0.17351897  1
  Ca2+  Ca34  1  0.82822773  0.92135569  0.50087772  1
  Ca2+  Ca35  1  0.82583153  0.92549512  0.83884623  1
  Ca2+  Ca36  1  0.41414707  0.16884192  0.16917792  1
  Ca2+  Ca37  1  0.41661722  0.17504531  0.49244678  1
  Ca2+  Ca38  1  0.42052036  0.17008179  0.82574185  1
  Ca2+  Ca39  1  0.43398428  0.66635066  0.16153129  1
  Ca2+  Ca40  1  0.42430058  0.67622744  0.49444059  1
  Ca2+  Ca41  1  0.42678282  0.67461117  0.82738506  1
  Ca2+  Ca42  1  0.92115948  0.15802810  0.16251080  1
  Ca2+  Ca43  1  0.91562930  0.16614666  0.49426645  1
  Ca2+  Ca44  1  0.91672776  0.16510116  0.82863881  1
  Ca2+  Ca45  1  0.91070599  0.67227892  0.16304412  1
  Ca2+  Ca46  1  0.91329539  0.66769034  0.49597203  1
  Ca2+  Ca47  1  0.92340892  0.65969236  0.82835082  1
  Al0+  Al48  1  0.00188327  -0.00089786  0.00012337  1
  Al0+  Al49  1  0.00044823  -0.00248784  0.32979691  1
  Al0+  Al50  1  0.00227722  -0.00227578  0.66939471  1
  Al0+  Al51  1  0.00020432  0.49890534  0.00451957  1
  Al0+  Al52  1  0.00146138  0.49809045  0.33475460  1
  Al0+  Al53  1  0.00224823  0.49603377  0.66690227  1
  Al0+  Al54  1  0.49840086  0.00206071  0.00383919  1
  Al0+  Al55  1  0.49720727  0.00168593  0.33921356  1
  Al0+  Al56  1  0.49989645  -0.00011158  0.66730187  1
  Al0+  Al57  1  0.49853525  0.50268890  -0.00828365  1
  Al0+  Al58  1  0.49831343  0.50223312  0.32878139  1
  Al0+  Al59  1  0.49976652  0.50138593  0.66311533  1
  Al0+  Al60  1  0.24742000  0.25074782  -0.00469073  1
  Al0+  Al61  1  0.24930091  0.24980140  0.32883911  1
  Al0+  Al62  1  0.25035158  0.24997008  0.66874338  1
  Al0+  Al63  1  0.24979803  0.74917243  0.00228226  1
  Al0+  Al64  1  0.25059319  0.74997435  0.33328239  1
  Al0+  Al65  1  0.25322316  0.74895815  0.65709829  1
  Al0+  Al66  1  0.74773314  0.25210028  0.00278194  1
  Al0+  Al67  1  0.74734584  0.25148348  0.33794140  1
  Al0+  Al68  1  0.75081604  0.25038209  0.66554946  1
  Al0+  Al69  1  0.75058753  0.75010159  -0.00024167  1
  Al0+  Al70  1  0.75141691  0.74987565  0.33338679  1
  Al0+  Al71  1  0.75183987  0.74927324  0.67481115  1
  Al0+  Al72  1  0.07039063  0.67783909  0.65317722  1
  Al0+  Al73  1  0.56892813  0.68332390  0.32067185  1
  Al0+  Al74  1  0.82429426  0.07179606  0.34846636  1
  Al0+  Al75  1  0.93064622  0.81802198  0.31998543  1
  Al0+  Al76  1  0.57312174  0.68048370  0.98382877  1
  Al0+  Al77  1  0.06958173  0.17768362  0.98434057  1
  Al0+  Al78  1  0.92904724  0.31878682  0.65345757  1
  Al0+  Al79  1  0.06761820  0.18085615  0.32075790  1
  Al0+  Al80  1  0.82179158  0.56895031  0.01399542  1
  Al0+  Al81  1  0.67853903  0.92951324  0.68366688  1
  Al0+  Al82  1  0.82146814  0.07331944  0.01563403  1
  Al0+  Al83  1  0.31794156  0.07122860  0.34705779  1
  Al0+  Al84  1  0.18043148  0.92715107  0.01276655  1
  Al0+  Al85  1  0.42919191  0.32064877  0.65264081  1
  Al0+  Al86  1  0.67920397  0.92858095  0.34911003  1
  Al0+  Al87  1  0.82116708  0.56816136  0.68140467  1
  Al0+  Al88  1  0.82247831  0.57009934  0.34916852  1
  Al0+  Al89  1  0.43002324  0.32002438  0.31835947  1
  Al0+  Al90  1  0.18101538  0.42898244  0.68126014  1
  Al0+  Al91  1  0.82398329  0.07314472  0.68223280  1
  Al0+  Al92  1  0.43084164  0.82176655  0.65245047  1
  Al0+  Al93  1  0.67737380  0.92949548  0.01664994  1
  Al0+  Al94  1  0.67563106  0.43010819  0.34744055  1
  Al0+  Al95  1  0.07093041  0.67847610  0.98727005  1
  Si0+  Si96  1  0.32048964  0.07537447  0.01626683  1
  Si0+  Si97  1  0.07450033  0.67462234  0.31676548  1
  Si0+  Si98  1  0.07252145  0.17487914  0.65073478  1
  Si0+  Si99  1  0.57169533  0.17839487  0.64975772  1
  Si0+  Si100  1  0.67490078  0.42809270  0.68291101  1
  Si0+  Si101  1  0.92471676  0.32423786  0.31646864  1
  Si0+  Si102  1  0.42776575  0.82249179  0.98620624  1
  Si0+  Si103  1  0.92834085  0.82168966  0.98110654  1
  Si0+  Si104  1  0.32096122  0.57213365  0.34746855  1
  Si0+  Si105  1  0.57009255  0.17936491  0.98615577  1
  Si0+  Si106  1  0.18128366  0.42907691  0.34707047  1
  Si0+  Si107  1  0.17773842  0.92601004  0.35178038  1
  Si0+  Si108  1  0.57534110  0.67892953  0.64928417  1
  Si0+  Si109  1  0.17990072  0.42817437  0.01658893  1
  Si0+  Si110  1  0.32160259  0.57000023  0.01414730  1
  Si0+  Si111  1  0.31954063  0.07068938  0.68194179  1
  Si0+  Si112  1  0.32302188  0.57369391  0.68318101  1
  Si0+  Si113  1  0.42518926  0.82604466  0.31482328  1
  Si0+  Si114  1  0.67315282  0.42932408  0.01454654  1
  Si0+  Si115  1  0.92732333  0.32164949  0.98568909  1
  Si0+  Si116  1  0.42757665  0.32219257  0.98288160  1
  Si0+  Si117  1  0.57225403  0.17614650  0.31690851  1
  Si0+  Si118  1  0.92839788  0.82192402  0.65154128  1
  Si0+  Si119  1  0.18081346  0.92554057  0.67980097  1
  O2-  O120  1  0.25220857  0.00549983  0.05842568  1
  O2-  O121  1  0.24772374  -0.00658552  0.39614879  1
  O2-  O122  1  0.24983974  -0.00164755  0.72336559  1
  O2-  O123  1  0.25175203  0.49851893  0.05831942  1
  O2-  O124  1  0.24550725  0.50612851  0.38936098  1
  O2-  O125  1  0.25478894  0.50502357  0.72874361  1
  O2-  O126  1  0.75081382  0.00030873  0.06533215  1
  O2-  O127  1  0.74843781  0.00378086  0.39800963  1
  O2-  O128  1  0.75102287  0.00198595  0.73168140  1
  O2-  O129  1  0.74264338  0.49733918  0.05756068  1
  O2-  O130  1  0.75341965  0.49472806  0.39862048  1
  O2-  O131  1  0.74484939  0.49448435  0.72839930  1
  O2-  O132  1  -0.01243752  0.24968131  0.27272152  1
  O2-  O133  1  -0.00096655  0.23869467  0.60783213  1
  O2-  O134  1  -0.00960242  0.24829522  0.94000218  1
  O2-  O135  1  0.00517508  0.74206702  0.27336593  1
  O2-  O136  1  -0.00449291  0.75154125  0.60676191  1
  O2-  O137  1  -0.00401302  0.75085134  0.93781009  1
  O2-  O138  1  0.50689875  0.24828865  0.27083908  1
  O2-  O139  1  0.50672374  0.25051233  0.60498840  1
  O2-  O140  1  0.49916846  0.25102386  0.94278409  1
  O2-  O141  1  0.49662105  0.76029847  0.27155041  1
  O2-  O142  1  0.50786074  0.74959321  0.60638998  1
  O2-  O143  1  0.50128312  0.75997942  0.94048138  1
  O2-  O144  1  0.07462357  0.18215838  0.09718931  1
  O2-  O145  1  0.07146713  0.18558965  0.43384525  1
  O2-  O146  1  0.07536278  0.17614825  0.75636402  1
  O2-  O147  1  0.07213974  0.67997785  0.10014331  1
  O2-  O148  1  0.07690300  0.67509510  0.42237798  1
  O2-  O149  1  0.07079760  0.67941838  0.76652938  1
  O2-  O150  1  0.56809854  0.18028047  0.09084179  1
  O2-  O151  1  0.56753164  0.17532436  0.42224531  1
  O2-  O152  1  0.56736798  0.17874017  0.75614726  1
  O2-  O153  1  0.56970053  0.67582000  0.09664724  1
  O2-  O154  1  0.56579427  0.68291250  0.43374420  1
  O2-  O155  1  0.57276141  0.67767321  0.75507891  1
  O2-  O156  1  0.18322803  0.42893806  0.24149039  1
  O2-  O157  1  0.18268339  0.42856272  0.56786972  1
  O2-  O158  1  0.18104365  0.42754293  0.91164459  1
  O2-  O159  1  0.17958220  0.92507116  0.24606294  1
  O2-  O160  1  0.18115534  0.92657853  0.57491963  1
  O2-  O161  1  0.18499143  0.92597201  0.89907165  1
  O2-  O162  1  0.67469950  0.43509519  0.23336407  1
  O2-  O163  1  0.67257827  0.43083471  0.57783314  1
  O2-  O164  1  0.67049457  0.42832550  0.90890090  1
  O2-  O165  1  0.68106748  0.92875489  0.23570912  1
  O2-  O166  1  0.67850946  0.93031635  0.57044460  1
  O2-  O167  1  0.67621533  0.93327030  0.90316886  1
  O2-  O168  1  0.42611173  0.32383177  0.08782378  1
  O2-  O169  1  0.42757193  0.31907029  0.43117726  1
  O2-  O170  1  0.42914143  0.31677290  0.76642741  1
  O2-  O171  1  0.42439634  0.81875464  0.09144906  1
  O2-  O172  1  0.42180585  0.82234700  0.42035753  1
  O2-  O173  1  0.42733394  0.81918016  0.76576911  1
  O2-  O174  1  0.93114193  0.32375550  0.09117621  1
  O2-  O175  1  0.93078113  0.32829249  0.42180217  1
  O2-  O176  1  0.93393639  0.32083265  0.76676346  1
  O2-  O177  1  0.92977782  0.82088059  0.08686114  1
  O2-  O178  1  0.93284090  0.81731419  0.43346224  1
  O2-  O179  1  0.93169995  0.82296937  0.75703454  1
  O2-  O180  1  0.31434855  0.07189056  0.23378937  1
  O2-  O181  1  0.31799689  0.07269799  0.57705002  1
  O2-  O182  1  0.32112151  0.07707920  0.91032982  1
  O2-  O183  1  0.32060065  0.57037169  0.24187797  1
  O2-  O184  1  0.32155535  0.57281959  0.57738708  1
  O2-  O185  1  0.32219750  0.56855751  0.90925696  1
  O2-  O186  1  0.82461665  0.06798245  0.23500263  1
  O2-  O187  1  0.82382225  0.07099420  0.56903907  1
  O2-  O188  1  0.81870589  0.07380031  0.90204044  1
  O2-  O189  1  0.82169996  0.57044996  0.23542536  1
  O2-  O190  1  0.82046246  0.56874748  0.56880285  1
  O2-  O191  1  0.82449563  0.56501627  0.90075616  1
  O2-  O192  1  0.04548833  0.08198324  0.26746252  1
  O2-  O193  1  0.05441726  0.07899893  0.60605023  1
  O2-  O194  1  0.04611476  0.07913597  0.93095751  1
  O2-  O195  1  0.05277793  0.57948522  0.27185070  1
  O2-  O196  1  0.04194985  0.58052364  0.60060942  1
  O2-  O197  1  0.04183716  0.57962095  0.93593725  1
  O2-  O198  1  0.54012703  0.08450130  0.26990966  1
  O2-  O199  1  0.54055782  0.08685637  0.60387014  1
  O2-  O200  1  0.53980949  0.08864940  0.93722021  1
  O2-  O201  1  0.53296354  0.58929980  0.26415532  1
  O2-  O202  1  0.54713685  0.58635856  0.60292329  1
  O2-  O203  1  0.53681723  0.58661760  0.92654224  1
  O2-  O204  1  0.16123829  0.21808463  0.26416709  1
  O2-  O205  1  0.16456027  0.20694198  0.60523331  1
  O2-  O206  1  0.16489062  0.21269201  0.92848901  1
  O2-  O207  1  0.16885398  0.70036409  0.27098737  1
  O2-  O208  1  0.16654913  0.70718461  0.59746539  1
  O2-  O209  1  0.16853602  0.70846024  0.93372758  1
  O2-  O210  1  0.66741731  0.19768318  0.27231972  1
  O2-  O211  1  0.66671192  0.19859944  0.60606710  1
  O2-  O212  1  0.66134757  0.20771387  0.93745572  1
  O2-  O213  1  0.66608103  0.71074054  0.26680158  1
  O2-  O214  1  0.66996326  0.70393899  0.60597805  1
  O2-  O215  1  0.67017904  0.70799566  0.92968300  1
  O2-  O216  1  0.08968113  0.45597378  0.06612728  1
  O2-  O217  1  0.08812440  0.45054628  0.39448009  1
  O2-  O218  1  0.08596496  0.45936224  0.73738690  1
  O2-  O219  1  0.08400210  0.95568930  0.06666876  1
  O2-  O220  1  0.08540615  0.95367601  0.39757044  1
  O2-  O221  1  0.08927321  0.94973986  0.72913328  1
  O2-  O222  1  0.57877763  0.45622540  0.05890225  1
  O2-  O223  1  0.57826731  0.46475869  0.39971775  1
  O2-  O224  1  0.58096004  0.45423746  0.72980177  1
  O2-  O225  1  0.57792204  0.95689795  0.06867879  1
  O2-  O226  1  0.57831527  0.95226758  0.39943909  1
  O2-  O227  1  0.57927916  0.95884542  0.73598322  1
  O2-  O228  1  0.21000229  0.33660363  0.06351219  1
  O2-  O229  1  0.21613924  0.34037699  0.39447682  1
  O2-  O230  1  0.21415453  0.33341360  0.73734805  1
  O2-  O231  1  0.21322927  0.83275713  0.07022685  1
  O2-  O232  1  0.20197461  0.83129861  0.39712027  1
  O2-  O233  1  0.21310237  0.83431098  0.72592309  1
  O2-  O234  1  0.69526210  0.33566719  0.06174111  1
  O2-  O235  1  0.69129279  0.32861694  0.39835006  1
  O2-  O236  1  0.69703664  0.33287372  0.72702733  1
  O2-  O237  1  0.70560321  0.82994482  0.06584506  1
  O2-  O238  1  0.71106718  0.83169674  0.40197990  1
  O2-  O239  1  0.70594059  0.83129930  0.73710379  1
  O2-  O240  1  0.45758667  0.41712420  0.26288051  1
  O2-  O241  1  0.45365260  0.41958621  0.59987384  1
  O2-  O242  1  0.45383317  0.41322106  0.93312025  1
  O2-  O243  1  0.44460242  0.92213444  0.27229625  1
  O2-  O244  1  0.45692074  0.91999320  0.59914979  1
  O2-  O245  1  0.44510326  0.91951653  0.94296384  1
  O2-  O246  1  0.95860777  0.41482829  0.26766373  1
  O2-  O247  1  0.96786286  0.41161686  0.59750871  1
  O2-  O248  1  0.96167989  0.41235557  0.93870985  1
  O2-  O249  1  0.96399363  0.91233732  0.26304977  1
  O2-  O250  1  0.95760140  0.91423430  0.60424975  1
  O2-  O251  1  0.95733394  0.91403213  0.93496680  1
  O2-  O252  1  0.33532109  0.28608064  0.26187279  1
  O2-  O253  1  0.33306522  0.28638386  0.59994226  1
  O2-  O254  1  0.33628940  0.29326133  0.93493350  1
  O2-  O255  1  0.33206226  0.79693539  0.26831719  1
  O2-  O256  1  0.33729874  0.78970179  0.59281067  1
  O2-  O257  1  0.33702696  0.78966869  0.93791185  1
  O2-  O258  1  0.82759374  0.30810360  0.27465151  1
  O2-  O259  1  0.83020845  0.29764869  0.59939052  1
  O2-  O260  1  0.83054833  0.30509920  0.94201935  1
  O2-  O261  1  0.83541694  0.78710462  0.26420756  1
  O2-  O262  1  0.83408413  0.79574327  0.60812503  1
  O2-  O263  1  0.83461547  0.79768661  0.93577057  1
  O2-  O264  1  0.41359972  0.05208306  0.06369700  1
  O2-  O265  1  0.41425220  0.04598984  0.40390909  1
  O2-  O266  1  0.41132590  0.04400999  0.72986199  1
  O2-  O267  1  0.41337894  0.54049867  0.06117416  1
  O2-  O268  1  0.41004377  0.54009528  0.39577422  1
  O2-  O269  1  0.41686531  0.54759255  0.72907271  1
  O2-  O270  1  0.92166249  0.04593759  0.06408324  1
  O2-  O271  1  0.92229394  0.03986659  0.40034545  1
  O2-  O272  1  0.92330670  0.04409254  0.73444359  1
  O2-  O273  1  0.91647964  0.53618038  0.07096533  1
  O2-  O274  1  0.92295349  0.54427575  0.40035233  1
  O2-  O275  1  0.91718393  0.53323805  0.73417325  1
  O2-  O276  1  0.29268575  0.16886638  0.06161238  1
  O2-  O277  1  0.28280092  0.16712764  0.40064479  1
  O2-  O278  1  0.29129541  0.16114033  0.73189513  1
  O2-  O279  1  0.29334793  0.66019696  0.06369801  1
  O2-  O280  1  0.29874644  0.66573054  0.39456223  1
  O2-  O281  1  0.29768938  0.66786683  0.72761610  1
  O2-  O282  1  0.79371342  0.17271978  0.06759461  1
  O2-  O283  1  0.80224978  0.17330716  0.39744777  1
  O2-  O284  1  0.79695309  0.17292106  0.73394400  1
  O2-  O285  1  0.79361976  0.66703074  0.06459329  1
  O2-  O286  1  0.79040692  0.66676815  0.40192273  1
  O2-  O287  1  0.79400949  0.66442495  0.73778086  1
