# generated using pymatgen
data_Ca2Al2SiO7
_symmetry_space_group_name_H-M   'P 1'
_cell_length_a   15.45971662
_cell_length_b   15.45911669
_cell_length_c   15.28540254
_cell_angle_alpha   89.98777791
_cell_angle_beta   90.00390451
_cell_angle_gamma   90.00966184
_symmetry_Int_Tables_number   1
_chemical_formula_structural   Ca2Al2SiO7
_chemical_formula_sum   'Ca48 Al48 Si24 O168'
_cell_volume   3653.11267487
_cell_formula_units_Z   24
loop_
 _symmetry_equiv_pos_site_id
 _symmetry_equiv_pos_as_xyz
  1  'x, y, z'
loop_
 _atom_type_symbol
 _atom_type_oxidation_number
  Ca2+  2.0
  Al0+  0.0
  Si0+  0.0
  O2-  -2.0
loop_
 _atom_site_type_symbol
 _atom_site_label
 _atom_site_symmetry_multiplicity
 _atom_site_fract_x
 _atom_site_fract_y
 _atom_site_fract_z
 _atom_site_occupancy
  Ca2+  Ca0  1  0.17790008  0.08433986  0.17171984  1
  Ca2+  Ca1  1  0.17609612  0.07964521  0.50921612  1
  Ca2+  Ca2  1  0.17343910  0.08684433  0.83662861  1
  Ca2+  Ca3  1  0.17522312  0.58120625  0.17293537  1
  Ca2+  Ca4  1  0.17276152  0.57559760  0.49768831  1
  Ca2+  Ca5  1  0.17434384  0.58154114  0.84326443  1
  Ca2+  Ca6  1  0.67115150  0.07979945  0.18026552  1
  Ca2+  Ca7  1  0.66464090  0.08684619  0.49987515  1
  Ca2+  Ca8  1  0.66312937  0.08732692  0.83593871  1
  Ca2+  Ca9  1  0.66506397  0.57086474  0.17118930  1
  Ca2+  Ca10  1  0.66681139  0.57997781  0.50201752  1
  Ca2+  Ca11  1  0.66006384  0.57951350  0.84245587  1
  Ca2+  Ca12  1  0.07735163  0.33254327  0.15808571  1
  Ca2+  Ca13  1  0.08765346  0.32781303  0.49524908  1
  Ca2+  Ca14  1  0.08549629  0.31949519  0.83256378  1
  Ca2+  Ca15  1  0.08671561  0.82925383  0.16228448  1
  Ca2+  Ca16  1  0.08901292  0.83879055  0.49519466  1
  Ca2+  Ca17  1  0.08940552  0.82983314  0.83150563  1
  Ca2+  Ca18  1  0.58274425  0.33240459  0.16259987  1
  Ca2+  Ca19  1  0.57794103  0.32360148  0.49581457  1
  Ca2+  Ca20  1  0.57142486  0.33324750  0.82925021  1
  Ca2+  Ca21  1  0.57812279  0.82777908  0.15904002  1
  Ca2+  Ca22  1  0.58644341  0.82909378  0.49361468  1
  Ca2+  Ca23  1  0.57547670  0.82360325  0.83196454  1
  Ca2+  Ca24  1  0.33481163  0.42774149  0.16931352  1
  Ca2+  Ca25  1  0.33582412  0.41673718  0.49902775  1
  Ca2+  Ca26  1  0.34092118  0.41837905  0.84206244  1
  Ca2+  Ca27  1  0.33378999  0.92660920  0.17201697  1
  Ca2+  Ca28  1  0.32583260  0.92820918  0.50322094  1
  Ca2+  Ca29  1  0.33646122  0.92993556  0.83853658  1
  Ca2+  Ca30  1  0.82332520  0.41597459  0.17253504  1
  Ca2+  Ca31  1  0.82619339  0.41755055  0.49692761  1
  Ca2+  Ca32  1  0.82318802  0.41180456  0.84236981  1
  Ca2+  Ca33  1  0.82583302  0.92273214  0.17538441  1
  Ca2+  Ca34  1  0.82751405  0.92192355  0.49641267  1
  Ca2+  Ca35  1  0.83041015  0.91915525  0.83538915  1
  Ca2+  Ca36  1  0.41732056  0.16900838  0.16219132  1
  Ca2+  Ca37  1  0.42088500  0.16209362  0.49575597  1
  Ca2+  Ca38  1  0.41232624  0.17644634  0.82672086  1
  Ca2+  Ca39  1  0.41434979  0.67231425  0.15556440  1
  Ca2+  Ca40  1  0.41954335  0.66620806  0.49586013  1
  Ca2+  Ca41  1  0.42420489  0.66573112  0.83393284  1
  Ca2+  Ca42  1  0.92233613  0.17024680  0.15919245  1
  Ca2+  Ca43  1  0.92374554  0.16033403  0.49461580  1
  Ca2+  Ca44  1  0.92770324  0.16999528  0.83283994  1
  Ca2+  Ca45  1  0.92208883  0.66291432  0.16284984  1
  Ca2+  Ca46  1  0.91646457  0.66714808  0.49205594  1
  Ca2+  Ca47  1  0.92538820  0.66545323  0.83261279  1
  Al0+  Al48  1  -0.00019416  -0.00072033  -0.00372797  1
  Al0+  Al49  1  -0.00149634  -0.00185567  0.33496045  1
  Al0+  Al50  1  -0.00179468  -0.00120428  0.66713620  1
  Al0+  Al51  1  -0.00230258  0.50070828  -0.00998033  1
  Al0+  Al52  1  0.00055851  0.49972815  0.33963121  1
  Al0+  Al53  1  -0.00009874  0.50166152  0.66715829  1
  Al0+  Al54  1  0.49977143  -0.00130673  0.00106039  1
  Al0+  Al55  1  0.50023759  -0.00176429  0.33568010  1
  Al0+  Al56  1  0.49979017  -0.00096396  0.66884290  1
  Al0+  Al57  1  0.50056495  0.49880872  0.00338616  1
  Al0+  Al58  1  0.50100472  0.49903600  0.34039941  1
  Al0+  Al59  1  0.50102343  0.50010534  0.65815930  1
  Al0+  Al60  1  0.25045238  0.24974261  -0.00178665  1
  Al0+  Al61  1  0.25152823  0.25121336  0.33699742  1
  Al0+  Al62  1  0.24730960  0.25168066  0.66149732  1
  Al0+  Al63  1  0.24970441  0.75200031  -0.00613520  1
  Al0+  Al64  1  0.25101039  0.74931543  0.33983484  1
  Al0+  Al65  1  0.24998934  0.74833969  0.66885218  1
  Al0+  Al66  1  0.75078857  0.24947632  0.00139155  1
  Al0+  Al67  1  0.75130138  0.24995529  0.33765993  1
  Al0+  Al68  1  0.74907433  0.25192648  0.66581945  1
  Al0+  Al69  1  0.75106998  0.74954158  -0.00337849  1
  Al0+  Al70  1  0.75140866  0.75035300  0.33651466  1
  Al0+  Al71  1  0.75197244  0.75016540  0.66436280  1
  Al0+  Al72  1  0.42706326  0.32160804  0.64968799  1
  Al0+  Al73  1  0.07192423  0.17841476  0.98659819  1
  Al0+  Al74  1  0.32193099  0.07237737  0.34805344  1
  Al0+  Al75  1  0.57135275  0.68085526  0.65105784  1
  Al0+  Al76  1  0.67928553  0.42879689  0.01285235  1
  Al0+  Al77  1  0.17904738  0.92897497  0.34556747  1
  Al0+  Al78  1  0.32228282  0.57200307  0.34868343  1
  Al0+  Al79  1  0.17729866  0.92821575  0.68464898  1
  Al0+  Al80  1  0.06774296  0.17912082  0.65067466  1
  Al0+  Al81  1  0.57052535  0.17875976  0.31868556  1
  Al0+  Al82  1  0.57116027  0.17761523  0.65235930  1
  Al0+  Al83  1  0.17828468  0.42876886  0.34651493  1
  Al0+  Al84  1  0.57065957  0.67820494  0.98830334  1
  Al0+  Al85  1  0.32119553  0.07246384  0.68398452  1
  Al0+  Al86  1  0.67795359  0.42709481  0.35115131  1
  Al0+  Al87  1  0.32012718  0.57148790  0.01132155  1
  Al0+  Al88  1  0.43075499  0.32007958  0.99039064  1
  Al0+  Al89  1  0.82132015  0.07207220  0.34762584  1
  Al0+  Al90  1  0.67800787  0.92873382  0.34740645  1
  Al0+  Al91  1  0.07147802  0.67930190  0.98736099  1
  Al0+  Al92  1  0.92598609  0.32157898  0.98569624  1
  Al0+  Al93  1  0.82100375  0.57050049  0.34703875  1
  Al0+  Al94  1  0.32130232  0.07278991  0.01481561  1
  Al0+  Al95  1  0.42743580  0.82389294  0.98471352  1
  Si0+  Si96  1  0.07112566  0.67890303  0.32008221  1
  Si0+  Si97  1  0.17675444  0.43018392  0.68348210  1
  Si0+  Si98  1  0.81974887  0.07189328  0.68322990  1
  Si0+  Si99  1  0.92740899  0.82245485  0.98222968  1
  Si0+  Si100  1  0.92946869  0.81996817  0.64937262  1
  Si0+  Si101  1  0.07200282  0.67847248  0.64896817  1
  Si0+  Si102  1  0.57288287  0.17645565  0.98673659  1
  Si0+  Si103  1  0.07174964  0.17742161  0.31897227  1
  Si0+  Si104  1  0.93092070  0.32186529  0.31957182  1
  Si0+  Si105  1  0.67995606  0.43138195  0.68298621  1
  Si0+  Si106  1  0.57301369  0.67824471  0.31825144  1
  Si0+  Si107  1  0.42787237  0.32305297  0.31409441  1
  Si0+  Si108  1  0.92829399  0.82084013  0.31719374  1
  Si0+  Si109  1  0.42848574  0.81837289  0.31940496  1
  Si0+  Si110  1  0.67970537  0.92678226  0.68336166  1
  Si0+  Si111  1  0.42732006  0.82131264  0.64856627  1
  Si0+  Si112  1  0.82173026  0.57294661  0.68418572  1
  Si0+  Si113  1  0.82347633  0.57348807  0.01455871  1
  Si0+  Si114  1  0.32226085  0.56848693  0.68269314  1
  Si0+  Si115  1  0.17665396  0.92879940  0.01597640  1
  Si0+  Si116  1  0.82133722  0.06963944  0.01360823  1
  Si0+  Si117  1  0.67966806  0.92752390  0.01327308  1
  Si0+  Si118  1  0.17585124  0.42846547  0.01307725  1
  Si0+  Si119  1  0.92731719  0.32371454  0.64823120  1
  O2-  O120  1  0.24538547  -0.00262144  0.05941377  1
  O2-  O121  1  0.24531670  0.00463576  0.39666523  1
  O2-  O122  1  0.24874435  0.00038297  0.73458801  1
  O2-  O123  1  0.24218750  0.49932907  0.05722899  1
  O2-  O124  1  0.25331321  0.49679008  0.39809373  1
  O2-  O125  1  0.25181503  0.49708337  0.72541575  1
  O2-  O126  1  0.74891174  0.00018351  0.05524637  1
  O2-  O127  1  0.74561376  0.00439221  0.39850836  1
  O2-  O128  1  0.74525929  0.00368553  0.72565296  1
  O2-  O129  1  0.75546570  0.50403012  0.05738816  1
  O2-  O130  1  0.74739187  0.50272384  0.40025051  1
  O2-  O131  1  0.75096890  0.50231326  0.72651154  1
  O2-  O132  1  0.00164657  0.25013778  0.27731682  1
  O2-  O133  1  -0.00588285  0.25452654  0.60244710  1
  O2-  O134  1  0.00068898  0.25203501  0.93678348  1
  O2-  O135  1  0.00067912  0.75028811  0.27676207  1
  O2-  O136  1  0.00380685  0.75229991  0.60724849  1
  O2-  O137  1  -0.00325455  0.75396172  0.93909327  1
  O2-  O138  1  0.49635309  0.25336734  0.27071066  1
  O2-  O139  1  0.49465151  0.24419208  0.60189962  1
  O2-  O140  1  0.50308066  0.24346055  0.94294446  1
  O2-  O141  1  0.49969565  0.74698763  0.27673156  1
  O2-  O142  1  0.49795322  0.75548530  0.60247832  1
  O2-  O143  1  0.49832129  0.74912660  0.93694446  1
  O2-  O144  1  0.06938624  0.17801333  0.10058518  1
  O2-  O145  1  0.06857746  0.17730788  0.42407590  1
  O2-  O146  1  0.06614006  0.18014367  0.76366053  1
  O2-  O147  1  0.06995698  0.67991132  0.10084388  1
  O2-  O148  1  0.06916170  0.67984094  0.42537245  1
  O2-  O149  1  0.06936034  0.67667131  0.75405799  1
  O2-  O150  1  0.57465802  0.17649325  0.09223322  1
  O2-  O151  1  0.56906660  0.17969372  0.43146272  1
  O2-  O152  1  0.57562553  0.18296320  0.76625142  1
  O2-  O153  1  0.57189688  0.68055603  0.10191901  1
  O2-  O154  1  0.57356587  0.68165864  0.42363045  1
  O2-  O155  1  0.57081111  0.68037879  0.76405689  1
  O2-  O156  1  0.17407785  0.43242895  0.23283301  1
  O2-  O157  1  0.17259990  0.43462706  0.57869494  1
  O2-  O158  1  0.17772268  0.42957135  0.90714305  1
  O2-  O159  1  0.18089330  0.92691535  0.23187305  1
  O2-  O160  1  0.17815855  0.92966894  0.57116569  1
  O2-  O161  1  0.17494135  0.93034386  0.91068498  1
  O2-  O162  1  0.67934483  0.42800202  0.23728250  1
  O2-  O163  1  0.68272840  0.43221307  0.57835422  1
  O2-  O164  1  0.67920258  0.42970904  0.89928038  1
  O2-  O165  1  0.68157457  0.92675730  0.23335791  1
  O2-  O166  1  0.68392887  0.92285500  0.57882306  1
  O2-  O167  1  0.68233975  0.92738548  0.90779055  1
  O2-  O168  1  0.43176986  0.32136292  0.10313083  1
  O2-  O169  1  0.42834802  0.32276193  0.41949640  1
  O2-  O170  1  0.43119413  0.32570820  0.76366267  1
  O2-  O171  1  0.42993612  0.82425787  0.09886919  1
  O2-  O172  1  0.42886168  0.81621600  0.42454386  1
  O2-  O173  1  0.42944509  0.81891669  0.75407745  1
  O2-  O174  1  0.92596131  0.31960615  0.09971234  1
  O2-  O175  1  0.93289191  0.32245795  0.42473895  1
  O2-  O176  1  0.92750108  0.32263216  0.75373590  1
  O2-  O177  1  0.92549449  0.82387474  0.08760148  1
  O2-  O178  1  0.92720669  0.82045949  0.42233084  1
  O2-  O179  1  0.92586372  0.81726968  0.75457853  1
  O2-  O180  1  0.32136718  0.07140090  0.23407292  1
  O2-  O181  1  0.32048072  0.06977999  0.57059737  1
  O2-  O182  1  0.32139745  0.07397774  0.90215758  1
  O2-  O183  1  0.31946260  0.57519736  0.23496608  1
  O2-  O184  1  0.31976001  0.56937099  0.57772378  1
  O2-  O185  1  0.32063318  0.56831790  0.89779473  1
  O2-  O186  1  0.82323394  0.06873989  0.23352985  1
  O2-  O187  1  0.82132240  0.06935851  0.57855827  1
  O2-  O188  1  0.82087113  0.06814947  0.90807718  1
  O2-  O189  1  0.82314133  0.56875021  0.23343946  1
  O2-  O190  1  0.82231700  0.57323736  0.57936607  1
  O2-  O191  1  0.82242730  0.57527686  0.90869707  1
  O2-  O192  1  0.04171583  0.08598050  0.27202342  1
  O2-  O193  1  0.03418866  0.08217934  0.59875507  1
  O2-  O194  1  0.04038989  0.08155780  0.93179748  1
  O2-  O195  1  0.04158479  0.58728273  0.27349062  1
  O2-  O196  1  0.03962050  0.58794277  0.60140948  1
  O2-  O197  1  0.04089156  0.58527219  0.92736185  1
  O2-  O198  1  0.54298606  0.07957709  0.26680210  1
  O2-  O199  1  0.55114104  0.07537855  0.60343615  1
  O2-  O200  1  0.55083414  0.08220002  0.94103940  1
  O2-  O201  1  0.54835805  0.58375111  0.27550536  1
  O2-  O202  1  0.54095115  0.58576206  0.59522622  1
  O2-  O203  1  0.54091315  0.58086551  0.93474895  1
  O2-  O204  1  0.16477296  0.20398552  0.27384749  1
  O2-  O205  1  0.16318420  0.21038645  0.59595597  1
  O2-  O206  1  0.16831304  0.20841014  0.93119515  1
  O2-  O207  1  0.16353015  0.70709506  0.27419181  1
  O2-  O208  1  0.16531192  0.70245104  0.60304815  1
  O2-  O209  1  0.16557301  0.70973741  0.92873820  1
  O2-  O210  1  0.67015712  0.20800772  0.26826118  1
  O2-  O211  1  0.66917312  0.20983033  0.59945403  1
  O2-  O212  1  0.66631765  0.20169608  0.94040204  1
  O2-  O213  1  0.66474670  0.70795941  0.27189234  1
  O2-  O214  1  0.66903033  0.71152798  0.59850437  1
  O2-  O215  1  0.66902130  0.70625767  0.93345180  1
  O2-  O216  1  0.07992827  0.45279538  0.05503092  1
  O2-  O217  1  0.08361509  0.46053892  0.40511906  1
  O2-  O218  1  0.08634018  0.46264026  0.73196335  1
  O2-  O219  1  0.08139408  0.95172838  0.06125559  1
  O2-  O220  1  0.07841561  0.94968945  0.39649540  1
  O2-  O221  1  0.07595945  0.95225765  0.73457577  1
  O2-  O222  1  0.58552212  0.46108305  0.07042514  1
  O2-  O223  1  0.58055059  0.45305049  0.40556520  1
  O2-  O224  1  0.58722182  0.46127524  0.72704156  1
  O2-  O225  1  0.58774780  0.95186519  0.06093181  1
  O2-  O226  1  0.57977285  0.95062245  0.40150563  1
  O2-  O227  1  0.58638334  0.94794234  0.73010719  1
  O2-  O228  1  0.20100041  0.33548481  0.05925577  1
  O2-  O229  1  0.20315861  0.33064225  0.40077336  1
  O2-  O230  1  0.19935938  0.33628420  0.72763495  1
  O2-  O231  1  0.20101552  0.83412356  0.05978553  1
  O2-  O232  1  0.20895982  0.83285791  0.40194374  1
  O2-  O233  1  0.20385267  0.82715417  0.73424068  1
  O2-  O234  1  0.71081248  0.33231003  0.06752263  1
  O2-  O235  1  0.71210692  0.33201812  0.40586580  1
  O2-  O236  1  0.70809417  0.33949275  0.73053055  1
  O2-  O237  1  0.71020362  0.83638709  0.06069663  1
  O2-  O238  1  0.71279021  0.83335693  0.40273557  1
  O2-  O239  1  0.71638203  0.83788519  0.73192801  1
  O2-  O240  1  0.45524636  0.41817386  0.27117251  1
  O2-  O241  1  0.46119572  0.41697835  0.59400183  1
  O2-  O242  1  0.46419547  0.41482012  0.93461095  1
  O2-  O243  1  0.45618845  0.91005881  0.27213313  1
  O2-  O244  1  0.45113652  0.91587034  0.60488439  1
  O2-  O245  1  0.46192194  0.91966936  0.92949485  1
  O2-  O246  1  0.95979418  0.41375913  0.27247219  1
  O2-  O247  1  0.95397402  0.41824894  0.60421542  1
  O2-  O248  1  0.94645656  0.42031879  0.93029226  1
  O2-  O249  1  0.95480668  0.91226699  0.26781735  1
  O2-  O250  1  0.95274554  0.91284349  0.60264741  1
  O2-  O251  1  0.95239844  0.91502241  0.93341800  1
  O2-  O252  1  0.33281550  0.29973788  0.26947699  1
  O2-  O253  1  0.32611967  0.30296189  0.59891173  1
  O2-  O254  1  0.33397508  0.29376972  0.93477870  1
  O2-  O255  1  0.33673726  0.78916197  0.27223001  1
  O2-  O256  1  0.33415079  0.79166097  0.60364543  1
  O2-  O257  1  0.32969436  0.79992511  0.93001382  1
  O2-  O258  1  0.83862988  0.29486289  0.27329954  1
  O2-  O259  1  0.83311105  0.29960634  0.60349064  1
  O2-  O260  1  0.83004897  0.28747487  0.93004432  1
  O2-  O261  1  0.83730271  0.79159130  0.26835167  1
  O2-  O262  1  0.84000811  0.78811110  0.59979054  1
  O2-  O263  1  0.83524828  0.79604405  0.93289113  1
  O2-  O264  1  0.41838993  0.04070925  0.06796785  1
  O2-  O265  1  0.41750390  0.03821829  0.40141482  1
  O2-  O266  1  0.42087750  0.04447858  0.73629615  1
  O2-  O267  1  0.41451581  0.53895622  0.06752672  1
  O2-  O268  1  0.42045034  0.54734331  0.40272746  1
  O2-  O269  1  0.41570491  0.54106637  0.72674643  1
  O2-  O270  1  0.91271990  0.03993047  0.06080841  1
  O2-  O271  1  0.91652999  0.03670039  0.40267738  1
  O2-  O272  1  0.90882937  0.03823761  0.73228750  1
  O2-  O273  1  0.91828259  0.54919404  0.05870231  1
  O2-  O274  1  0.91741975  0.54157375  0.40381344  1
  O2-  O275  1  0.91447615  0.54568329  0.73084856  1
  O2-  O276  1  0.28951068  0.16904999  0.06924227  1
  O2-  O277  1  0.29903876  0.17152390  0.40006824  1
  O2-  O278  1  0.29047411  0.17309997  0.73169440  1
  O2-  O279  1  0.29094500  0.67014433  0.06200944  1
  O2-  O280  1  0.28977665  0.66659003  0.40638323  1
  O2-  O281  1  0.29356239  0.66016748  0.72955333  1
  O2-  O282  1  0.79613849  0.16133019  0.06162545  1
  O2-  O283  1  0.80029503  0.17033783  0.40214694  1
  O2-  O284  1  0.79500692  0.16526389  0.72947297  1
  O2-  O285  1  0.80019856  0.66798806  0.06048065  1
  O2-  O286  1  0.79637588  0.66939099  0.40071003  1
  O2-  O287  1  0.79538483  0.66558288  0.73063948  1
