# generated using pymatgen
data_Ca2Al2SiO7
_symmetry_space_group_name_H-M   'P 1'
_cell_length_a   15.46426507
_cell_length_b   15.46474128
_cell_length_c   15.28902266
_cell_angle_alpha   90.00635777
_cell_angle_beta   89.98316578
_cell_angle_gamma   90.00900394
_symmetry_Int_Tables_number   1
_chemical_formula_structural   Ca2Al2SiO7
_chemical_formula_sum   'Ca48 Al48 Si24 O168'
_cell_volume   3656.38266612
_cell_formula_units_Z   24
loop_
 _symmetry_equiv_pos_site_id
 _symmetry_equiv_pos_as_xyz
  1  'x, y, z'
loop_
 _atom_type_symbol
 _atom_type_oxidation_number
  Ca2+  2.0
  Al0+  0.0
  Si0+  0.0
  O2-  -2.0
loop_
 _atom_site_type_symbol
 _atom_site_label
 _atom_site_symmetry_multiplicity
 _atom_site_fract_x
 _atom_site_fract_y
 _atom_site_fract_z
 _atom_site_occupancy
  Ca2+  Ca0  1  0.16663139  0.08301560  0.16879515  1
  Ca2+  Ca1  1  0.17089847  0.08476533  0.51208640  1
  Ca2+  Ca2  1  0.16925791  0.08749659  0.83124090  1
  Ca2+  Ca3  1  0.16568765  0.58437901  0.16255884  1
  Ca2+  Ca4  1  0.17516954  0.57328875  0.51088345  1
  Ca2+  Ca5  1  0.17522118  0.57696061  0.84008118  1
  Ca2+  Ca6  1  0.67024899  0.07507556  0.16946974  1
  Ca2+  Ca7  1  0.65674776  0.07829047  0.49788329  1
  Ca2+  Ca8  1  0.67100331  0.07452161  0.84458296  1
  Ca2+  Ca9  1  0.67898490  0.57180799  0.16791829  1
  Ca2+  Ca10  1  0.67654245  0.58264289  0.50221291  1
  Ca2+  Ca11  1  0.67323032  0.58277402  0.83762057  1
  Ca2+  Ca12  1  0.07099598  0.33746726  0.16006219  1
  Ca2+  Ca13  1  0.08307667  0.33149146  0.49903216  1
  Ca2+  Ca14  1  0.08344607  0.33667263  0.83153132  1
  Ca2+  Ca15  1  0.06846805  0.82511753  0.15768511  1
  Ca2+  Ca16  1  0.07500111  0.82886187  0.49255320  1
  Ca2+  Ca17  1  0.07929016  0.82456282  0.83548081  1
  Ca2+  Ca18  1  0.58405375  0.34102135  0.16346204  1
  Ca2+  Ca19  1  0.57244662  0.33260179  0.48849104  1
  Ca2+  Ca20  1  0.57791625  0.33870850  0.82754988  1
  Ca2+  Ca21  1  0.58764814  0.83581584  0.16305283  1
  Ca2+  Ca22  1  0.58181487  0.82809076  0.50044325  1
  Ca2+  Ca23  1  0.58095785  0.82663532  0.82558835  1
  Ca2+  Ca24  1  0.32842397  0.41836092  0.16602138  1
  Ca2+  Ca25  1  0.33060307  0.41281185  0.51094685  1
  Ca2+  Ca26  1  0.32572264  0.42166362  0.83651907  1
  Ca2+  Ca27  1  0.32987206  0.91803409  0.17079536  1
  Ca2+  Ca28  1  0.33492208  0.92412927  0.50919928  1
  Ca2+  Ca29  1  0.34075594  0.92288524  0.83432197  1
  Ca2+  Ca30  1  0.83259336  0.42026499  0.17460253  1
  Ca2+  Ca31  1  0.83421893  0.42430944  0.50222568  1
  Ca2+  Ca32  1  0.82988621  0.42690029  0.84465543  1
  Ca2+  Ca33  1  0.82734554  0.91230865  0.17128334  1
  Ca2+  Ca34  1  0.82860079  0.91296673  0.49960264  1
  Ca2+  Ca35  1  0.82904910  0.92257984  0.84609678  1
  Ca2+  Ca36  1  0.42634802  0.17279006  0.16927932  1
  Ca2+  Ca37  1  0.41645929  0.17751753  0.49567680  1
  Ca2+  Ca38  1  0.41733278  0.17330989  0.82318506  1
  Ca2+  Ca39  1  0.41865145  0.66502284  0.15804031  1
  Ca2+  Ca40  1  0.42391607  0.66066132  0.50146137  1
  Ca2+  Ca41  1  0.42141199  0.66489112  0.82244346  1
  Ca2+  Ca42  1  0.90618427  0.17810536  0.16153840  1
  Ca2+  Ca43  1  0.92500287  0.17330271  0.49477002  1
  Ca2+  Ca44  1  0.91630536  0.17471017  0.83187383  1
  Ca2+  Ca45  1  0.91069676  0.67109909  0.15827090  1
  Ca2+  Ca46  1  0.91225265  0.66624268  0.49403663  1
  Ca2+  Ca47  1  0.91355989  0.66484930  0.83389457  1
  Al0+  Al48  1  0.00181281  0.00195916  -0.00005496  1
  Al0+  Al49  1  -0.00054994  -0.00322395  0.32995618  1
  Al0+  Al50  1  -0.00058574  0.00111437  0.66330486  1
  Al0+  Al51  1  0.00235073  0.50049278  -0.00221217  1
  Al0+  Al52  1  0.00440409  0.49919335  0.33506463  1
  Al0+  Al53  1  -0.00121919  0.50142105  0.67340854  1
  Al0+  Al54  1  0.50046082  0.00225629  0.00431138  1
  Al0+  Al55  1  0.49892605  0.00060915  0.33382373  1
  Al0+  Al56  1  0.49912488  -0.00150256  0.66856172  1
  Al0+  Al57  1  0.49891535  0.50176959  0.00433662  1
  Al0+  Al58  1  0.50004188  0.50159157  0.32980897  1
  Al0+  Al59  1  0.50123640  0.50019015  0.65897097  1
  Al0+  Al60  1  0.25126163  0.25171434  0.00465624  1
  Al0+  Al61  1  0.25262806  0.24974982  0.32809540  1
  Al0+  Al62  1  0.24928197  0.24704988  0.66803997  1
  Al0+  Al63  1  0.24958297  0.75310031  -0.00087419  1
  Al0+  Al64  1  0.24998516  0.75071540  0.33513935  1
  Al0+  Al65  1  0.24717755  0.75132907  0.66503517  1
  Al0+  Al66  1  0.74825145  0.24727996  -0.00062170  1
  Al0+  Al67  1  0.75013901  0.24684762  0.33221977  1
  Al0+  Al68  1  0.75091178  0.24926173  0.66436439  1
  Al0+  Al69  1  0.74676516  0.74975930  0.00134445  1
  Al0+  Al70  1  0.74828101  0.75094932  0.33801407  1
  Al0+  Al71  1  0.74892065  0.75042943  0.66658702  1
  Al0+  Al72  1  0.67822261  0.42770676  0.01199722  1
  Al0+  Al73  1  0.32035747  0.57375190  0.01464090  1
  Al0+  Al74  1  0.81927648  0.57195108  0.68190448  1
  Al0+  Al75  1  0.17912755  0.42854545  0.01731749  1
  Al0+  Al76  1  0.42664077  0.82209232  0.65190922  1
  Al0+  Al77  1  0.57115166  0.17741164  0.31766040  1
  Al0+  Al78  1  0.17938827  0.42709075  0.68178939  1
  Al0+  Al79  1  0.82214469  0.57044030  0.01380972  1
  Al0+  Al80  1  0.92594385  0.82105298  0.98440298  1
  Al0+  Al81  1  0.06893382  0.18009226  0.65464302  1
  Al0+  Al82  1  0.42924837  0.32377291  0.31474909  1
  Al0+  Al83  1  0.92758652  0.81829241  0.31994180  1
  Al0+  Al84  1  0.67911043  0.92907547  0.01479602  1
  Al0+  Al85  1  0.43011309  0.31961149  0.65535847  1
  Al0+  Al86  1  0.93118969  0.32057045  0.32187365  1
  Al0+  Al87  1  0.57201111  0.67878249  0.64982177  1
  Al0+  Al88  1  0.67819167  0.93022782  0.35048963  1
  Al0+  Al89  1  0.82246927  0.56938016  0.34848303  1
  Al0+  Al90  1  0.07217845  0.67876723  0.98309775  1
  Al0+  Al91  1  0.67805960  0.42577581  0.34912241  1
  Al0+  Al92  1  0.92740535  0.32043213  0.98636555  1
  Al0+  Al93  1  0.82391247  0.07140196  0.01465955  1
  Al0+  Al94  1  0.32318344  0.57241322  0.67934588  1
  Al0+  Al95  1  0.32043796  0.06830882  0.68021704  1
  Si0+  Si96  1  0.17383217  0.92795334  0.68364236  1
  Si0+  Si97  1  0.18233053  0.42770823  0.34879143  1
  Si0+  Si98  1  0.17945939  0.92978426  0.01557939  1
  Si0+  Si99  1  0.31834653  0.06992265  0.34854755  1
  Si0+  Si100  1  0.07592568  0.17903496  0.98336339  1
  Si0+  Si101  1  0.42826894  0.82053198  0.31805724  1
  Si0+  Si102  1  0.32177493  0.07208654  0.01718956  1
  Si0+  Si103  1  0.43034690  0.32152012  0.98419203  1
  Si0+  Si104  1  0.67985029  0.93106636  0.68168282  1
  Si0+  Si105  1  0.56948125  0.17785160  0.98383260  1
  Si0+  Si106  1  0.57086570  0.68025974  0.31554015  1
  Si0+  Si107  1  0.92956953  0.82094563  0.65154813  1
  Si0+  Si108  1  0.17810319  0.92860750  0.34847089  1
  Si0+  Si109  1  0.07022533  0.67750378  0.65074713  1
  Si0+  Si110  1  0.82321201  0.07116090  0.68011617  1
  Si0+  Si111  1  0.56775774  0.67914047  0.98573943  1
  Si0+  Si112  1  0.07421375  0.67828351  0.31800087  1
  Si0+  Si113  1  0.07285039  0.17642406  0.31673690  1
  Si0+  Si114  1  0.57370539  0.17647975  0.65168882  1
  Si0+  Si115  1  0.92735218  0.32434589  0.65040255  1
  Si0+  Si116  1  0.82473902  0.07118531  0.35232608  1
  Si0+  Si117  1  0.32098967  0.57394160  0.34834594  1
  Si0+  Si118  1  0.67867137  0.42571201  0.68018393  1
  Si0+  Si119  1  0.42867053  0.82436329  0.98642204  1
  O2-  O120  1  0.24916182  0.00228920  0.05861926  1
  O2-  O121  1  0.24452677  0.00264277  0.39171044  1
  O2-  O122  1  0.24829898  -0.00906662  0.72767323  1
  O2-  O123  1  0.24814225  0.50378997  0.06718359  1
  O2-  O124  1  0.25505735  0.49782390  0.38973586  1
  O2-  O125  1  0.25185748  0.50020845  0.72931094  1
  O2-  O126  1  0.75687922  -0.00524811  0.06473814  1
  O2-  O127  1  0.75322212  0.00519968  0.39733622  1
  O2-  O128  1  0.74830697  0.00463581  0.72249270  1
  O2-  O129  1  0.75760886  0.49105975  0.06249438  1
  O2-  O130  1  0.75262665  0.49523139  0.39935603  1
  O2-  O131  1  0.74658641  0.49406027  0.72537946  1
  O2-  O132  1  0.00258065  0.24278943  0.27338530  1
  O2-  O133  1  -0.00291064  0.25618748  0.60677391  1
  O2-  O134  1  0.00413224  0.24547391  0.94127892  1
  O2-  O135  1  -0.00007080  0.74104613  0.27481465  1
  O2-  O136  1  -0.00091209  0.74871904  0.60847184  1
  O2-  O137  1  -0.00462776  0.74690654  0.93323841  1
  O2-  O138  1  0.50790642  0.25722780  0.26636038  1
  O2-  O139  1  0.50763988  0.24761578  0.60846510  1
  O2-  O140  1  0.50271578  0.25238570  0.94111348  1
  O2-  O141  1  0.49751671  0.74991974  0.27357727  1
  O2-  O142  1  0.49504000  0.74743752  0.60051298  1
  O2-  O143  1  0.49681167  0.75139307  0.94461576  1
  O2-  O144  1  0.08021350  0.17961721  0.08901077  1
  O2-  O145  1  0.07485052  0.17660783  0.42244462  1
  O2-  O146  1  0.06513272  0.17654042  0.76717192  1
  O2-  O147  1  0.07633062  0.68538743  0.09680506  1
  O2-  O148  1  0.07802394  0.68208209  0.42384994  1
  O2-  O149  1  0.07098584  0.67911742  0.75518751  1
  O2-  O150  1  0.56481399  0.17327454  0.08817663  1
  O2-  O151  1  0.56172557  0.17382319  0.43143979  1
  O2-  O152  1  0.57300354  0.17573956  0.75752919  1
  O2-  O153  1  0.56551354  0.67979405  0.09099103  1
  O2-  O154  1  0.56963711  0.68133706  0.42053541  1
  O2-  O155  1  0.57413156  0.68248196  0.76366908  1
  O2-  O156  1  0.18148852  0.42767582  0.24423271  1
  O2-  O157  1  0.17992574  0.42817749  0.56723097  1
  O2-  O158  1  0.18501951  0.42411734  0.90428847  1
  O2-  O159  1  0.18171262  0.92801361  0.24333710  1
  O2-  O160  1  0.17087761  0.93201438  0.57771058  1
  O2-  O161  1  0.18120645  0.92947837  0.91069436  1
  O2-  O162  1  0.67929123  0.43056275  0.23581119  1
  O2-  O163  1  0.68183116  0.42327053  0.57499927  1
  O2-  O164  1  0.67425861  0.43240067  0.89809464  1
  O2-  O165  1  0.67761093  0.93043114  0.23799182  1
  O2-  O166  1  0.68001710  0.93108211  0.57652853  1
  O2-  O167  1  0.67463282  0.93246905  0.90080017  1
  O2-  O168  1  0.43046967  0.31966163  0.08904144  1
  O2-  O169  1  0.42322223  0.31927724  0.42832538  1
  O2-  O170  1  0.43105226  0.31764097  0.76885865  1
  O2-  O171  1  0.42889568  0.82566803  0.09203120  1
  O2-  O172  1  0.42658289  0.82014143  0.42256341  1
  O2-  O173  1  0.43292658  0.82615186  0.76562469  1
  O2-  O174  1  0.92829464  0.31812729  0.09965461  1
  O2-  O175  1  0.93679337  0.32031824  0.43524574  1
  O2-  O176  1  0.92433188  0.32151875  0.75565723  1
  O2-  O177  1  0.92804357  0.82034169  0.09802646  1
  O2-  O178  1  0.93177050  0.82007470  0.43376008  1
  O2-  O179  1  0.93036639  0.82287612  0.75617925  1
  O2-  O180  1  0.31707663  0.06725843  0.24301772  1
  O2-  O181  1  0.31823790  0.06843007  0.56689223  1
  O2-  O182  1  0.32364965  0.07124136  0.91222881  1
  O2-  O183  1  0.31685136  0.57945979  0.24369281  1
  O2-  O184  1  0.32010503  0.57048316  0.56508247  1
  O2-  O185  1  0.32341525  0.57197024  0.90152540  1
  O2-  O186  1  0.82789969  0.06778104  0.24720703  1
  O2-  O187  1  0.82552228  0.06870350  0.57531095  1
  O2-  O188  1  0.81916743  0.07113771  0.90007238  1
  O2-  O189  1  0.82199196  0.57032548  0.23550115  1
  O2-  O190  1  0.82035365  0.57229540  0.56881496  1
  O2-  O191  1  0.81581060  0.57194630  0.90010843  1
  O2-  O192  1  0.05072985  0.08136474  0.27192677  1
  O2-  O193  1  0.03720511  0.08465990  0.59672388  1
  O2-  O194  1  0.05601254  0.08373033  0.93857183  1
  O2-  O195  1  0.05673062  0.58243584  0.27506820  1
  O2-  O196  1  0.04146240  0.58558612  0.60386795  1
  O2-  O197  1  0.05273609  0.57872585  0.93125504  1
  O2-  O198  1  0.53105891  0.08259748  0.26292005  1
  O2-  O199  1  0.54504991  0.08355867  0.60654217  1
  O2-  O200  1  0.53542177  0.08785641  0.93496376  1
  O2-  O201  1  0.54406093  0.58916268  0.26712417  1
  O2-  O202  1  0.54839751  0.58081367  0.59363748  1
  O2-  O203  1  0.53822978  0.58843462  0.93720886  1
  O2-  O204  1  0.16592373  0.20224546  0.26980542  1
  O2-  O205  1  0.16590130  0.20721161  0.59952664  1
  O2-  O206  1  0.16923365  0.20774459  0.93683586  1
  O2-  O207  1  0.16500775  0.71185994  0.27022168  1
  O2-  O208  1  0.16130843  0.70473827  0.60096090  1
  O2-  O209  1  0.16857225  0.71638809  0.92915252  1
  O2-  O210  1  0.67405341  0.19010698  0.26982933  1
  O2-  O211  1  0.66854854  0.19639342  0.60512221  1
  O2-  O212  1  0.66228900  0.19826047  0.93583522  1
  O2-  O213  1  0.66132003  0.71260329  0.26991199  1
  O2-  O214  1  0.66779061  0.71558565  0.59542782  1
  O2-  O215  1  0.65862230  0.70716619  0.93751242  1
  O2-  O216  1  0.08006321  0.45467048  0.06864006  1
  O2-  O217  1  0.09220732  0.45605694  0.39885772  1
  O2-  O218  1  0.08132492  0.45537097  0.73404320  1
  O2-  O219  1  0.08838401  0.95694328  0.06456041  1
  O2-  O220  1  0.08488821  0.95198644  0.39503692  1
  O2-  O221  1  0.08333053  0.96117342  0.73144819  1
  O2-  O222  1  0.58343314  0.46322845  0.06767547  1
  O2-  O223  1  0.57831925  0.45777072  0.39860736  1
  O2-  O224  1  0.58409274  0.45115911  0.72327801  1
  O2-  O225  1  0.58255620  0.96333731  0.06974626  1
  O2-  O226  1  0.58061325  0.96200488  0.40351112  1
  O2-  O227  1  0.58786167  0.95619106  0.72964522  1
  O2-  O228  1  0.21187810  0.33190708  0.07279831  1
  O2-  O229  1  0.20975265  0.33433657  0.39412223  1
  O2-  O230  1  0.20691288  0.32889618  0.73407050  1
  O2-  O231  1  0.21044310  0.84078895  0.06600611  1
  O2-  O232  1  0.20927069  0.83856395  0.39779918  1
  O2-  O233  1  0.19231578  0.83230785  0.72691495  1
  O2-  O234  1  0.69440486  0.32552779  0.05993736  1
  O2-  O235  1  0.69887624  0.32394529  0.39842066  1
  O2-  O236  1  0.70159407  0.33100274  0.72691475  1
  O2-  O237  1  0.69982057  0.82948647  0.06700194  1
  O2-  O238  1  0.70948914  0.83490409  0.40633378  1
  O2-  O239  1  0.71035388  0.84050354  0.72871780  1
  O2-  O240  1  0.45004091  0.42454854  0.26333116  1
  O2-  O241  1  0.45576164  0.41540029  0.59806994  1
  O2-  O242  1  0.45691959  0.41445626  0.93882710  1
  O2-  O243  1  0.45517849  0.91242447  0.27057527  1
  O2-  O244  1  0.45986849  0.91939403  0.59771209  1
  O2-  O245  1  0.45908847  0.91608684  0.93982308  1
  O2-  O246  1  0.96608845  0.41607929  0.26799111  1
  O2-  O247  1  0.95357900  0.41839062  0.60610690  1
  O2-  O248  1  0.95706599  0.41695090  0.93248071  1
  O2-  O249  1  0.96083827  0.91365610  0.26467627  1
  O2-  O250  1  0.95900250  0.91154421  0.60229629  1
  O2-  O251  1  0.95846868  0.92030634  0.93364296  1
  O2-  O252  1  0.33398954  0.28652432  0.25943733  1
  O2-  O253  1  0.33498200  0.28385459  0.60158877  1
  O2-  O254  1  0.33900090  0.28932902  0.93893679  1
  O2-  O255  1  0.33544575  0.79375885  0.27057962  1
  O2-  O256  1  0.32454676  0.80425497  0.60131144  1
  O2-  O257  1  0.33592056  0.80279633  0.93934702  1
  O2-  O258  1  0.83349210  0.29286896  0.26932930  1
  O2-  O259  1  0.83488625  0.29644081  0.60245647  1
  O2-  O260  1  0.83128910  0.28758658  0.93098479  1
  O2-  O261  1  0.82933723  0.79114483  0.26895503  1
  O2-  O262  1  0.83736965  0.79400601  0.60483554  1
  O2-  O263  1  0.82565905  0.79637444  0.93297690  1
  O2-  O264  1  0.41106597  0.04075808  0.06703581  1
  O2-  O265  1  0.40796891  0.03792505  0.39602061  1
  O2-  O266  1  0.41709252  0.03932301  0.73645495  1
  O2-  O267  1  0.41664708  0.54299370  0.07019873  1
  O2-  O268  1  0.41543769  0.55166083  0.39140923  1
  O2-  O269  1  0.42399659  0.54684164  0.72806400  1
  O2-  O270  1  0.92565481  0.05380534  0.06485677  1
  O2-  O271  1  0.91808257  0.04106680  0.39847671  1
  O2-  O272  1  0.91270118  0.03923681  0.72890822  1
  O2-  O273  1  0.92413559  0.55321425  0.06144020  1
  O2-  O274  1  0.92349690  0.54460349  0.40023412  1
  O2-  O275  1  0.91581126  0.54473884  0.73646246  1
  O2-  O276  1  0.29454385  0.16284455  0.06590940  1
  O2-  O277  1  0.29280751  0.16319874  0.39396648  1
  O2-  O278  1  0.28687195  0.16217333  0.73673827  1
  O2-  O279  1  0.29524040  0.67424229  0.06638890  1
  O2-  O280  1  0.28997291  0.66398768  0.39835989  1
  O2-  O281  1  0.29569223  0.67258699  0.72941045  1
  O2-  O282  1  0.78810724  0.16641487  0.06863749  1
  O2-  O283  1  0.80383237  0.16565846  0.39796027  1
  O2-  O284  1  0.79973839  0.16504706  0.72574955  1
  O2-  O285  1  0.78621018  0.66621989  0.06679302  1
  O2-  O286  1  0.78955400  0.66668351  0.40198750  1
  O2-  O287  1  0.78671697  0.66864742  0.73480298  1
