# generated using pymatgen
data_Ca2Al2SiO7
_symmetry_space_group_name_H-M   'P 1'
_cell_length_a   15.46332455
_cell_length_b   15.46635970
_cell_length_c   15.28915202
_cell_angle_alpha   89.99925715
_cell_angle_beta   90.00487638
_cell_angle_gamma   90.00851272
_symmetry_Int_Tables_number   1
_chemical_formula_structural   Ca2Al2SiO7
_chemical_formula_sum   'Ca48 Al48 Si24 O168'
_cell_volume   3656.57402551
_cell_formula_units_Z   24
loop_
 _symmetry_equiv_pos_site_id
 _symmetry_equiv_pos_as_xyz
  1  'x, y, z'
loop_
 _atom_type_symbol
 _atom_type_oxidation_number
  Ca2+  2.0
  Al0+  0.0
  Si0+  0.0
  O2-  -2.0
loop_
 _atom_site_type_symbol
 _atom_site_label
 _atom_site_symmetry_multiplicity
 _atom_site_fract_x
 _atom_site_fract_y
 _atom_site_fract_z
 _atom_site_occupancy
  Ca2+  Ca0  1  0.17318879  0.08099242  0.17525717  1
  Ca2+  Ca1  1  0.17575049  0.07826322  0.50425709  1
  Ca2+  Ca2  1  0.16582485  0.08469835  0.83294480  1
  Ca2+  Ca3  1  0.17712767  0.57288666  0.17747918  1
  Ca2+  Ca4  1  0.16605241  0.58067744  0.50082776  1
  Ca2+  Ca5  1  0.16351249  0.58366946  0.83656793  1
  Ca2+  Ca6  1  0.66922013  0.07719522  0.17142923  1
  Ca2+  Ca7  1  0.66776546  0.07236573  0.50717085  1
  Ca2+  Ca8  1  0.66597430  0.07627321  0.84099947  1
  Ca2+  Ca9  1  0.66595180  0.58185323  0.16889147  1
  Ca2+  Ca10  1  0.66426207  0.57428782  0.50046820  1
  Ca2+  Ca11  1  0.67233413  0.58491564  0.84334801  1
  Ca2+  Ca12  1  0.08671351  0.32582299  0.16114664  1
  Ca2+  Ca13  1  0.08648469  0.32799323  0.49648939  1
  Ca2+  Ca14  1  0.08126574  0.31934380  0.82936637  1
  Ca2+  Ca15  1  0.07670086  0.84220612  0.16712534  1
  Ca2+  Ca16  1  0.07592595  0.84555696  0.49562111  1
  Ca2+  Ca17  1  0.07323686  0.83054031  0.81836166  1
  Ca2+  Ca18  1  0.57398553  0.33077140  0.16100537  1
  Ca2+  Ca19  1  0.57958593  0.32471831  0.49126116  1
  Ca2+  Ca20  1  0.58188062  0.31892715  0.83145775  1
  Ca2+  Ca21  1  0.57982839  0.83485828  0.15773645  1
  Ca2+  Ca22  1  0.58794099  0.83484773  0.49590119  1
  Ca2+  Ca23  1  0.58500279  0.83737567  0.83345232  1
  Ca2+  Ca24  1  0.33530089  0.41717410  0.17866048  1
  Ca2+  Ca25  1  0.33442940  0.41867024  0.49515403  1
  Ca2+  Ca26  1  0.33469845  0.41490275  0.83711765  1
  Ca2+  Ca27  1  0.32977157  0.92176209  0.17518253  1
  Ca2+  Ca28  1  0.32536206  0.92748951  0.50737650  1
  Ca2+  Ca29  1  0.32943379  0.91984739  0.83389651  1
  Ca2+  Ca30  1  0.82655145  0.42399543  0.17158414  1
  Ca2+  Ca31  1  0.82604621  0.41372404  0.50066014  1
  Ca2+  Ca32  1  0.83606211  0.42709949  0.84123549  1
  Ca2+  Ca33  1  0.82320902  0.92500013  0.17213147  1
  Ca2+  Ca34  1  0.82807110  0.91301195  0.49922947  1
  Ca2+  Ca35  1  0.82346325  0.91656135  0.83929331  1
  Ca2+  Ca36  1  0.41783661  0.17578097  0.16008228  1
  Ca2+  Ca37  1  0.41808585  0.16240472  0.49521346  1
  Ca2+  Ca38  1  0.42732032  0.16281442  0.83020847  1
  Ca2+  Ca39  1  0.42122442  0.67214382  0.15889010  1
  Ca2+  Ca40  1  0.41559439  0.66758053  0.49336821  1
  Ca2+  Ca41  1  0.42250727  0.67527776  0.83647027  1
  Ca2+  Ca42  1  0.92059106  0.15679732  0.16153880  1
  Ca2+  Ca43  1  0.92375123  0.15627400  0.49584187  1
  Ca2+  Ca44  1  0.92632169  0.15559861  0.83226097  1
  Ca2+  Ca45  1  0.91341551  0.67266063  0.16435838  1
  Ca2+  Ca46  1  0.92432297  0.68075964  0.49693616  1
  Ca2+  Ca47  1  0.91897102  0.67191659  0.82308617  1
  Al0+  Al48  1  -0.00025244  -0.00178202  -0.00239177  1
  Al0+  Al49  1  -0.00113403  -0.00012398  0.33202716  1
  Al0+  Al50  1  -0.00038692  0.00077218  0.66013775  1
  Al0+  Al51  1  0.00031488  0.49946953  0.00641905  1
  Al0+  Al52  1  0.00060687  0.50020840  0.33608022  1
  Al0+  Al53  1  -0.00007171  0.50070138  0.66247472  1
  Al0+  Al54  1  0.49595714  0.00101661  -0.00264876  1
  Al0+  Al55  1  0.50206208  -0.00170139  0.33786842  1
  Al0+  Al56  1  0.50003412  -0.00030668  0.66994139  1
  Al0+  Al57  1  0.49934215  0.50269975  -0.00880027  1
  Al0+  Al58  1  0.50096359  0.49856059  0.33773244  1
  Al0+  Al59  1  0.49962142  0.49966201  0.66946829  1
  Al0+  Al60  1  0.24734189  0.24970891  -0.00845926  1
  Al0+  Al61  1  0.25070748  0.25093250  0.33665619  1
  Al0+  Al62  1  0.24988396  0.25344910  0.66692194  1
  Al0+  Al63  1  0.24942335  0.74861498  -0.00234805  1
  Al0+  Al64  1  0.24957889  0.74810691  0.33848748  1
  Al0+  Al65  1  0.25144687  0.74790465  0.66796910  1
  Al0+  Al66  1  0.75149889  0.25259402  -0.00020126  1
  Al0+  Al67  1  0.75271796  0.25070121  0.33957559  1
  Al0+  Al68  1  0.74727365  0.24934678  0.66417600  1
  Al0+  Al69  1  0.75027730  0.75012993  0.00516406  1
  Al0+  Al70  1  0.75274658  0.74981335  0.33137624  1
  Al0+  Al71  1  0.75030116  0.74841634  0.66521570  1
  Al0+  Al72  1  0.06846810  0.17775558  0.98699817  1
  Al0+  Al73  1  0.82319469  0.07181154  0.01310669  1
  Al0+  Al74  1  0.67930517  0.92729279  0.34844803  1
  Al0+  Al75  1  0.32248115  0.57066250  0.34779175  1
  Al0+  Al76  1  0.56955616  0.17746051  0.65087477  1
  Al0+  Al77  1  0.17788668  0.42789380  0.34901413  1
  Al0+  Al78  1  0.32016441  0.07321856  0.68463048  1
  Al0+  Al79  1  0.67577878  0.93086517  0.01541021  1
  Al0+  Al80  1  0.07104862  0.18018091  0.65015560  1
  Al0+  Al81  1  0.57294463  0.68157627  0.98560103  1
  Al0+  Al82  1  0.32267187  0.07199707  0.34578006  1
  Al0+  Al83  1  0.67964009  0.42979981  0.34600500  1
  Al0+  Al84  1  0.68078582  0.92740291  0.68188987  1
  Al0+  Al85  1  0.92810757  0.82125025  0.65057704  1
  Al0+  Al86  1  0.57314732  0.17895489  0.98702666  1
  Al0+  Al87  1  0.93060801  0.82111151  0.31495847  1
  Al0+  Al88  1  0.17859434  0.92869886  0.34605221  1
  Al0+  Al89  1  0.17755929  0.92896486  0.68257349  1
  Al0+  Al90  1  0.42744953  0.32232216  0.98438912  1
  Al0+  Al91  1  0.42555825  0.82289171  0.98508922  1
  Al0+  Al92  1  0.43072887  0.31865844  0.32126716  1
  Al0+  Al93  1  0.82111343  0.07169297  0.34907544  1
  Al0+  Al94  1  0.82221994  0.57176618  0.01416734  1
  Al0+  Al95  1  0.07355639  0.67770378  0.65078006  1
  Si0+  Si96  1  0.67723551  0.42756109  0.68385987  1
  Si0+  Si97  1  0.82310705  0.57277311  0.35240873  1
  Si0+  Si98  1  0.57453640  0.17632444  0.31811114  1
  Si0+  Si99  1  0.67610542  0.42953852  0.01503331  1
  Si0+  Si100  1  0.17757155  0.43181737  0.68390120  1
  Si0+  Si101  1  0.57081362  0.67810506  0.32038553  1
  Si0+  Si102  1  0.32369790  0.57123357  0.68571166  1
  Si0+  Si103  1  0.81908013  0.56736552  0.67977503  1
  Si0+  Si104  1  0.93048685  0.81918407  0.98549544  1
  Si0+  Si105  1  0.92894914  0.32541614  0.98554456  1
  Si0+  Si106  1  0.07329650  0.67607228  0.31406575  1
  Si0+  Si107  1  0.17914950  0.92707117  0.01334370  1
  Si0+  Si108  1  0.82122704  0.07411442  0.68301781  1
  Si0+  Si109  1  0.18032364  0.42821809  0.01361082  1
  Si0+  Si110  1  0.57101599  0.67765892  0.65096899  1
  Si0+  Si111  1  0.06936902  0.18167065  0.31824516  1
  Si0+  Si112  1  0.32066893  0.57096678  0.01343890  1
  Si0+  Si113  1  0.07018978  0.67684608  0.98762456  1
  Si0+  Si114  1  0.31806832  0.07296041  0.01391124  1
  Si0+  Si115  1  0.92764825  0.32316891  0.64977254  1
  Si0+  Si116  1  0.92699986  0.32397288  0.31765599  1
  Si0+  Si117  1  0.43007753  0.81977510  0.65093201  1
  Si0+  Si118  1  0.42919156  0.32409713  0.64804797  1
  Si0+  Si119  1  0.42828245  0.82084197  0.32124063  1
  O2-  O120  1  0.24994267  -0.00150833  0.05528140  1
  O2-  O121  1  0.25373056  -0.00296428  0.39519655  1
  O2-  O122  1  0.24645757  0.00245762  0.73530600  1
  O2-  O123  1  0.25500017  0.49523277  0.05560077  1
  O2-  O124  1  0.24821274  0.50158435  0.39888127  1
  O2-  O125  1  0.24909275  0.50259763  0.72656484  1
  O2-  O126  1  0.74548025  0.00634042  0.06330016  1
  O2-  O127  1  0.74745024  0.00207652  0.39937655  1
  O2-  O128  1  0.75475329  0.00346964  0.72709447  1
  O2-  O129  1  0.74521199  0.49833035  0.05901557  1
  O2-  O130  1  0.75488856  0.50310889  0.39561593  1
  O2-  O131  1  0.75043456  0.49618611  0.72568513  1
  O2-  O132  1  -0.00165126  0.25311263  0.27567212  1
  O2-  O133  1  -0.00736818  0.25193440  0.60440753  1
  O2-  O134  1  -0.00978281  0.25021790  0.94137542  1
  O2-  O135  1  0.00710109  0.74658585  0.26868442  1
  O2-  O136  1  0.00829727  0.75622629  0.60200018  1
  O2-  O137  1  -0.00034398  0.74641670  0.94350875  1
  O2-  O138  1  0.50355004  0.24283792  0.27386258  1
  O2-  O139  1  0.49346588  0.25136938  0.60478538  1
  O2-  O140  1  0.50031993  0.25060343  0.93612332  1
  O2-  O141  1  0.50101592  0.75087584  0.27929442  1
  O2-  O142  1  0.50139712  0.74896449  0.60788917  1
  O2-  O143  1  0.50402905  0.75670054  0.93555141  1
  O2-  O144  1  0.07211034  0.18009273  0.10017617  1
  O2-  O145  1  0.06877061  0.18299918  0.42316012  1
  O2-  O146  1  0.06890898  0.18263308  0.76363036  1
  O2-  O147  1  0.07139342  0.67677375  0.09226721  1
  O2-  O148  1  0.07038379  0.67333776  0.41919506  1
  O2-  O149  1  0.06694459  0.67377500  0.76522069  1
  O2-  O150  1  0.57079069  0.18096484  0.10078208  1
  O2-  O151  1  0.57339522  0.17840831  0.42376764  1
  O2-  O152  1  0.57161858  0.18057074  0.76386230  1
  O2-  O153  1  0.56833308  0.67761670  0.09941547  1
  O2-  O154  1  0.56978151  0.67731700  0.42602335  1
  O2-  O155  1  0.57085931  0.67609348  0.75562335  1
  O2-  O156  1  0.17933009  0.42758017  0.23474424  1
  O2-  O157  1  0.17689967  0.43230207  0.57931944  1
  O2-  O158  1  0.17730259  0.43174480  0.90844972  1
  O2-  O159  1  0.18021431  0.93161934  0.23138706  1
  O2-  O160  1  0.18135367  0.93008149  0.56941774  1
  O2-  O161  1  0.17824432  0.92583065  0.90869104  1
  O2-  O162  1  0.68000013  0.43301365  0.23291381  1
  O2-  O163  1  0.67663019  0.43026366  0.57874464  1
  O2-  O164  1  0.67909946  0.43091908  0.90910759  1
  O2-  O165  1  0.67749370  0.92672861  0.23518898  1
  O2-  O166  1  0.68173620  0.92561566  0.56916603  1
  O2-  O167  1  0.68068702  0.92890284  0.90172758  1
  O2-  O168  1  0.42632138  0.32225964  0.09824585  1
  O2-  O169  1  0.43333891  0.31989604  0.43410354  1
  O2-  O170  1  0.43285332  0.32783950  0.75357762  1
  O2-  O171  1  0.42056803  0.81802977  0.09895924  1
  O2-  O172  1  0.42886419  0.81913681  0.42637936  1
  O2-  O173  1  0.42997479  0.81722360  0.75591808  1
  O2-  O174  1  0.93426744  0.33143239  0.09065305  1
  O2-  O175  1  0.92755330  0.32498326  0.42270790  1
  O2-  O176  1  0.93077604  0.32821669  0.75543052  1
  O2-  O177  1  0.93355170  0.81964757  0.09038742  1
  O2-  O178  1  0.93010264  0.81846248  0.42760648  1
  O2-  O179  1  0.92530745  0.81531858  0.76490130  1
  O2-  O180  1  0.32013232  0.07255796  0.23136400  1
  O2-  O181  1  0.32046269  0.07058729  0.57112831  1
  O2-  O182  1  0.31561923  0.07447509  0.90922045  1
  O2-  O183  1  0.32329235  0.56920258  0.23366899  1
  O2-  O184  1  0.32893210  0.56892197  0.58122467  1
  O2-  O185  1  0.31632166  0.57258238  0.90826104  1
  O2-  O186  1  0.82076253  0.07071497  0.23541873  1
  O2-  O187  1  0.81771967  0.07655517  0.57774226  1
  O2-  O188  1  0.82783966  0.06479898  0.89978933  1
  O2-  O189  1  0.82241834  0.57178143  0.24661813  1
  O2-  O190  1  0.81605427  0.56502726  0.57501666  1
  O2-  O191  1  0.82523766  0.56920214  0.90047176  1
  O2-  O192  1  0.04130317  0.09040744  0.27017256  1
  O2-  O193  1  0.04401901  0.08377263  0.59501970  1
  O2-  O194  1  0.03985458  0.08121917  0.93111069  1
  O2-  O195  1  0.04505884  0.58244062  0.26792382  1
  O2-  O196  1  0.03822128  0.58224521  0.59562522  1
  O2-  O197  1  0.04272243  0.58441858  0.94069549  1
  O2-  O198  1  0.55175509  0.08116456  0.27433924  1
  O2-  O199  1  0.53950674  0.08001684  0.59860836  1
  O2-  O200  1  0.54246976  0.08195296  0.93304857  1
  O2-  O201  1  0.54114631  0.58717573  0.27302755  1
  O2-  O202  1  0.54081726  0.58558814  0.60438851  1
  O2-  O203  1  0.54240438  0.58580969  0.92771230  1
  O2-  O204  1  0.16137306  0.21042503  0.27158508  1
  O2-  O205  1  0.16668215  0.21674520  0.59819326  1
  O2-  O206  1  0.16090628  0.21286590  0.92819558  1
  O2-  O207  1  0.16924974  0.69777772  0.27062998  1
  O2-  O208  1  0.17643238  0.69390640  0.60343476  1
  O2-  O209  1  0.16151538  0.70306760  0.93867936  1
  O2-  O210  1  0.66830181  0.20555690  0.27493906  1
  O2-  O211  1  0.66560761  0.21035260  0.59647933  1
  O2-  O212  1  0.67201993  0.20724254  0.93303765  1
  O2-  O213  1  0.66388780  0.70178409  0.27403190  1
  O2-  O214  1  0.66277995  0.70266674  0.60268196  1
  O2-  O215  1  0.67336913  0.70526307  0.93402932  1
  O2-  O216  1  0.09098800  0.45831646  0.06427846  1
  O2-  O217  1  0.07909926  0.45438169  0.40235575  1
  O2-  O218  1  0.08543389  0.46066713  0.73092794  1
  O2-  O219  1  0.08771914  0.95601563  0.06035566  1
  O2-  O220  1  0.08225009  0.96178699  0.39756790  1
  O2-  O221  1  0.07634617  0.95516515  0.73154788  1
  O2-  O222  1  0.58199402  0.45777244  0.05855453  1
  O2-  O223  1  0.58649370  0.46278725  0.40459433  1
  O2-  O224  1  0.58706354  0.45898949  0.73179446  1
  O2-  O225  1  0.57439316  0.95438767  0.06508403  1
  O2-  O226  1  0.58046018  0.95015180  0.40267156  1
  O2-  O227  1  0.58362611  0.95679354  0.73437074  1
  O2-  O228  1  0.20454679  0.33458351  0.05861510  1
  O2-  O229  1  0.20832471  0.33197982  0.40411752  1
  O2-  O230  1  0.20563971  0.34066449  0.73228485  1
  O2-  O231  1  0.20606321  0.83493856  0.06098947  1
  O2-  O232  1  0.19874304  0.82857760  0.39736444  1
  O2-  O233  1  0.20623787  0.82871297  0.73344664  1
  O2-  O234  1  0.70051269  0.33654776  0.06198327  1
  O2-  O235  1  0.71097937  0.33537823  0.40353806  1
  O2-  O236  1  0.70322409  0.33492742  0.72981493  1
  O2-  O237  1  0.70613129  0.83291468  0.06794044  1
  O2-  O238  1  0.71071504  0.82875245  0.40012216  1
  O2-  O239  1  0.71093291  0.82921787  0.73438953  1
  O2-  O240  1  0.46371620  0.41585796  0.26843607  1
  O2-  O241  1  0.46014200  0.41667725  0.60207711  1
  O2-  O242  1  0.45284992  0.42063335  0.92975491  1
  O2-  O243  1  0.45499323  0.91287791  0.27326614  1
  O2-  O244  1  0.45752516  0.91163818  0.60499465  1
  O2-  O245  1  0.44555833  0.92245642  0.93246700  1
  O2-  O246  1  0.95361752  0.41670588  0.27077657  1
  O2-  O247  1  0.95598071  0.41461031  0.60074316  1
  O2-  O248  1  0.96308131  0.41586153  0.93613307  1
  O2-  O249  1  0.96247518  0.91750635  0.26040863  1
  O2-  O250  1  0.94893758  0.92083944  0.59781683  1
  O2-  O251  1  0.96052633  0.90868563  0.93581418  1
  O2-  O252  1  0.33235419  0.29190378  0.26788183  1
  O2-  O253  1  0.33274685  0.30580011  0.60624797  1
  O2-  O254  1  0.32965173  0.29494091  0.92972045  1
  O2-  O255  1  0.33624024  0.79276748  0.27397159  1
  O2-  O256  1  0.33893524  0.78991304  0.60395706  1
  O2-  O257  1  0.33075407  0.78514750  0.92878709  1
  O2-  O258  1  0.83475237  0.29770066  0.27027679  1
  O2-  O259  1  0.83190466  0.30174255  0.60659569  1
  O2-  O260  1  0.83290293  0.31103673  0.94104496  1
  O2-  O261  1  0.83459107  0.78665908  0.26094168  1
  O2-  O262  1  0.83309540  0.78261028  0.59650488  1
  O2-  O263  1  0.83794630  0.79189426  0.94064219  1
  O2-  O264  1  0.41044876  0.04931771  0.06100856  1
  O2-  O265  1  0.42083471  0.04587210  0.39890140  1
  O2-  O266  1  0.41744457  0.04024967  0.73700471  1
  O2-  O267  1  0.41519533  0.54882891  0.05714608  1
  O2-  O268  1  0.41848198  0.53979815  0.40407313  1
  O2-  O269  1  0.41381126  0.53932555  0.73534714  1
  O2-  O270  1  0.91987343  0.03672316  0.06729461  1
  O2-  O271  1  0.91842309  0.03959518  0.40067505  1
  O2-  O272  1  0.91695098  0.05050921  0.72428747  1
  O2-  O273  1  0.91678906  0.53870538  0.07157251  1
  O2-  O274  1  0.91632258  0.54741618  0.39803028  1
  O2-  O275  1  0.91169184  0.54019982  0.72676791  1
  O2-  O276  1  0.28557070  0.16422269  0.06016364  1
  O2-  O277  1  0.29205185  0.16788059  0.40069232  1
  O2-  O278  1  0.29428128  0.17405205  0.73415380  1
  O2-  O279  1  0.28828672  0.66060291  0.06255930  1
  O2-  O280  1  0.29681337  0.66833192  0.40296044  1
  O2-  O281  1  0.29927191  0.66328930  0.73366706  1
  O2-  O282  1  0.80729659  0.17550617  0.06067385  1
  O2-  O283  1  0.80235443  0.17180140  0.40216944  1
  O2-  O284  1  0.79581764  0.16817678  0.72922136  1
  O2-  O285  1  0.79322993  0.66686833  0.07060941  1
  O2-  O286  1  0.79524383  0.66509064  0.39809962  1
  O2-  O287  1  0.78990074  0.65822881  0.72756214  1
