# generated using pymatgen
data_Ca2Al2SiO7
_symmetry_space_group_name_H-M   'P 1'
_cell_length_a   15.47147511
_cell_length_b   15.47046018
_cell_length_c   15.29434773
_cell_angle_alpha   89.99919581
_cell_angle_beta   89.98950173
_cell_angle_gamma   89.99707377
_symmetry_Int_Tables_number   1
_chemical_formula_structural   Ca2Al2SiO7
_chemical_formula_sum   'Ca48 Al48 Si24 O168'
_cell_volume   3660.71490229
_cell_formula_units_Z   24
loop_
 _symmetry_equiv_pos_site_id
 _symmetry_equiv_pos_as_xyz
  1  'x, y, z'
loop_
 _atom_type_symbol
 _atom_type_oxidation_number
  Ca2+  2.0
  Al0+  0.0
  Si0+  0.0
  O2-  -2.0
loop_
 _atom_site_type_symbol
 _atom_site_label
 _atom_site_symmetry_multiplicity
 _atom_site_fract_x
 _atom_site_fract_y
 _atom_site_fract_z
 _atom_site_occupancy
  Ca2+  Ca0  1  0.15419591  0.07874263  0.16380155  1
  Ca2+  Ca1  1  0.17215719  0.08344790  0.51414308  1
  Ca2+  Ca2  1  0.16256106  0.08289476  0.83379045  1
  Ca2+  Ca3  1  0.16742268  0.58011716  0.17132213  1
  Ca2+  Ca4  1  0.17537805  0.57287768  0.51330809  1
  Ca2+  Ca5  1  0.16893427  0.57677333  0.82865458  1
  Ca2+  Ca6  1  0.67765569  0.08399298  0.17169908  1
  Ca2+  Ca7  1  0.66703400  0.08548350  0.50498437  1
  Ca2+  Ca8  1  0.66858181  0.07363719  0.83861310  1
  Ca2+  Ca9  1  0.67624691  0.57311154  0.17629543  1
  Ca2+  Ca10  1  0.67386141  0.57570520  0.50542437  1
  Ca2+  Ca11  1  0.67045454  0.58357859  0.82970717  1
  Ca2+  Ca12  1  0.06733902  0.32688488  0.15866370  1
  Ca2+  Ca13  1  0.07836494  0.33376649  0.50284301  1
  Ca2+  Ca14  1  0.07587711  0.32417697  0.82594170  1
  Ca2+  Ca15  1  0.07653025  0.83180857  0.15538561  1
  Ca2+  Ca16  1  0.07845937  0.83698115  0.50353536  1
  Ca2+  Ca17  1  0.07426161  0.84261972  0.82818060  1
  Ca2+  Ca18  1  0.58696271  0.33004923  0.17176968  1
  Ca2+  Ca19  1  0.57556590  0.32646206  0.49456573  1
  Ca2+  Ca20  1  0.57728733  0.32304058  0.82150411  1
  Ca2+  Ca21  1  0.58643642  0.83336080  0.16080906  1
  Ca2+  Ca22  1  0.59039097  0.82913161  0.50393633  1
  Ca2+  Ca23  1  0.59163950  0.83020755  0.82193230  1
  Ca2+  Ca24  1  0.33214725  0.41269554  0.17294014  1
  Ca2+  Ca25  1  0.33316970  0.41377912  0.51345589  1
  Ca2+  Ca26  1  0.32959774  0.41159241  0.82799453  1
  Ca2+  Ca27  1  0.32474089  0.91877192  0.16827184  1
  Ca2+  Ca28  1  0.32555845  0.92511498  0.51319991  1
  Ca2+  Ca29  1  0.32199011  0.92373457  0.83276821  1
  Ca2+  Ca30  1  0.83306276  0.41702133  0.18050056  1
  Ca2+  Ca31  1  0.84007307  0.42432365  0.50512747  1
  Ca2+  Ca32  1  0.84611077  0.42079922  0.83302868  1
  Ca2+  Ca33  1  0.83829808  0.93057381  0.16411008  1
  Ca2+  Ca34  1  0.83080998  0.92628898  0.50830099  1
  Ca2+  Ca35  1  0.82906851  0.91943400  0.83850048  1
  Ca2+  Ca36  1  0.42439229  0.16863643  0.16887711  1
  Ca2+  Ca37  1  0.42397454  0.16992874  0.49960013  1
  Ca2+  Ca38  1  0.42258230  0.16610658  0.81987733  1
  Ca2+  Ca39  1  0.42070285  0.66868735  0.16160870  1
  Ca2+  Ca40  1  0.42474147  0.65877531  0.50194693  1
  Ca2+  Ca41  1  0.42353085  0.66870068  0.82197377  1
  Ca2+  Ca42  1  0.91137880  0.17317135  0.15904547  1
  Ca2+  Ca43  1  0.91765541  0.17626511  0.49699545  1
  Ca2+  Ca44  1  0.92409758  0.16859484  0.82785869  1
  Ca2+  Ca45  1  0.91332005  0.67141638  0.16196012  1
  Ca2+  Ca46  1  0.90592123  0.67210020  0.50047086  1
  Ca2+  Ca47  1  0.91112982  0.68033648  0.82451950  1
  Al0+  Al48  1  -0.00048307  -0.00070339  0.00115129  1
  Al0+  Al49  1  -0.00238281  -0.00242431  0.33820446  1
  Al0+  Al50  1  -0.00163629  0.00034738  0.66024806  1
  Al0+  Al51  1  0.00335599  0.50119013  -0.00066399  1
  Al0+  Al52  1  0.00294497  0.50199694  0.33350108  1
  Al0+  Al53  1  0.00220676  0.50298664  0.67360122  1
  Al0+  Al54  1  0.49698845  -0.00126884  0.00414560  1
  Al0+  Al55  1  0.49739602  -0.00144309  0.32818031  1
  Al0+  Al56  1  0.49965029  -0.00269946  0.66997026  1
  Al0+  Al57  1  0.50122879  0.50191835  0.00108242  1
  Al0+  Al58  1  0.50058345  0.50138110  0.33035300  1
  Al0+  Al59  1  0.50264552  0.50110883  0.66423781  1
  Al0+  Al60  1  0.25014498  0.25182014  0.00013345  1
  Al0+  Al61  1  0.24970426  0.24716010  0.32876065  1
  Al0+  Al62  1  0.24987000  0.24991377  0.66954278  1
  Al0+  Al63  1  0.25238415  0.75044191  0.00378937  1
  Al0+  Al64  1  0.24907009  0.74886767  0.33260083  1
  Al0+  Al65  1  0.24931136  0.75055935  0.67411008  1
  Al0+  Al66  1  0.74627908  0.25248953  -0.00237023  1
  Al0+  Al67  1  0.74872968  0.24904688  0.33452964  1
  Al0+  Al68  1  0.75074113  0.25180723  0.66003221  1
  Al0+  Al69  1  0.74944099  0.74706901  0.00073990  1
  Al0+  Al70  1  0.74953542  0.75029554  0.33221060  1
  Al0+  Al71  1  0.75014404  0.74996975  0.66369699  1
  Al0+  Al72  1  0.92872603  0.82065802  0.65168409  1
  Al0+  Al73  1  0.82333395  0.57118920  0.34873838  1
  Al0+  Al74  1  0.42808102  0.32212456  0.31766518  1
  Al0+  Al75  1  0.68105311  0.93055677  0.67758683  1
  Al0+  Al76  1  0.67766420  0.92608317  0.01520461  1
  Al0+  Al77  1  0.81927359  0.07240951  0.01257789  1
  Al0+  Al78  1  0.17891634  0.42747707  0.68324509  1
  Al0+  Al79  1  0.17519271  0.92957210  0.68168983  1
  Al0+  Al80  1  0.82065013  0.07093172  0.34875409  1
  Al0+  Al81  1  0.17977650  0.93043122  0.01466283  1
  Al0+  Al82  1  0.06991333  0.17896930  0.98553641  1
  Al0+  Al83  1  0.82080418  0.57065970  0.68157145  1
  Al0+  Al84  1  0.32115065  0.07160649  0.68088412  1
  Al0+  Al85  1  0.07032092  0.17879163  0.65099175  1
  Al0+  Al86  1  0.57232842  0.17430400  0.65318718  1
  Al0+  Al87  1  0.57140727  0.17635041  0.31646944  1
  Al0+  Al88  1  0.42989054  0.32012612  0.65443420  1
  Al0+  Al89  1  0.93157884  0.32159178  0.32166650  1
  Al0+  Al90  1  0.92916913  0.81806622  0.98676977  1
  Al0+  Al91  1  0.67757476  0.42808612  0.34965024  1
  Al0+  Al92  1  0.57178139  0.67948183  0.65184050  1
  Al0+  Al93  1  0.92986900  0.32525141  0.65073957  1
  Al0+  Al94  1  0.92484764  0.32368421  0.98533372  1
  Al0+  Al95  1  0.32508905  0.57093687  0.68179585  1
  Si0+  Si96  1  0.56876147  0.17758690  0.98545258  1
  Si0+  Si97  1  0.07609533  0.67810560  0.98247531  1
  Si0+  Si98  1  0.82225498  0.56915175  0.01403426  1
  Si0+  Si99  1  0.07382960  0.67948930  0.65078990  1
  Si0+  Si100  1  0.07278448  0.68104276  0.31814833  1
  Si0+  Si101  1  0.18100768  0.42825343  0.34602074  1
  Si0+  Si102  1  0.42611856  0.81905822  0.31712638  1
  Si0+  Si103  1  0.57121920  0.68037158  0.31563793  1
  Si0+  Si104  1  0.56908066  0.68035975  0.98485764  1
  Si0+  Si105  1  0.32056329  0.57170892  0.34645486  1
  Si0+  Si106  1  0.32021177  0.06917766  0.34766005  1
  Si0+  Si107  1  0.43025998  0.32291490  0.98582213  1
  Si0+  Si108  1  0.17866607  0.92712847  0.34836050  1
  Si0+  Si109  1  0.07142952  0.17495013  0.31697825  1
  Si0+  Si110  1  0.67916150  0.42737033  0.68358793  1
  Si0+  Si111  1  0.42651528  0.82044696  0.65086287  1
  Si0+  Si112  1  0.92838694  0.82074595  0.31673723  1
  Si0+  Si113  1  0.67632176  0.43114787  0.01426390  1
  Si0+  Si114  1  0.32229925  0.56969861  0.01691171  1
  Si0+  Si115  1  0.42761840  0.82156456  0.98442074  1
  Si0+  Si116  1  0.18002818  0.42901306  0.01837387  1
  Si0+  Si117  1  0.82172680  0.07504401  0.68179713  1
  Si0+  Si118  1  0.67519789  0.92828609  0.34922833  1
  Si0+  Si119  1  0.32225263  0.07497274  0.01994011  1
  O2-  O120  1  0.25080125  0.00806738  0.06370887  1
  O2-  O121  1  0.24598060  0.00131139  0.38916990  1
  O2-  O122  1  0.24535409  0.00353206  0.73081101  1
  O2-  O123  1  0.25128161  0.50016005  0.06124885  1
  O2-  O124  1  0.25788380  0.49359290  0.38727864  1
  O2-  O125  1  0.25435001  0.49808601  0.73192701  1
  O2-  O126  1  0.74723279  0.00022816  0.06471860  1
  O2-  O127  1  0.74172535  -0.00135981  0.39255719  1
  O2-  O128  1  0.75023355  0.00896656  0.72522232  1
  O2-  O129  1  0.75691174  0.49265713  0.05525982  1
  O2-  O130  1  0.75463316  0.49590080  0.39797965  1
  O2-  O131  1  0.75129394  0.49171989  0.72981704  1
  O2-  O132  1  0.00224485  0.24345828  0.27366290  1
  O2-  O133  1  -0.00036477  0.25144887  0.60041496  1
  O2-  O134  1  -0.00545163  0.24849968  0.93767800  1
  O2-  O135  1  -0.00054329  0.74908462  0.27524256  1
  O2-  O136  1  0.00474132  0.74660576  0.60477792  1
  O2-  O137  1  0.00574719  0.74508320  0.93981095  1
  O2-  O138  1  0.50176801  0.25215885  0.26691955  1
  O2-  O139  1  0.50059461  0.24743083  0.60464168  1
  O2-  O140  1  0.49591996  0.24732667  0.94446033  1
  O2-  O141  1  0.49993059  0.75141148  0.27347378  1
  O2-  O142  1  0.49341459  0.75084364  0.60496345  1
  O2-  O143  1  0.50458147  0.75713414  0.94305044  1
  O2-  O144  1  0.06965271  0.18235479  0.09991005  1
  O2-  O145  1  0.07461371  0.17544236  0.42184666  1
  O2-  O146  1  0.06747330  0.17740993  0.76440655  1
  O2-  O147  1  0.07608288  0.67772533  0.08897438  1
  O2-  O148  1  0.07948229  0.68371185  0.42214154  1
  O2-  O149  1  0.07308887  0.68027796  0.75637924  1
  O2-  O150  1  0.56913132  0.17886750  0.09040279  1
  O2-  O151  1  0.56460607  0.17102380  0.42893226  1
  O2-  O152  1  0.57089594  0.17542580  0.76772220  1
  O2-  O153  1  0.56547207  0.67848384  0.09030517  1
  O2-  O154  1  0.57094293  0.68080322  0.42015442  1
  O2-  O155  1  0.57197736  0.68180651  0.76546956  1
  O2-  O156  1  0.18056060  0.43323038  0.24053042  1
  O2-  O157  1  0.17974589  0.43101989  0.56885066  1
  O2-  O158  1  0.18114070  0.42976855  0.91411116  1
  O2-  O159  1  0.18003196  0.92511374  0.24304255  1
  O2-  O160  1  0.17968640  0.92814320  0.56719128  1
  O2-  O161  1  0.18325166  0.92713502  0.90299136  1
  O2-  O162  1  0.67845028  0.43349489  0.23479109  1
  O2-  O163  1  0.67695719  0.43098294  0.57854278  1
  O2-  O164  1  0.66727207  0.43661089  0.91020605  1
  O2-  O165  1  0.67669718  0.92643887  0.24358942  1
  O2-  O166  1  0.68333145  0.92910747  0.56430108  1
  O2-  O167  1  0.67842345  0.92581360  0.90209926  1
  O2-  O168  1  0.43206813  0.32498372  0.09090295  1
  O2-  O169  1  0.42505845  0.32123775  0.43011665  1
  O2-  O170  1  0.43377092  0.32009252  0.76888174  1
  O2-  O171  1  0.42501770  0.81684976  0.09012113  1
  O2-  O172  1  0.42186753  0.81671473  0.42137688  1
  O2-  O173  1  0.42833858  0.81928546  0.75659921  1
  O2-  O174  1  0.92737873  0.32621776  0.09955545  1
  O2-  O175  1  0.93760551  0.32502102  0.43363698  1
  O2-  O176  1  0.93149217  0.32338923  0.76423946  1
  O2-  O177  1  0.93103420  0.81482694  0.10068875  1
  O2-  O178  1  0.92924330  0.82075630  0.42142059  1
  O2-  O179  1  0.92789321  0.81957678  0.76478888  1
  O2-  O180  1  0.32104607  0.06661655  0.24237126  1
  O2-  O181  1  0.32169705  0.06774061  0.56664648  1
  O2-  O182  1  0.32622319  0.07325466  0.91517798  1
  O2-  O183  1  0.31692567  0.57578685  0.24083005  1
  O2-  O184  1  0.32249824  0.57135931  0.56746744  1
  O2-  O185  1  0.32461857  0.56904278  0.91277215  1
  O2-  O186  1  0.82434177  0.06781429  0.23550771  1
  O2-  O187  1  0.82196657  0.07204821  0.57598851  1
  O2-  O188  1  0.81718248  0.07171949  0.89938337  1
  O2-  O189  1  0.82145173  0.57288983  0.23419367  1
  O2-  O190  1  0.81803184  0.57188112  0.56877162  1
  O2-  O191  1  0.81924253  0.57249556  0.90944643  1
  O2-  O192  1  0.04458747  0.07989033  0.27352748  1
  O2-  O193  1  0.04337704  0.08142926  0.59536764  1
  O2-  O194  1  0.04670896  0.07886767  0.93566939  1
  O2-  O195  1  0.04763597  0.58911842  0.26913906  1
  O2-  O196  1  0.04996571  0.58542120  0.60623795  1
  O2-  O197  1  0.05342258  0.58375243  0.93820730  1
  O2-  O198  1  0.53768588  0.07949625  0.26050678  1
  O2-  O199  1  0.54272193  0.07611009  0.60086944  1
  O2-  O200  1  0.54107045  0.08433611  0.94099037  1
  O2-  O201  1  0.54211933  0.59014603  0.26562723  1
  O2-  O202  1  0.54258564  0.58397335  0.59576915  1
  O2-  O203  1  0.53456623  0.59107031  0.93699743  1
  O2-  O204  1  0.16484215  0.19801102  0.26894134  1
  O2-  O205  1  0.16995833  0.20618654  0.60065900  1
  O2-  O206  1  0.16930860  0.20954594  0.93547008  1
  O2-  O207  1  0.16281049  0.71101151  0.26605926  1
  O2-  O208  1  0.16763198  0.70568181  0.60462193  1
  O2-  O209  1  0.17034558  0.70411600  0.93939731  1
  O2-  O210  1  0.67019314  0.20349445  0.26350316  1
  O2-  O211  1  0.66988236  0.20186350  0.59957782  1
  O2-  O212  1  0.65884985  0.20647962  0.93666169  1
  O2-  O213  1  0.66248474  0.70880651  0.26654942  1
  O2-  O214  1  0.66477959  0.71480628  0.59510702  1
  O2-  O215  1  0.66274916  0.70117702  0.93908534  1
  O2-  O216  1  0.08897069  0.45963848  0.06696081  1
  O2-  O217  1  0.09308309  0.46323511  0.39488304  1
  O2-  O218  1  0.08472518  0.46209196  0.74046735  1
  O2-  O219  1  0.08294076  0.95739552  0.07080777  1
  O2-  O220  1  0.08564992  0.94938168  0.39455358  1
  O2-  O221  1  0.07560477  0.95699842  0.73139635  1
  O2-  O222  1  0.58968144  0.46927986  0.06662337  1
  O2-  O223  1  0.58005653  0.46345521  0.40005776  1
  O2-  O224  1  0.58798790  0.45890042  0.73131134  1
  O2-  O225  1  0.57661459  0.94953276  0.06644893  1
  O2-  O226  1  0.57891965  0.94869095  0.39190449  1
  O2-  O227  1  0.58302153  0.95218809  0.73276679  1
  O2-  O228  1  0.20865192  0.33810906  0.06721516  1
  O2-  O229  1  0.20225442  0.33341171  0.38911059  1
  O2-  O230  1  0.20641948  0.33062283  0.73837503  1
  O2-  O231  1  0.21492322  0.83435741  0.07072224  1
  O2-  O232  1  0.21086884  0.83644166  0.39499862  1
  O2-  O233  1  0.20366687  0.83248841  0.73646678  1
  O2-  O234  1  0.69396043  0.33642279  0.05919774  1
  O2-  O235  1  0.69475184  0.32668775  0.39745365  1
  O2-  O236  1  0.69966453  0.33168569  0.72757704  1
  O2-  O237  1  0.70557595  0.82665160  0.06786630  1
  O2-  O238  1  0.70286359  0.83455936  0.39355460  1
  O2-  O239  1  0.71513703  0.83505522  0.73129599  1
  O2-  O240  1  0.45320960  0.42236641  0.26421271  1
  O2-  O241  1  0.45771360  0.41860558  0.60192157  1
  O2-  O242  1  0.46244969  0.41383286  0.93964816  1
  O2-  O243  1  0.45032339  0.91058047  0.26753751  1
  O2-  O244  1  0.45438001  0.91239007  0.60353508  1
  O2-  O245  1  0.44682166  0.91633163  0.94060330  1
  O2-  O246  1  0.96539920  0.41811509  0.26658107  1
  O2-  O247  1  0.96172227  0.42475087  0.60192575  1
  O2-  O248  1  0.95965991  0.42155562  0.93479514  1
  O2-  O249  1  0.95930713  0.91184331  0.26964771  1
  O2-  O250  1  0.95866301  0.91537834  0.59411339  1
  O2-  O251  1  0.95779566  0.91535541  0.93546208  1
  O2-  O252  1  0.33038888  0.29047220  0.26206470  1
  O2-  O253  1  0.33045324  0.29602155  0.60364765  1
  O2-  O254  1  0.33608758  0.30135617  0.94157405  1
  O2-  O255  1  0.33622692  0.78647750  0.26667078  1
  O2-  O256  1  0.33172379  0.79687238  0.60641259  1
  O2-  O257  1  0.33875701  0.78661028  0.93682464  1
  O2-  O258  1  0.83243926  0.29581493  0.27091975  1
  O2-  O259  1  0.83049205  0.30207591  0.59819468  1
  O2-  O260  1  0.82348467  0.30532686  0.93482355  1
  O2-  O261  1  0.83668860  0.79322463  0.26909449  1
  O2-  O262  1  0.83498317  0.78597164  0.59530913  1
  O2-  O263  1  0.83292008  0.78419225  0.93401256  1
  O2-  O264  1  0.41329794  0.04415087  0.06925624  1
  O2-  O265  1  0.41065373  0.03691017  0.39412494  1
  O2-  O266  1  0.41664933  0.03738576  0.73653584  1
  O2-  O267  1  0.41368397  0.54111008  0.06629953  1
  O2-  O268  1  0.41556899  0.55301772  0.38929570  1
  O2-  O269  1  0.42438452  0.54572380  0.73440847  1
  O2-  O270  1  0.91677216  0.04237469  0.06741323  1
  O2-  O271  1  0.91502290  0.03506193  0.40457662  1
  O2-  O272  1  0.91369392  0.04354381  0.72612446  1
  O2-  O273  1  0.91730556  0.55001509  0.05971005  1
  O2-  O274  1  0.92434436  0.54944827  0.39910953  1
  O2-  O275  1  0.91830433  0.54805353  0.73710559  1
  O2-  O276  1  0.29990837  0.17002432  0.06490336  1
  O2-  O277  1  0.29491607  0.16232194  0.39277552  1
  O2-  O278  1  0.29833097  0.16988423  0.73480153  1
  O2-  O279  1  0.29547937  0.66149988  0.06587816  1
  O2-  O280  1  0.28656536  0.66077604  0.39491411  1
  O2-  O281  1  0.29544303  0.66812802  0.73656371  1
  O2-  O282  1  0.78913708  0.17182537  0.06490362  1
  O2-  O283  1  0.79414342  0.16810929  0.40154085  1
  O2-  O284  1  0.80114430  0.17049422  0.72515052  1
  O2-  O285  1  0.78846571  0.65781478  0.06437627  1
  O2-  O286  1  0.79025901  0.66971752  0.39860653  1
  O2-  O287  1  0.78324032  0.66540978  0.73480956  1
