# generated using pymatgen
data_Ca2Al2SiO7
_symmetry_space_group_name_H-M   'P 1'
_cell_length_a   15.45770654
_cell_length_b   15.45705489
_cell_length_c   15.28275994
_cell_angle_alpha   90.01074299
_cell_angle_beta   89.99887103
_cell_angle_gamma   90.00090780
_symmetry_Int_Tables_number   1
_chemical_formula_structural   Ca2Al2SiO7
_chemical_formula_sum   'Ca48 Al48 Si24 O168'
_cell_volume   3651.51921622
_cell_formula_units_Z   24
loop_
 _symmetry_equiv_pos_site_id
 _symmetry_equiv_pos_as_xyz
  1  'x, y, z'
loop_
 _atom_type_symbol
 _atom_type_oxidation_number
  Ca2+  2.0
  Al0+  0.0
  Si0+  0.0
  O2-  -2.0
loop_
 _atom_site_type_symbol
 _atom_site_label
 _atom_site_symmetry_multiplicity
 _atom_site_fract_x
 _atom_site_fract_y
 _atom_site_fract_z
 _atom_site_occupancy
  Ca2+  Ca0  1  0.17283825  0.08678306  0.17006948  1
  Ca2+  Ca1  1  0.16605363  0.08182940  0.50468568  1
  Ca2+  Ca2  1  0.17129209  0.07435696  0.83569970  1
  Ca2+  Ca3  1  0.17346550  0.57809211  0.17629596  1
  Ca2+  Ca4  1  0.18200663  0.57323492  0.50647238  1
  Ca2+  Ca5  1  0.16996390  0.58118149  0.83399493  1
  Ca2+  Ca6  1  0.66081191  0.07364817  0.17179396  1
  Ca2+  Ca7  1  0.65670006  0.07271172  0.50244416  1
  Ca2+  Ca8  1  0.67063985  0.07067464  0.84232461  1
  Ca2+  Ca9  1  0.66915291  0.58256084  0.17369404  1
  Ca2+  Ca10  1  0.65705673  0.58094091  0.50138184  1
  Ca2+  Ca11  1  0.67133716  0.58759938  0.83467002  1
  Ca2+  Ca12  1  0.09052800  0.32864343  0.16663603  1
  Ca2+  Ca13  1  0.08384942  0.33652664  0.49662026  1
  Ca2+  Ca14  1  0.07745094  0.33278127  0.82359915  1
  Ca2+  Ca15  1  0.08148131  0.82249829  0.15780518  1
  Ca2+  Ca16  1  0.07697380  0.84133458  0.49914581  1
  Ca2+  Ca17  1  0.07928427  0.82864959  0.82555784  1
  Ca2+  Ca18  1  0.57315788  0.33824738  0.16663706  1
  Ca2+  Ca19  1  0.57321453  0.33178222  0.48923658  1
  Ca2+  Ca20  1  0.57083950  0.33237491  0.82672967  1
  Ca2+  Ca21  1  0.58379074  0.83273861  0.16448969  1
  Ca2+  Ca22  1  0.58600930  0.82394909  0.49811096  1
  Ca2+  Ca23  1  0.57856158  0.83448408  0.82582592  1
  Ca2+  Ca24  1  0.33427228  0.42079045  0.17787732  1
  Ca2+  Ca25  1  0.33478111  0.42174139  0.50609537  1
  Ca2+  Ca26  1  0.33522078  0.41873244  0.83212526  1
  Ca2+  Ca27  1  0.34194481  0.92283909  0.16552886  1
  Ca2+  Ca28  1  0.32895776  0.91829158  0.51025625  1
  Ca2+  Ca29  1  0.33697390  0.91743161  0.83909369  1
  Ca2+  Ca30  1  0.82667172  0.42359397  0.17135351  1
  Ca2+  Ca31  1  0.82698030  0.41290491  0.50334282  1
  Ca2+  Ca32  1  0.83332291  0.42085055  0.83910846  1
  Ca2+  Ca33  1  0.82100528  0.92066444  0.16923174  1
  Ca2+  Ca34  1  0.82298536  0.91539930  0.50703614  1
  Ca2+  Ca35  1  0.82256361  0.91296566  0.83749013  1
  Ca2+  Ca36  1  0.41875198  0.17676506  0.16206857  1
  Ca2+  Ca37  1  0.41833152  0.17903399  0.49321787  1
  Ca2+  Ca38  1  0.40959312  0.17496587  0.83215082  1
  Ca2+  Ca39  1  0.42108710  0.66957011  0.16359430  1
  Ca2+  Ca40  1  0.42165462  0.66411186  0.49850185  1
  Ca2+  Ca41  1  0.42223751  0.67772442  0.82279358  1
  Ca2+  Ca42  1  0.92093978  0.16360854  0.16453696  1
  Ca2+  Ca43  1  0.92422965  0.17156162  0.49569423  1
  Ca2+  Ca44  1  0.91261743  0.17054614  0.82696399  1
  Ca2+  Ca45  1  0.92278553  0.66204313  0.15841515  1
  Ca2+  Ca46  1  0.91625652  0.67469933  0.49994240  1
  Ca2+  Ca47  1  0.92129796  0.66704267  0.82929940  1
  Al0+  Al48  1  -0.00055142  -0.00217255  0.00246758  1
  Al0+  Al49  1  -0.00169781  0.00204377  0.32698032  1
  Al0+  Al50  1  0.00082555  0.00007811  0.66758347  1
  Al0+  Al51  1  0.00052219  0.49833699  0.00036423  1
  Al0+  Al52  1  0.00017982  0.50212642  0.33761518  1
  Al0+  Al53  1  0.00006784  0.49900229  0.66356288  1
  Al0+  Al54  1  0.49849498  0.00066343  0.00483487  1
  Al0+  Al55  1  0.49894353  0.00047674  0.33672107  1
  Al0+  Al56  1  0.49966454  -0.00052871  0.66944915  1
  Al0+  Al57  1  0.49870865  0.49998482  -0.00576719  1
  Al0+  Al58  1  0.50274730  0.50327891  0.33153784  1
  Al0+  Al59  1  0.50036238  0.49963084  0.66608626  1
  Al0+  Al60  1  0.24874261  0.24835174  -0.00240379  1
  Al0+  Al61  1  0.24765936  0.24974655  0.32951984  1
  Al0+  Al62  1  0.24931886  0.25032674  0.66667534  1
  Al0+  Al63  1  0.25039224  0.74719201  -0.00782354  1
  Al0+  Al64  1  0.24866940  0.75108582  0.33706105  1
  Al0+  Al65  1  0.25015776  0.74921249  0.67072680  1
  Al0+  Al66  1  0.74996260  0.24942517  0.00391554  1
  Al0+  Al67  1  0.75170308  0.24969706  0.33270106  1
  Al0+  Al68  1  0.75090147  0.25004639  0.66249820  1
  Al0+  Al69  1  0.75190264  0.74841953  0.00934877  1
  Al0+  Al70  1  0.74925054  0.75288696  0.33229803  1
  Al0+  Al71  1  0.75136881  0.74989365  0.66338860  1
  Al0+  Al72  1  0.17854051  0.42828695  0.68357427  1
  Al0+  Al73  1  0.31808944  0.07111245  0.01462716  1
  Al0+  Al74  1  0.32287812  0.57289995  0.34760983  1
  Al0+  Al75  1  0.82278439  0.07326997  0.01598428  1
  Al0+  Al76  1  0.92786167  0.32255128  0.65276286  1
  Al0+  Al77  1  0.57184626  0.68043542  0.65198047  1
  Al0+  Al78  1  0.67967104  0.92832134  0.68043547  1
  Al0+  Al79  1  0.32408732  0.57020739  0.68526006  1
  Al0+  Al80  1  0.67786578  0.92885329  0.01687467  1
  Al0+  Al81  1  0.57088623  0.68112174  0.31784830  1
  Al0+  Al82  1  0.42881421  0.31939998  0.65248385  1
  Al0+  Al83  1  0.57190502  0.17675183  0.31822767  1
  Al0+  Al84  1  0.42979476  0.32202959  0.31821233  1
  Al0+  Al85  1  0.07091023  0.67612937  0.98574433  1
  Al0+  Al86  1  0.68093522  0.42953542  0.34639425  1
  Al0+  Al87  1  0.43134992  0.82131713  0.98728390  1
  Al0+  Al88  1  0.93082308  0.82082356  0.65395445  1
  Al0+  Al89  1  0.06968559  0.17986703  0.31826427  1
  Al0+  Al90  1  0.82184656  0.56871260  0.01253896  1
  Al0+  Al91  1  0.67836257  0.93065635  0.35079698  1
  Al0+  Al92  1  0.42805770  0.32109638  0.98416841  1
  Al0+  Al93  1  0.17895960  0.42742469  0.34808630  1
  Al0+  Al94  1  0.42685813  0.82343140  0.65139181  1
  Al0+  Al95  1  0.17755818  0.92856875  0.68001148  1
  Si0+  Si96  1  0.67959796  0.42696969  0.68130985  1
  Si0+  Si97  1  0.17934172  0.42892810  0.01433769  1
  Si0+  Si98  1  0.32129619  0.57098785  0.01404144  1
  Si0+  Si99  1  0.57240917  0.17804218  0.98390635  1
  Si0+  Si100  1  0.67560286  0.42827122  0.01500791  1
  Si0+  Si101  1  0.07045437  0.17698523  0.98361232  1
  Si0+  Si102  1  0.07093644  0.17866614  0.65157493  1
  Si0+  Si103  1  0.42450925  0.82246164  0.31768478  1
  Si0+  Si104  1  0.92862282  0.82182753  0.31592882  1
  Si0+  Si105  1  0.57332028  0.17793388  0.65193708  1
  Si0+  Si106  1  0.82107131  0.57046712  0.67986214  1
  Si0+  Si107  1  0.82213129  0.07254617  0.68117177  1
  Si0+  Si108  1  0.32179774  0.07171022  0.68291334  1
  Si0+  Si109  1  0.92896539  0.31956163  0.98693403  1
  Si0+  Si110  1  0.31934021  0.07095656  0.34824577  1
  Si0+  Si111  1  0.57449500  0.67798804  0.98416358  1
  Si0+  Si112  1  0.92797942  0.32500826  0.31496403  1
  Si0+  Si113  1  0.07293651  0.67675043  0.64795980  1
  Si0+  Si114  1  0.92821181  0.82053227  0.98427912  1
  Si0+  Si115  1  0.17853297  0.92471811  0.01646449  1
  Si0+  Si116  1  0.07036310  0.68069796  0.32006672  1
  Si0+  Si117  1  0.17655940  0.92968571  0.34586931  1
  Si0+  Si118  1  0.82291684  0.57386556  0.35200842  1
  Si0+  Si119  1  0.82436662  0.07145974  0.35170528  1
  O2-  O120  1  0.24576959  -0.00625615  0.06246505  1
  O2-  O121  1  0.24800983  -0.00059921  0.38904291  1
  O2-  O122  1  0.25659586  -0.00125126  0.72632561  1
  O2-  O123  1  0.25214696  0.49807328  0.05646890  1
  O2-  O124  1  0.25526211  0.49557105  0.39618743  1
  O2-  O125  1  0.25007364  0.49932888  0.73548752  1
  O2-  O126  1  0.74872529  0.00349301  0.06572475  1
  O2-  O127  1  0.75103656  0.00849064  0.39649828  1
  O2-  O128  1  0.75343149  0.00471190  0.72602144  1
  O2-  O129  1  0.74410648  0.49747763  0.05878779  1
  O2-  O130  1  0.75551333  0.50390471  0.39558532  1
  O2-  O131  1  0.75114122  0.49822471  0.72261740  1
  O2-  O132  1  -0.00207154  0.25747160  0.27068833  1
  O2-  O133  1  0.00412039  0.24914369  0.60755029  1
  O2-  O134  1  -0.00552330  0.24371897  0.94346209  1
  O2-  O135  1  -0.00140520  0.74928106  0.27468164  1
  O2-  O136  1  0.00813679  0.74993713  0.60411591  1
  O2-  O137  1  -0.00261718  0.75255134  0.93997453  1
  O2-  O138  1  0.50273130  0.25104278  0.26707468  1
  O2-  O139  1  0.50427183  0.24552306  0.60717501  1
  O2-  O140  1  0.50478163  0.24728167  0.93849742  1
  O2-  O141  1  0.49360598  0.75426933  0.27333733  1
  O2-  O142  1  0.49808930  0.75087254  0.60162539  1
  O2-  O143  1  0.50877387  0.74937792  0.94094834  1
  O2-  O144  1  0.07256448  0.17982188  0.08863127  1
  O2-  O145  1  0.06666539  0.17436733  0.43101326  1
  O2-  O146  1  0.06871798  0.17763841  0.75742653  1
  O2-  O147  1  0.06996453  0.67682421  0.09966694  1
  O2-  O148  1  0.06899172  0.68415894  0.42465986  1
  O2-  O149  1  0.06775043  0.67524874  0.75381308  1
  O2-  O150  1  0.57069561  0.17964630  0.08919644  1
  O2-  O151  1  0.56611458  0.17620962  0.43206552  1
  O2-  O152  1  0.57580098  0.18126347  0.75773428  1
  O2-  O153  1  0.57193892  0.67535315  0.08969975  1
  O2-  O154  1  0.57329204  0.68267390  0.43030741  1
  O2-  O155  1  0.57533154  0.68233887  0.76603114  1
  O2-  O156  1  0.17753779  0.43137057  0.23356691  1
  O2-  O157  1  0.17897880  0.42910373  0.57046394  1
  O2-  O158  1  0.17685384  0.42965393  0.90963465  1
  O2-  O159  1  0.17662575  0.92840667  0.24079374  1
  O2-  O160  1  0.17445157  0.93539922  0.56636632  1
  O2-  O161  1  0.17759348  0.92738346  0.91102996  1
  O2-  O162  1  0.68285651  0.43280497  0.23286676  1
  O2-  O163  1  0.68086932  0.42564160  0.57639030  1
  O2-  O164  1  0.67742688  0.42735459  0.90903978  1
  O2-  O165  1  0.68064097  0.92961135  0.23788229  1
  O2-  O166  1  0.68177506  0.92911440  0.56738480  1
  O2-  O167  1  0.68035979  0.92785615  0.90301777  1
  O2-  O168  1  0.42763623  0.32311742  0.09685554  1
  O2-  O169  1  0.42962646  0.31931155  0.43171798  1
  O2-  O170  1  0.42978580  0.31702806  0.76603366  1
  O2-  O171  1  0.42945772  0.81791404  0.10068988  1
  O2-  O172  1  0.42185574  0.82305482  0.42281071  1
  O2-  O173  1  0.43116193  0.82434018  0.76522567  1
  O2-  O174  1  0.93232036  0.32239991  0.09162863  1
  O2-  O175  1  0.92830060  0.32336645  0.42062992  1
  O2-  O176  1  0.92645852  0.32027141  0.76656697  1
  O2-  O177  1  0.93084425  0.81961205  0.09024721  1
  O2-  O178  1  0.93028592  0.82286430  0.42119336  1
  O2-  O179  1  0.93001429  0.81737691  0.76700409  1
  O2-  O180  1  0.31860938  0.07014702  0.24305723  1
  O2-  O181  1  0.31942640  0.07337790  0.57704603  1
  O2-  O182  1  0.31412373  0.07251246  0.90165275  1
  O2-  O183  1  0.31820608  0.57597703  0.23303792  1
  O2-  O184  1  0.32438231  0.56791488  0.57173759  1
  O2-  O185  1  0.32084564  0.57044770  0.90953624  1
  O2-  O186  1  0.82847793  0.06608466  0.24641937  1
  O2-  O187  1  0.82325470  0.07215132  0.57570590  1
  O2-  O188  1  0.82166983  0.07393769  0.90204082  1
  O2-  O189  1  0.82503995  0.57196123  0.24608978  1
  O2-  O190  1  0.82116831  0.57048154  0.57490505  1
  O2-  O191  1  0.82251228  0.56662776  0.89913655  1
  O2-  O192  1  0.03722008  0.08483348  0.26027031  1
  O2-  O193  1  0.04332565  0.08648528  0.60378852  1
  O2-  O194  1  0.04765099  0.08245797  0.93900937  1
  O2-  O195  1  0.04349328  0.58815858  0.27288189  1
  O2-  O196  1  0.04173449  0.58587331  0.60025370  1
  O2-  O197  1  0.03681581  0.58079010  0.93122527  1
  O2-  O198  1  0.53885273  0.07915013  0.26582521  1
  O2-  O199  1  0.54719088  0.08401713  0.60803087  1
  O2-  O200  1  0.54550099  0.08448473  0.93904776  1
  O2-  O201  1  0.54417806  0.58487567  0.26161465  1
  O2-  O202  1  0.54535829  0.58064356  0.60121324  1
  O2-  O203  1  0.54796774  0.58551133  0.93613094  1
  O2-  O204  1  0.16560546  0.20782096  0.26112020  1
  O2-  O205  1  0.16444637  0.20223676  0.60506636  1
  O2-  O206  1  0.15927492  0.20905975  0.93372227  1
  O2-  O207  1  0.16134623  0.71050347  0.27143454  1
  O2-  O208  1  0.16822491  0.69806848  0.60567757  1
  O2-  O209  1  0.16595428  0.70523466  0.92906942  1
  O2-  O210  1  0.67366233  0.19834851  0.26926581  1
  O2-  O211  1  0.66611087  0.20195026  0.60370364  1
  O2-  O212  1  0.66737303  0.20189511  0.93901202  1
  O2-  O213  1  0.66773325  0.71350442  0.26362733  1
  O2-  O214  1  0.66951488  0.70835663  0.59725286  1
  O2-  O215  1  0.67098555  0.70010115  0.94260506  1
  O2-  O216  1  0.08860695  0.45743234  0.06322396  1
  O2-  O217  1  0.08125415  0.45882890  0.40131250  1
  O2-  O218  1  0.07816288  0.45684927  0.73431281  1
  O2-  O219  1  0.08429339  0.94816429  0.06240337  1
  O2-  O220  1  0.08450643  0.95997381  0.39166543  1
  O2-  O221  1  0.08309907  0.96347210  0.73732349  1
  O2-  O222  1  0.58191454  0.45550059  0.06002329  1
  O2-  O223  1  0.58503879  0.46112896  0.40020593  1
  O2-  O224  1  0.58896338  0.45508667  0.72999796  1
  O2-  O225  1  0.57994781  0.95682998  0.07068531  1
  O2-  O226  1  0.58061966  0.95891876  0.40413976  1
  O2-  O227  1  0.58310080  0.95833311  0.73491539  1
  O2-  O228  1  0.20524725  0.33579095  0.05968516  1
  O2-  O229  1  0.19913448  0.32589530  0.39747761  1
  O2-  O230  1  0.20392604  0.32827400  0.73551545  1
  O2-  O231  1  0.20451233  0.82998933  0.06019451  1
  O2-  O232  1  0.20107263  0.83857043  0.39576818  1
  O2-  O233  1  0.19872012  0.82986809  0.73302522  1
  O2-  O234  1  0.70103149  0.33543602  0.06188559  1
  O2-  O235  1  0.71082639  0.33214960  0.40035754  1
  O2-  O236  1  0.70881190  0.33547240  0.72917592  1
  O2-  O237  1  0.70840676  0.83167116  0.07154773  1
  O2-  O238  1  0.71493810  0.83500168  0.40290262  1
  O2-  O239  1  0.71543637  0.83277351  0.73349280  1
  O2-  O240  1  0.45891411  0.42052885  0.26580977  1
  O2-  O241  1  0.46123704  0.41535389  0.60048587  1
  O2-  O242  1  0.45850533  0.41725303  0.92850015  1
  O2-  O243  1  0.45182813  0.91626442  0.27312016  1
  O2-  O244  1  0.45268158  0.92346643  0.60025872  1
  O2-  O245  1  0.45684622  0.92042774  0.93554741  1
  O2-  O246  1  0.95203953  0.42055026  0.27150312  1
  O2-  O247  1  0.95575685  0.41851160  0.59667432  1
  O2-  O248  1  0.96153359  0.40884282  0.93728687  1
  O2-  O249  1  0.95816250  0.91194719  0.26692335  1
  O2-  O250  1  0.96027426  0.91804767  0.59946566  1
  O2-  O251  1  0.95227841  0.91463238  0.93846274  1
  O2-  O252  1  0.33116267  0.29279477  0.26617583  1
  O2-  O253  1  0.33207586  0.28849351  0.59928670  1
  O2-  O254  1  0.33199384  0.28678596  0.93078611  1
  O2-  O255  1  0.33041102  0.79811603  0.27070161  1
  O2-  O256  1  0.32575712  0.79897618  0.60208605  1
  O2-  O257  1  0.33559794  0.79006408  0.93209250  1
  O2-  O258  1  0.83542882  0.29842031  0.26769048  1
  O2-  O259  1  0.83290663  0.29052430  0.59581772  1
  O2-  O260  1  0.83480236  0.29798274  0.94027290  1
  O2-  O261  1  0.83740665  0.79407390  0.26845212  1
  O2-  O262  1  0.83748669  0.78619743  0.59651036  1
  O2-  O263  1  0.83435493  0.79233262  0.94071480  1
  O2-  O264  1  0.41443306  0.04345492  0.06992785  1
  O2-  O265  1  0.40976265  0.04394594  0.39780928  1
  O2-  O266  1  0.41581293  0.05100119  0.73019525  1
  O2-  O267  1  0.41451249  0.54454816  0.05980607  1
  O2-  O268  1  0.42294482  0.54999665  0.39737100  1
  O2-  O269  1  0.42214601  0.53967228  0.73861093  1
  O2-  O270  1  0.92134762  0.04322081  0.06928751  1
  O2-  O271  1  0.91623266  0.03942760  0.39862683  1
  O2-  O272  1  0.91556502  0.04828917  0.72785839  1
  O2-  O273  1  0.91658877  0.53348728  0.06885826  1
  O2-  O274  1  0.91658173  0.55116564  0.39922737  1
  O2-  O275  1  0.91289237  0.54292964  0.72717086  1
  O2-  O276  1  0.28280026  0.16642250  0.06915343  1
  O2-  O277  1  0.28888573  0.16191391  0.39509244  1
  O2-  O278  1  0.29081618  0.16309205  0.73042714  1
  O2-  O279  1  0.29125818  0.66233929  0.06092138  1
  O2-  O280  1  0.28857616  0.66921132  0.40228160  1
  O2-  O281  1  0.29624805  0.66930467  0.73695568  1
  O2-  O282  1  0.80072690  0.17332437  0.06921511  1
  O2-  O283  1  0.80750853  0.16832644  0.39351623  1
  O2-  O284  1  0.79682155  0.16690744  0.72693159  1
  O2-  O285  1  0.79761984  0.66453242  0.07081074  1
  O2-  O286  1  0.79671748  0.66819832  0.39519493  1
  O2-  O287  1  0.79234827  0.66123097  0.72859702  1
