# generated using pymatgen
data_Ca2Al2SiO7
_symmetry_space_group_name_H-M   'P 1'
_cell_length_a   15.46185193
_cell_length_b   15.46113689
_cell_length_c   15.28652488
_cell_angle_alpha   90.00140282
_cell_angle_beta   89.99390694
_cell_angle_gamma   90.00282121
_symmetry_Int_Tables_number   1
_chemical_formula_structural   Ca2Al2SiO7
_chemical_formula_sum   'Ca48 Al48 Si24 O168'
_cell_volume   3654.36312365
_cell_formula_units_Z   24
loop_
 _symmetry_equiv_pos_site_id
 _symmetry_equiv_pos_as_xyz
  1  'x, y, z'
loop_
 _atom_type_symbol
 _atom_type_oxidation_number
  Ca2+  2.0
  Al0+  0.0
  Si0+  0.0
  O2-  -2.0
loop_
 _atom_site_type_symbol
 _atom_site_label
 _atom_site_symmetry_multiplicity
 _atom_site_fract_x
 _atom_site_fract_y
 _atom_site_fract_z
 _atom_site_occupancy
  Ca2+  Ca0  1  0.17744206  0.07555848  0.17019249  1
  Ca2+  Ca1  1  0.17394299  0.07767952  0.50061700  1
  Ca2+  Ca2  1  0.17774923  0.07426132  0.84044165  1
  Ca2+  Ca3  1  0.17962520  0.59024669  0.16808512  1
  Ca2+  Ca4  1  0.16982712  0.58577192  0.50198595  1
  Ca2+  Ca5  1  0.17076895  0.58776996  0.84219099  1
  Ca2+  Ca6  1  0.66625476  0.07908526  0.17011235  1
  Ca2+  Ca7  1  0.67251252  0.06615384  0.50826439  1
  Ca2+  Ca8  1  0.67377163  0.07987164  0.83662836  1
  Ca2+  Ca9  1  0.65907319  0.57811002  0.17573599  1
  Ca2+  Ca10  1  0.65708400  0.58104327  0.50151534  1
  Ca2+  Ca11  1  0.66048025  0.58703164  0.83630305  1
  Ca2+  Ca12  1  0.07621710  0.33441980  0.16577583  1
  Ca2+  Ca13  1  0.07494836  0.32888426  0.49249731  1
  Ca2+  Ca14  1  0.08301087  0.32912334  0.82785854  1
  Ca2+  Ca15  1  0.08357389  0.83945225  0.16283587  1
  Ca2+  Ca16  1  0.07280465  0.84052903  0.49583028  1
  Ca2+  Ca17  1  0.08628658  0.82681460  0.82797300  1
  Ca2+  Ca18  1  0.57936595  0.32675272  0.15809013  1
  Ca2+  Ca19  1  0.58025862  0.33089473  0.49675032  1
  Ca2+  Ca20  1  0.57091276  0.32321239  0.83416922  1
  Ca2+  Ca21  1  0.58669731  0.82252405  0.16447514  1
  Ca2+  Ca22  1  0.58832365  0.82783855  0.49570783  1
  Ca2+  Ca23  1  0.58096273  0.82498072  0.82371279  1
  Ca2+  Ca24  1  0.34325409  0.42786193  0.16766103  1
  Ca2+  Ca25  1  0.33935386  0.42479187  0.50355684  1
  Ca2+  Ca26  1  0.33963980  0.42030259  0.83840700  1
  Ca2+  Ca27  1  0.32330489  0.92196654  0.17377538  1
  Ca2+  Ca28  1  0.33679417  0.92672226  0.50590947  1
  Ca2+  Ca29  1  0.33476495  0.92215447  0.83942275  1
  Ca2+  Ca30  1  0.82526611  0.41953688  0.17660425  1
  Ca2+  Ca31  1  0.82738935  0.41492438  0.50050906  1
  Ca2+  Ca32  1  0.82940092  0.42157751  0.83825868  1
  Ca2+  Ca33  1  0.82938547  0.91979754  0.17262741  1
  Ca2+  Ca34  1  0.82679408  0.90790438  0.50621717  1
  Ca2+  Ca35  1  0.83187495  0.91969946  0.83265845  1
  Ca2+  Ca36  1  0.41912807  0.16735448  0.15649923  1
  Ca2+  Ca37  1  0.40758436  0.16981009  0.49713581  1
  Ca2+  Ca38  1  0.40790739  0.17247216  0.82902343  1
  Ca2+  Ca39  1  0.42292708  0.66083457  0.16088593  1
  Ca2+  Ca40  1  0.42331411  0.67521144  0.49740949  1
  Ca2+  Ca41  1  0.42239566  0.67285273  0.82831666  1
  Ca2+  Ca42  1  0.91030306  0.17159645  0.16206535  1
  Ca2+  Ca43  1  0.91272231  0.16795307  0.49450466  1
  Ca2+  Ca44  1  0.91338999  0.16000083  0.83066005  1
  Ca2+  Ca45  1  0.92393821  0.67711999  0.16206649  1
  Ca2+  Ca46  1  0.92175068  0.67810483  0.49764784  1
  Ca2+  Ca47  1  0.93030471  0.67487719  0.82510087  1
  Al0+  Al48  1  -0.00313659  0.00300585  0.00750990  1
  Al0+  Al49  1  0.00190310  0.00218770  0.33031842  1
  Al0+  Al50  1  0.00145254  0.00028878  0.66635186  1
  Al0+  Al51  1  -0.00136976  0.50202609  -0.00272011  1
  Al0+  Al52  1  -0.00001266  0.50053823  0.32819487  1
  Al0+  Al53  1  -0.00059129  0.49813272  0.66327390  1
  Al0+  Al54  1  0.50378267  -0.00120175  0.00055753  1
  Al0+  Al55  1  0.50130427  0.00004746  0.34034753  1
  Al0+  Al56  1  0.50185911  0.00140914  0.67395672  1
  Al0+  Al57  1  0.49995485  0.49770852  -0.00452476  1
  Al0+  Al58  1  0.50030761  0.49933675  0.33958097  1
  Al0+  Al59  1  0.49893971  0.49730215  0.66185167  1
  Al0+  Al60  1  0.24598097  0.25132196  0.00032833  1
  Al0+  Al61  1  0.24826179  0.25235820  0.33316375  1
  Al0+  Al62  1  0.24791911  0.25153570  0.66438850  1
  Al0+  Al63  1  0.25006573  0.74865233  0.00472201  1
  Al0+  Al64  1  0.24982556  0.75093131  0.34333106  1
  Al0+  Al65  1  0.25364116  0.74823841  0.65905406  1
  Al0+  Al66  1  0.74795454  0.25117416  -0.00147868  1
  Al0+  Al67  1  0.74798166  0.25188898  0.33328563  1
  Al0+  Al68  1  0.74796648  0.25116236  0.67140512  1
  Al0+  Al69  1  0.75211804  0.74963647  -0.00439239  1
  Al0+  Al70  1  0.75250060  0.74877699  0.32637500  1
  Al0+  Al71  1  0.75260428  0.74622840  0.66543249  1
  Al0+  Al72  1  0.32219339  0.07249874  0.34844781  1
  Al0+  Al73  1  0.07174225  0.68111778  0.98787079  1
  Al0+  Al74  1  0.92693654  0.32066074  0.31919643  1
  Al0+  Al75  1  0.68171424  0.92661353  0.34553369  1
  Al0+  Al76  1  0.56826924  0.67950860  0.31901387  1
  Al0+  Al77  1  0.32377549  0.07307858  0.01412310  1
  Al0+  Al78  1  0.43025607  0.82553154  0.65208076  1
  Al0+  Al79  1  0.81771106  0.07189494  0.01579361  1
  Al0+  Al80  1  0.32015187  0.07271849  0.68125077  1
  Al0+  Al81  1  0.93244147  0.82166029  0.65245422  1
  Al0+  Al82  1  0.42791911  0.31753556  0.65056800  1
  Al0+  Al83  1  0.07392190  0.67588187  0.65026825  1
  Al0+  Al84  1  0.57227767  0.17561085  0.98503442  1
  Al0+  Al85  1  0.82199602  0.07169049  0.68079632  1
  Al0+  Al86  1  0.67945051  0.42916571  0.34772585  1
  Al0+  Al87  1  0.17956211  0.92815629  0.01375380  1
  Al0+  Al88  1  0.57133380  0.67833856  0.98696562  1
  Al0+  Al89  1  0.17702122  0.92943815  0.35103787  1
  Al0+  Al90  1  0.42653319  0.31838596  0.98628366  1
  Al0+  Al91  1  0.32111887  0.56791056  0.01101541  1
  Al0+  Al92  1  0.67981565  0.92431189  0.68346361  1
  Al0+  Al93  1  0.93037325  0.82202835  0.31714244  1
  Al0+  Al94  1  0.32192518  0.57040652  0.34934450  1
  Al0+  Al95  1  0.57143425  0.67879852  0.65098270  1
  Si0+  Si96  1  0.56975319  0.17833199  0.32055251  1
  Si0+  Si97  1  0.82295529  0.56803434  0.68211805  1
  Si0+  Si98  1  0.68068424  0.43232266  0.01383239  1
  Si0+  Si99  1  0.92881541  0.82512553  0.98264801  1
  Si0+  Si100  1  0.67712399  0.42936697  0.68496044  1
  Si0+  Si101  1  0.42778368  0.82126944  0.98731853  1
  Si0+  Si102  1  0.32128037  0.56947151  0.68191482  1
  Si0+  Si103  1  0.17570882  0.42936895  0.34983696  1
  Si0+  Si104  1  0.17297510  0.42773887  0.01660954  1
  Si0+  Si105  1  0.92769314  0.32204550  0.98366157  1
  Si0+  Si106  1  0.07241492  0.17985253  0.31358854  1
  Si0+  Si107  1  0.82069743  0.07288960  0.34752547  1
  Si0+  Si108  1  0.42843694  0.32108999  0.31898387  1
  Si0+  Si109  1  0.57396807  0.17902162  0.64943705  1
  Si0+  Si110  1  0.07017264  0.18022055  0.65220430  1
  Si0+  Si111  1  0.17728802  0.43018536  0.68068188  1
  Si0+  Si112  1  0.17949380  0.92682530  0.68201434  1
  Si0+  Si113  1  0.06811859  0.17954571  0.98482368  1
  Si0+  Si114  1  0.42737480  0.82414404  0.31726268  1
  Si0+  Si115  1  0.92649586  0.32058302  0.65267558  1
  Si0+  Si116  1  0.82306948  0.57205025  0.01485420  1
  Si0+  Si117  1  0.07439175  0.67809050  0.31538755  1
  Si0+  Si118  1  0.82353625  0.57144384  0.34932564  1
  Si0+  Si119  1  0.67921524  0.92366077  0.01758244  1
  O2-  O120  1  0.25418463  -0.00160044  0.06303426  1
  O2-  O121  1  0.25285059  -0.00162392  0.39926207  1
  O2-  O122  1  0.25145438  -0.00820344  0.72672336  1
  O2-  O123  1  0.24533540  0.49347413  0.05852514  1
  O2-  O124  1  0.24424305  0.49707429  0.39490078  1
  O2-  O125  1  0.24485324  0.50354295  0.72348999  1
  O2-  O126  1  0.74396760  -0.00345764  0.06169737  1
  O2-  O127  1  0.75849666  -0.00035142  0.39228509  1
  O2-  O128  1  0.75178580  -0.00157003  0.73116716  1
  O2-  O129  1  0.74851172  0.50547164  0.05785835  1
  O2-  O130  1  0.75420119  0.50380235  0.39486595  1
  O2-  O131  1  0.74754566  0.50180115  0.72575105  1
  O2-  O132  1  0.00036912  0.24633315  0.27023548  1
  O2-  O133  1  -0.00707290  0.24564284  0.61092967  1
  O2-  O134  1  -0.00155705  0.25169720  0.94059608  1
  O2-  O135  1  0.00889575  0.75011008  0.27157426  1
  O2-  O136  1  0.00646868  0.75213747  0.60114320  1
  O2-  O137  1  0.00065894  0.75864074  0.94054756  1
  O2-  O138  1  0.49493693  0.24574687  0.27822919  1
  O2-  O139  1  0.49975281  0.24063613  0.60308416  1
  O2-  O140  1  0.49099161  0.23892879  0.93662992  1
  O2-  O141  1  0.49345521  0.75352402  0.27113921  1
  O2-  O142  1  0.50566905  0.75659118  0.60179351  1
  O2-  O143  1  0.49909054  0.75538853  0.94234400  1
  O2-  O144  1  0.06653103  0.18271646  0.08962734  1
  O2-  O145  1  0.07247909  0.18254899  0.41956605  1
  O2-  O146  1  0.07181830  0.18416142  0.75738620  1
  O2-  O147  1  0.06848888  0.67825475  0.10055971  1
  O2-  O148  1  0.06976523  0.67358429  0.42062146  1
  O2-  O149  1  0.07107936  0.67394419  0.76424083  1
  O2-  O150  1  0.57611225  0.18202759  0.09913340  1
  O2-  O151  1  0.57260620  0.18129505  0.42544499  1
  O2-  O152  1  0.57708737  0.18526167  0.75458289  1
  O2-  O153  1  0.57060266  0.67619063  0.10015009  1
  O2-  O154  1  0.56794937  0.67932667  0.43148816  1
  O2-  O155  1  0.56666689  0.67616398  0.76488531  1
  O2-  O156  1  0.17446271  0.42890805  0.24441687  1
  O2-  O157  1  0.17611963  0.42888493  0.57572386  1
  O2-  O158  1  0.16817332  0.42861879  0.91090071  1
  O2-  O159  1  0.17814774  0.93208719  0.23737814  1
  O2-  O160  1  0.17648800  0.93224821  0.57688210  1
  O2-  O161  1  0.17970517  0.92870351  0.89978189  1
  O2-  O162  1  0.67941469  0.42905848  0.23423439  1
  O2-  O163  1  0.67941836  0.42662766  0.57981097  1
  O2-  O164  1  0.68380337  0.43316151  0.90861111  1
  O2-  O165  1  0.68138831  0.92871256  0.23234653  1
  O2-  O166  1  0.68327292  0.92463257  0.56949189  1
  O2-  O167  1  0.68281277  0.91970331  0.91257939  1
  O2-  O168  1  0.43278853  0.32311779  0.10008952  1
  O2-  O169  1  0.42954258  0.32087998  0.42423972  1
  O2-  O170  1  0.42826715  0.31938532  0.76335400  1
  O2-  O171  1  0.42775277  0.81884466  0.09297673  1
  O2-  O172  1  0.43119469  0.82426183  0.42259344  1
  O2-  O173  1  0.42662449  0.81976736  0.76617586  1
  O2-  O174  1  0.92737966  0.32250776  0.08866037  1
  O2-  O175  1  0.92812018  0.31848173  0.43278304  1
  O2-  O176  1  0.92919907  0.32435397  0.75789883  1
  O2-  O177  1  0.92670496  0.82241222  0.08835272  1
  O2-  O178  1  0.92924806  0.81948379  0.42991015  1
  O2-  O179  1  0.93465033  0.82048973  0.76634744  1
  O2-  O180  1  0.32168258  0.07359914  0.23498039  1
  O2-  O181  1  0.31384997  0.07646557  0.56859262  1
  O2-  O182  1  0.31758116  0.07315879  0.90051475  1
  O2-  O183  1  0.32354976  0.56702910  0.23586774  1
  O2-  O184  1  0.32228469  0.56529059  0.57687312  1
  O2-  O185  1  0.32019471  0.56717903  0.89787203  1
  O2-  O186  1  0.81581660  0.07507580  0.24196242  1
  O2-  O187  1  0.81922425  0.07698197  0.56733398  1
  O2-  O188  1  0.81890119  0.07156159  0.90311213  1
  O2-  O189  1  0.82317386  0.56832863  0.24333669  1
  O2-  O190  1  0.82654109  0.56319249  0.57733441  1
  O2-  O191  1  0.82545510  0.56790903  0.90970055  1
  O2-  O192  1  0.04990916  0.08652564  0.26719459  1
  O2-  O193  1  0.04799740  0.08769418  0.60466154  1
  O2-  O194  1  0.03739314  0.08841717  0.93821584  1
  O2-  O195  1  0.04675906  0.58558682  0.26736312  1
  O2-  O196  1  0.03994465  0.57868060  0.59689495  1
  O2-  O197  1  0.03799033  0.58522993  0.93248481  1
  O2-  O198  1  0.54573046  0.08535771  0.27373640  1
  O2-  O199  1  0.55660432  0.08202657  0.60953330  1
  O2-  O200  1  0.55897564  0.07317771  0.93572939  1
  O2-  O201  1  0.53650688  0.58081351  0.26825810  1
  O2-  O202  1  0.53835341  0.58138320  0.59855566  1
  O2-  O203  1  0.54014412  0.58276391  0.93196686  1
  O2-  O204  1  0.16396165  0.21116692  0.26597726  1
  O2-  O205  1  0.15689066  0.21645412  0.60102413  1
  O2-  O206  1  0.15927821  0.20668895  0.93567673  1
  O2-  O207  1  0.17072563  0.70083882  0.27413795  1
  O2-  O208  1  0.17403183  0.69539427  0.59939294  1
  O2-  O209  1  0.16964774  0.70753675  0.93422113  1
  O2-  O210  1  0.65951072  0.21068839  0.27148675  1
  O2-  O211  1  0.66464954  0.21354017  0.60184686  1
  O2-  O212  1  0.66585878  0.21665817  0.92944538  1
  O2-  O213  1  0.66606361  0.70617000  0.26466484  1
  O2-  O214  1  0.67325590  0.69649672  0.60134109  1
  O2-  O215  1  0.66972629  0.70454102  0.93333113  1
  O2-  O216  1  0.08027650  0.45642212  0.06388697  1
  O2-  O217  1  0.08149724  0.45468692  0.39601442  1
  O2-  O218  1  0.08381658  0.45291902  0.72852372  1
  O2-  O219  1  0.08201569  0.95985467  0.06679163  1
  O2-  O220  1  0.07974717  0.96469947  0.40342327  1
  O2-  O221  1  0.08753575  0.95591731  0.72959344  1
  O2-  O222  1  0.58829873  0.45748551  0.06046944  1
  O2-  O223  1  0.58486036  0.45918493  0.40491949  1
  O2-  O224  1  0.58488599  0.45748632  0.73064303  1
  O2-  O225  1  0.58439585  0.94392249  0.06310553  1
  O2-  O226  1  0.58691898  0.95806324  0.40167458  1
  O2-  O227  1  0.58200076  0.95185071  0.73766648  1
  O2-  O228  1  0.19314078  0.33324113  0.06248586  1
  O2-  O229  1  0.19938594  0.33548596  0.39614807  1
  O2-  O230  1  0.20731464  0.33966815  0.72942211  1
  O2-  O231  1  0.20484577  0.83015276  0.06903306  1
  O2-  O232  1  0.19628535  0.82957163  0.40334549  1
  O2-  O233  1  0.20200757  0.83019732  0.72302180  1
  O2-  O234  1  0.71149388  0.34175751  0.06148696  1
  O2-  O235  1  0.71219751  0.33384869  0.40381077  1
  O2-  O236  1  0.70791263  0.33977449  0.73470707  1
  O2-  O237  1  0.71032853  0.83135515  0.06472477  1
  O2-  O238  1  0.71365491  0.82932876  0.39692773  1
  O2-  O239  1  0.70966941  0.82525543  0.73514831  1
  O2-  O240  1  0.46263847  0.41102176  0.27279146  1
  O2-  O241  1  0.46303230  0.41206344  0.59569910  1
  O2-  O242  1  0.46400733  0.41249310  0.92976216  1
  O2-  O243  1  0.45449989  0.91804162  0.27247252  1
  O2-  O244  1  0.45289455  0.92707740  0.60339145  1
  O2-  O245  1  0.44998952  0.91581675  0.94199663  1
  O2-  O246  1  0.95785430  0.41685903  0.26351809  1
  O2-  O247  1  0.95815486  0.40920907  0.60193498  1
  O2-  O248  1  0.95529524  0.41370229  0.93535272  1
  O2-  O249  1  0.95755538  0.92061507  0.26446948  1
  O2-  O250  1  0.95687119  0.92123534  0.59892588  1
  O2-  O251  1  0.95059521  0.92089264  0.94060057  1
  O2-  O252  1  0.33403772  0.30144207  0.27319566  1
  O2-  O253  1  0.32990552  0.29149768  0.59635494  1
  O2-  O254  1  0.32416097  0.30135228  0.93551683  1
  O2-  O255  1  0.33123506  0.79973047  0.27635323  1
  O2-  O256  1  0.33449868  0.79405238  0.59553044  1
  O2-  O257  1  0.33562582  0.79260207  0.94061121  1
  O2-  O258  1  0.83023122  0.29087286  0.26414413  1
  O2-  O259  1  0.83302310  0.29678207  0.60697575  1
  O2-  O260  1  0.83639109  0.29478354  0.93559886  1
  O2-  O261  1  0.83699117  0.78724361  0.25901638  1
  O2-  O262  1  0.83588147  0.78712038  0.60004133  1
  O2-  O263  1  0.83772736  0.79479437  0.93453887  1
  O2-  O264  1  0.42529600  0.05098650  0.06322280  1
  O2-  O265  1  0.42057891  0.04820468  0.40324944  1
  O2-  O266  1  0.41940389  0.05260603  0.73389641  1
  O2-  O267  1  0.41716308  0.53376612  0.06553502  1
  O2-  O268  1  0.41483792  0.53397505  0.40593286  1
  O2-  O269  1  0.41112274  0.53432642  0.72853522  1
  O2-  O270  1  0.91388211  0.04547404  0.07272608  1
  O2-  O271  1  0.91781236  0.05581718  0.38812526  1
  O2-  O272  1  0.92228178  0.04662685  0.73288961  1
  O2-  O273  1  0.91244849  0.53980430  0.06437010  1
  O2-  O274  1  0.91676708  0.54355524  0.39489591  1
  O2-  O275  1  0.91241470  0.53349653  0.73153320  1
  O2-  O276  1  0.29138759  0.17153749  0.06590803  1
  O2-  O277  1  0.28981094  0.17169470  0.39911995  1
  O2-  O278  1  0.28084307  0.16808912  0.73365905  1
  O2-  O279  1  0.29161532  0.66292924  0.06825036  1
  O2-  O280  1  0.29511095  0.66671974  0.40475610  1
  O2-  O281  1  0.29925050  0.66358589  0.72690724  1
  O2-  O282  1  0.78774183  0.17041184  0.06774427  1
  O2-  O283  1  0.79136949  0.16499806  0.39449046  1
  O2-  O284  1  0.79337882  0.17068797  0.73512334  1
  O2-  O285  1  0.80034040  0.66591784  0.05966403  1
  O2-  O286  1  0.79880630  0.66530019  0.39292875  1
  O2-  O287  1  0.80031548  0.66016381  0.73018212  1
