# generated using pymatgen
data_Ca2Al2SiO7
_symmetry_space_group_name_H-M   'P 1'
_cell_length_a   15.46181824
_cell_length_b   15.46015608
_cell_length_c   15.28565813
_cell_angle_alpha   89.99487174
_cell_angle_beta   89.99729404
_cell_angle_gamma   90.02553828
_symmetry_Int_Tables_number   1
_chemical_formula_structural   Ca2Al2SiO7
_chemical_formula_sum   'Ca48 Al48 Si24 O168'
_cell_volume   3653.91579296
_cell_formula_units_Z   24
loop_
 _symmetry_equiv_pos_site_id
 _symmetry_equiv_pos_as_xyz
  1  'x, y, z'
loop_
 _atom_type_symbol
 _atom_type_oxidation_number
  Ca2+  2.0
  Al0+  0.0
  Si0+  0.0
  O2-  -2.0
loop_
 _atom_site_type_symbol
 _atom_site_label
 _atom_site_symmetry_multiplicity
 _atom_site_fract_x
 _atom_site_fract_y
 _atom_site_fract_z
 _atom_site_occupancy
  Ca2+  Ca0  1  0.16700683  0.08178556  0.16860940  1
  Ca2+  Ca1  1  0.16133986  0.08043058  0.50513460  1
  Ca2+  Ca2  1  0.16927623  0.07005139  0.84276779  1
  Ca2+  Ca3  1  0.16537366  0.57884112  0.16548564  1
  Ca2+  Ca4  1  0.17000773  0.58043100  0.50745485  1
  Ca2+  Ca5  1  0.15469367  0.57511259  0.83647971  1
  Ca2+  Ca6  1  0.67926253  0.07759045  0.17029798  1
  Ca2+  Ca7  1  0.67645502  0.08597781  0.50427540  1
  Ca2+  Ca8  1  0.67701053  0.09221591  0.83476549  1
  Ca2+  Ca9  1  0.67674589  0.58277356  0.17382588  1
  Ca2+  Ca10  1  0.67818502  0.57971553  0.50535669  1
  Ca2+  Ca11  1  0.67869345  0.57128398  0.83927582  1
  Ca2+  Ca12  1  0.07126972  0.33164498  0.16088938  1
  Ca2+  Ca13  1  0.07156908  0.33202750  0.49449990  1
  Ca2+  Ca14  1  0.07231778  0.34058519  0.82828446  1
  Ca2+  Ca15  1  0.08410060  0.82520224  0.15746542  1
  Ca2+  Ca16  1  0.08335789  0.82988805  0.50165942  1
  Ca2+  Ca17  1  0.09110699  0.82382323  0.82943703  1
  Ca2+  Ca18  1  0.58402310  0.33456959  0.16011563  1
  Ca2+  Ca19  1  0.59126722  0.33032218  0.50183100  1
  Ca2+  Ca20  1  0.58967194  0.33145335  0.82626463  1
  Ca2+  Ca21  1  0.58481052  0.82841993  0.16263095  1
  Ca2+  Ca22  1  0.58730094  0.82683968  0.48952537  1
  Ca2+  Ca23  1  0.57424700  0.83824307  0.83087189  1
  Ca2+  Ca24  1  0.32427752  0.42090114  0.17163316  1
  Ca2+  Ca25  1  0.32647135  0.42273736  0.50442599  1
  Ca2+  Ca26  1  0.31660965  0.41362999  0.83866312  1
  Ca2+  Ca27  1  0.33080513  0.91316834  0.16115613  1
  Ca2+  Ca28  1  0.32496125  0.91772994  0.50588614  1
  Ca2+  Ca29  1  0.32559959  0.91858857  0.84189559  1
  Ca2+  Ca30  1  0.83773684  0.42287027  0.16446340  1
  Ca2+  Ca31  1  0.83808864  0.42239088  0.50674346  1
  Ca2+  Ca32  1  0.83189618  0.41965368  0.83774659  1
  Ca2+  Ca33  1  0.83384342  0.92799377  0.17489724  1
  Ca2+  Ca34  1  0.83167676  0.92885722  0.50109045  1
  Ca2+  Ca35  1  0.83818518  0.93274483  0.83739066  1
  Ca2+  Ca36  1  0.41829126  0.16390332  0.15944155  1
  Ca2+  Ca37  1  0.42454087  0.16780015  0.49899522  1
  Ca2+  Ca38  1  0.42301384  0.16363727  0.82953524  1
  Ca2+  Ca39  1  0.42211209  0.66735148  0.16258431  1
  Ca2+  Ca40  1  0.42386207  0.66509656  0.48978631  1
  Ca2+  Ca41  1  0.41485431  0.67311654  0.83239157  1
  Ca2+  Ca42  1  0.91137099  0.17486053  0.16319267  1
  Ca2+  Ca43  1  0.91408290  0.17687068  0.49293254  1
  Ca2+  Ca44  1  0.90765093  0.17766253  0.82814492  1
  Ca2+  Ca45  1  0.91753935  0.66391995  0.15877300  1
  Ca2+  Ca46  1  0.91950776  0.65872584  0.49742699  1
  Ca2+  Ca47  1  0.92439796  0.65806837  0.83027095  1
  Al0+  Al48  1  0.00128058  -0.00027471  0.00928720  1
  Al0+  Al49  1  0.00125088  -0.00097694  0.33443827  1
  Al0+  Al50  1  0.00001175  -0.00146139  0.67562370  1
  Al0+  Al51  1  -0.00061631  0.49892798  0.00079241  1
  Al0+  Al52  1  0.00003871  0.49798159  0.33209685  1
  Al0+  Al53  1  0.00257097  0.50129862  0.66268541  1
  Al0+  Al54  1  0.49999674  -0.00033299  -0.00191328  1
  Al0+  Al55  1  0.49649051  -0.00106512  0.33581253  1
  Al0+  Al56  1  0.49976277  0.00108102  0.65885371  1
  Al0+  Al57  1  0.49913447  0.49829329  -0.00120345  1
  Al0+  Al58  1  0.49936957  0.50124252  0.33247821  1
  Al0+  Al59  1  0.49964808  0.50189512  0.66937275  1
  Al0+  Al60  1  0.24947137  0.24893610  0.00733410  1
  Al0+  Al61  1  0.24985982  0.24824789  0.33187052  1
  Al0+  Al62  1  0.25153943  0.25060917  0.66963175  1
  Al0+  Al63  1  0.25137372  0.74957432  -0.00494497  1
  Al0+  Al64  1  0.25104948  0.74965747  0.33712603  1
  Al0+  Al65  1  0.24975504  0.75125837  0.66401149  1
  Al0+  Al66  1  0.74931129  0.25015287  0.00448930  1
  Al0+  Al67  1  0.74855646  0.25044198  0.32969687  1
  Al0+  Al68  1  0.74939607  0.25017273  0.66259391  1
  Al0+  Al69  1  0.75102437  0.74962295  -0.00224901  1
  Al0+  Al70  1  0.75056606  0.74863456  0.33585400  1
  Al0+  Al71  1  0.74994041  0.75280767  0.67091568  1
  Al0+  Al72  1  0.92960695  0.31772592  0.98404408  1
  Al0+  Al73  1  0.18048837  0.42945530  0.67876290  1
  Al0+  Al74  1  0.67745839  0.42853427  0.01587507  1
  Al0+  Al75  1  0.57185612  0.67971602  0.31965404  1
  Al0+  Al76  1  0.07201542  0.17650622  0.31814133  1
  Al0+  Al77  1  0.17759470  0.42896754  0.01489769  1
  Al0+  Al78  1  0.82076460  0.57116755  0.01531746  1
  Al0+  Al79  1  0.82228812  0.56941373  0.34742107  1
  Al0+  Al80  1  0.82322378  0.57297064  0.68182017  1
  Al0+  Al81  1  0.93069951  0.32018162  0.65324104  1
  Al0+  Al82  1  0.18005177  0.92617407  0.01727224  1
  Al0+  Al83  1  0.43231379  0.81966933  0.98559332  1
  Al0+  Al84  1  0.57015388  0.18090745  0.65195638  1
  Al0+  Al85  1  0.32217675  0.06990233  0.01508301  1
  Al0+  Al86  1  0.06894287  0.68028698  0.98707877  1
  Al0+  Al87  1  0.32065851  0.57079686  0.34599750  1
  Al0+  Al88  1  0.92743611  0.32139416  0.31511842  1
  Al0+  Al89  1  0.06931653  0.68089735  0.65092226  1
  Al0+  Al90  1  0.67896251  0.42922735  0.68006060  1
  Al0+  Al91  1  0.67790309  0.92860340  0.34683125  1
  Al0+  Al92  1  0.82124012  0.07113622  0.01426267  1
  Al0+  Al93  1  0.17980072  0.92943771  0.68063630  1
  Al0+  Al94  1  0.82124653  0.07252621  0.34965189  1
  Al0+  Al95  1  0.81945261  0.07088367  0.67994455  1
  Si0+  Si96  1  0.42541443  0.32421765  0.65018673  1
  Si0+  Si97  1  0.32086234  0.07293536  0.35101028  1
  Si0+  Si98  1  0.32259782  0.57359638  0.68379103  1
  Si0+  Si99  1  0.92651591  0.82548810  0.65008829  1
  Si0+  Si100  1  0.42965584  0.82056155  0.64870833  1
  Si0+  Si101  1  0.92656616  0.82560110  0.98396474  1
  Si0+  Si102  1  0.17985705  0.92785489  0.34957211  1
  Si0+  Si103  1  0.07354481  0.17566245  0.65485497  1
  Si0+  Si104  1  0.07283206  0.67928741  0.31898269  1
  Si0+  Si105  1  0.42903652  0.32068773  0.31841234  1
  Si0+  Si106  1  0.57427287  0.67524098  0.98067622  1
  Si0+  Si107  1  0.56892381  0.18083130  0.98612225  1
  Si0+  Si108  1  0.67739146  0.92803358  0.01340930  1
  Si0+  Si109  1  0.93014018  0.81978215  0.31993354  1
  Si0+  Si110  1  0.32242492  0.57193302  0.01491862  1
  Si0+  Si111  1  0.32391272  0.07167694  0.68187763  1
  Si0+  Si112  1  0.42586028  0.82220400  0.31605206  1
  Si0+  Si113  1  0.07379315  0.17647070  0.98324620  1
  Si0+  Si114  1  0.56897860  0.17728490  0.31649924  1
  Si0+  Si115  1  0.42540131  0.32198385  0.98542312  1
  Si0+  Si116  1  0.17914072  0.42731956  0.35035597  1
  Si0+  Si117  1  0.67553230  0.42856604  0.34943049  1
  Si0+  Si118  1  0.67505385  0.92852749  0.68341290  1
  Si0+  Si119  1  0.57172677  0.67961403  0.65209605  1
  O2-  O120  1  0.24906636  0.00082882  0.06780264  1
  O2-  O121  1  0.24798672  0.00271681  0.39107590  1
  O2-  O122  1  0.25216664  0.00702003  0.72564135  1
  O2-  O123  1  0.25480236  0.50262598  0.05944314  1
  O2-  O124  1  0.24592018  0.49782547  0.39464981  1
  O2-  O125  1  0.25555498  0.50358986  0.72711671  1
  O2-  O126  1  0.75185973  -0.01037157  0.05772401  1
  O2-  O127  1  0.74633085  0.00259647  0.39885637  1
  O2-  O128  1  0.74442623  -0.00397918  0.72727047  1
  O2-  O129  1  0.74492763  0.50384914  0.06622646  1
  O2-  O130  1  0.74854251  0.49281121  0.39236928  1
  O2-  O131  1  0.75189489  0.49954493  0.73010133  1
  O2-  O132  1  -0.00159912  0.24624555  0.26761126  1
  O2-  O133  1  0.00629646  0.24431305  0.60913858  1
  O2-  O134  1  0.00413065  0.24226812  0.93697241  1
  O2-  O135  1  0.00000708  0.74790644  0.27684889  1
  O2-  O136  1  -0.00872899  0.75304393  0.60477466  1
  O2-  O137  1  -0.00547286  0.75598837  0.94048347  1
  O2-  O138  1  0.49964149  0.25003729  0.27438601  1
  O2-  O139  1  0.49619197  0.25756007  0.60566413  1
  O2-  O140  1  0.49828472  0.25261136  0.94395243  1
  O2-  O141  1  0.49826937  0.75664209  0.27373528  1
  O2-  O142  1  0.50140649  0.75056495  0.60721358  1
  O2-  O143  1  0.50703239  0.74591137  0.93639011  1
  O2-  O144  1  0.07379857  0.17914031  0.08873449  1
  O2-  O145  1  0.07413881  0.17871917  0.43239207  1
  O2-  O146  1  0.07420922  0.17575277  0.76014418  1
  O2-  O147  1  0.06934055  0.68141456  0.10099478  1
  O2-  O148  1  0.07444073  0.68171954  0.42403395  1
  O2-  O149  1  0.07167520  0.68202462  0.76366855  1
  O2-  O150  1  0.56679615  0.17998172  0.09148224  1
  O2-  O151  1  0.56736734  0.17776613  0.42156984  1
  O2-  O152  1  0.56723824  0.17867261  0.76519843  1
  O2-  O153  1  0.57277134  0.67593547  0.08635287  1
  O2-  O154  1  0.56911428  0.68027047  0.43317945  1
  O2-  O155  1  0.56819211  0.68157243  0.75701386  1
  O2-  O156  1  0.18129640  0.42863452  0.24472441  1
  O2-  O157  1  0.18353433  0.43078910  0.56551819  1
  O2-  O158  1  0.17868621  0.43001824  0.90168649  1
  O2-  O159  1  0.18272742  0.92334112  0.24518604  1
  O2-  O160  1  0.18212677  0.92990615  0.56685060  1
  O2-  O161  1  0.18348391  0.92632489  0.90373837  1
  O2-  O162  1  0.67087866  0.43138374  0.24416828  1
  O2-  O163  1  0.67745170  0.43190208  0.56631593  1
  O2-  O164  1  0.67790333  0.42741974  0.90255366  1
  O2-  O165  1  0.67965043  0.92987822  0.23293310  1
  O2-  O166  1  0.67402883  0.92816116  0.57807784  1
  O2-  O167  1  0.67430818  0.93225866  0.90774564  1
  O2-  O168  1  0.42601134  0.32210503  0.09083024  1
  O2-  O169  1  0.42823678  0.31885523  0.42352168  1
  O2-  O170  1  0.42263146  0.32181838  0.75557893  1
  O2-  O171  1  0.43428750  0.81824604  0.09868611  1
  O2-  O172  1  0.42320670  0.82073432  0.42192059  1
  O2-  O173  1  0.43019467  0.82140234  0.75379528  1
  O2-  O174  1  0.93007586  0.31746197  0.09680952  1
  O2-  O175  1  0.93009119  0.32304683  0.42907399  1
  O2-  O176  1  0.93013381  0.31960698  0.76635192  1
  O2-  O177  1  0.92635951  0.82503168  0.08996628  1
  O2-  O178  1  0.93288284  0.82130184  0.42504238  1
  O2-  O179  1  0.92864324  0.82871501  0.75533176  1
  O2-  O180  1  0.32431283  0.07339245  0.24655934  1
  O2-  O181  1  0.32488628  0.06999042  0.57591980  1
  O2-  O182  1  0.32367321  0.06809393  0.90127386  1
  O2-  O183  1  0.31954118  0.56973150  0.23302269  1
  O2-  O184  1  0.32300228  0.57326442  0.57790015  1
  O2-  O185  1  0.32383678  0.57054179  0.90930429  1
  O2-  O186  1  0.81923711  0.06986339  0.23608256  1
  O2-  O187  1  0.81915282  0.07001110  0.56717271  1
  O2-  O188  1  0.81740060  0.07320879  0.90101068  1
  O2-  O189  1  0.82187793  0.57187931  0.23478722  1
  O2-  O190  1  0.82064094  0.57196314  0.56788724  1
  O2-  O191  1  0.82149989  0.56905977  0.90205491  1
  O2-  O192  1  0.04948500  0.07549044  0.26737033  1
  O2-  O193  1  0.04771680  0.08121685  0.61006092  1
  O2-  O194  1  0.05119593  0.07971345  0.94231832  1
  O2-  O195  1  0.04847640  0.58616366  0.27357405  1
  O2-  O196  1  0.04296446  0.58471671  0.59408010  1
  O2-  O197  1  0.03694926  0.58411680  0.93333419  1
  O2-  O198  1  0.53710185  0.08586707  0.27047696  1
  O2-  O199  1  0.53740127  0.08589535  0.59398261  1
  O2-  O200  1  0.54078288  0.08994315  0.93710513  1
  O2-  O201  1  0.53770651  0.58440156  0.26482084  1
  O2-  O202  1  0.54342113  0.58777428  0.60468698  1
  O2-  O203  1  0.54476637  0.58261160  0.93445534  1
  O2-  O204  1  0.17161017  0.20368858  0.26547664  1
  O2-  O205  1  0.16889588  0.19860735  0.60937744  1
  O2-  O206  1  0.16880677  0.20149359  0.93941456  1
  O2-  O207  1  0.16403709  0.71053616  0.27208647  1
  O2-  O208  1  0.16583983  0.71501228  0.59620313  1
  O2-  O209  1  0.16586628  0.70866340  0.93222415  1
  O2-  O210  1  0.66076390  0.20259730  0.26854273  1
  O2-  O211  1  0.66466184  0.21152202  0.59429693  1
  O2-  O212  1  0.66020994  0.20984602  0.93917477  1
  O2-  O213  1  0.66825736  0.71068465  0.26519518  1
  O2-  O214  1  0.66426563  0.70760554  0.60599839  1
  O2-  O215  1  0.66832047  0.69896684  0.93478108  1
  O2-  O216  1  0.08419659  0.46388547  0.07060790  1
  O2-  O217  1  0.08558722  0.45277177  0.39497227  1
  O2-  O218  1  0.08540913  0.46304854  0.73212935  1
  O2-  O219  1  0.08155653  0.94969005  0.07141932  1
  O2-  O220  1  0.08772023  0.95219431  0.39748480  1
  O2-  O221  1  0.08412533  0.95455976  0.73760778  1
  O2-  O222  1  0.57563235  0.45087145  0.06568371  1
  O2-  O223  1  0.58343461  0.45657133  0.39730961  1
  O2-  O224  1  0.57941691  0.45582356  0.73306946  1
  O2-  O225  1  0.58699413  0.95946440  0.06189590  1
  O2-  O226  1  0.57675475  0.95151675  0.39803868  1
  O2-  O227  1  0.58071226  0.95670225  0.72704407  1
  O2-  O228  1  0.20830815  0.33364506  0.07049271  1
  O2-  O229  1  0.20797853  0.33423192  0.39550800  1
  O2-  O230  1  0.21017795  0.33304621  0.73468727  1
  O2-  O231  1  0.21462838  0.82875401  0.06896526  1
  O2-  O232  1  0.21200312  0.83850117  0.40003590  1
  O2-  O233  1  0.21597713  0.83415425  0.73312935  1
  O2-  O234  1  0.70650524  0.33165779  0.07053261  1
  O2-  O235  1  0.69623444  0.33225308  0.39131580  1
  O2-  O236  1  0.70447097  0.32958364  0.73027090  1
  O2-  O237  1  0.69516296  0.83138847  0.05568158  1
  O2-  O238  1  0.70881616  0.83188027  0.40114669  1
  O2-  O239  1  0.69659336  0.83513070  0.73127912  1
  O2-  O240  1  0.45580104  0.41239216  0.27055617  1
  O2-  O241  1  0.44841942  0.41959168  0.60588812  1
  O2-  O242  1  0.44867623  0.41428054  0.93665660  1
  O2-  O243  1  0.44609477  0.91783277  0.27182449  1
  O2-  O244  1  0.45463991  0.91250785  0.59975370  1
  O2-  O245  1  0.46320585  0.91603420  0.92938831  1
  O2-  O246  1  0.96074927  0.41890852  0.26190906  1
  O2-  O247  1  0.96393239  0.41533409  0.59800640  1
  O2-  O248  1  0.96272473  0.41441372  0.93231810  1
  O2-  O249  1  0.95934672  0.91075292  0.27153387  1
  O2-  O250  1  0.95879765  0.91716306  0.60267217  1
  O2-  O251  1  0.95378967  0.91994729  0.93981676  1
  O2-  O252  1  0.33762810  0.29232568  0.27054689  1
  O2-  O253  1  0.33364022  0.29545734  0.60066407  1
  O2-  O254  1  0.33423976  0.29120828  0.93822202  1
  O2-  O255  1  0.33394248  0.79138399  0.26928148  1
  O2-  O256  1  0.33869676  0.79162328  0.60033563  1
  O2-  O257  1  0.33716911  0.78798550  0.92903195  1
  O2-  O258  1  0.82746414  0.29607166  0.26334475  1
  O2-  O259  1  0.83485432  0.28974336  0.59815084  1
  O2-  O260  1  0.83140029  0.28559015  0.93329141  1
  O2-  O261  1  0.83838095  0.79326184  0.27278179  1
  O2-  O262  1  0.83019782  0.80565894  0.60644332  1
  O2-  O263  1  0.83203630  0.80446063  0.93700154  1
  O2-  O264  1  0.42001867  0.03842286  0.06849664  1
  O2-  O265  1  0.41106695  0.04309058  0.40091768  1
  O2-  O266  1  0.41639372  0.04107685  0.72710173  1
  O2-  O267  1  0.41606843  0.54707427  0.06120093  1
  O2-  O268  1  0.41634937  0.53854454  0.40135437  1
  O2-  O269  1  0.41644660  0.55196923  0.73059773  1
  O2-  O270  1  0.91789981  0.04606034  0.06988297  1
  O2-  O271  1  0.91961478  0.04086312  0.40091325  1
  O2-  O272  1  0.91458663  0.04106468  0.73683989  1
  O2-  O273  1  0.91714927  0.53885547  0.06888454  1
  O2-  O274  1  0.92008364  0.54003561  0.40054786  1
  O2-  O275  1  0.92259986  0.54472137  0.73055570  1
  O2-  O276  1  0.29807170  0.16826424  0.06988297  1
  O2-  O277  1  0.29524726  0.16494790  0.39947138  1
  O2-  O278  1  0.30558127  0.16695787  0.72666391  1
  O2-  O279  1  0.29612635  0.66489111  0.06046930  1
  O2-  O280  1  0.29167946  0.66700594  0.40242054  1
  O2-  O281  1  0.29550558  0.66727439  0.72782847  1
  O2-  O282  1  0.78229199  0.16306805  0.07028777  1
  O2-  O283  1  0.79106724  0.17187964  0.39949705  1
  O2-  O284  1  0.78442740  0.16618326  0.73267474  1
  O2-  O285  1  0.79769406  0.67293106  0.06535289  1
  O2-  O286  1  0.79156810  0.66545021  0.40207653  1
  O2-  O287  1  0.79648134  0.67243758  0.73378607  1
