# generated using pymatgen
data_Ca2Al2SiO7
_symmetry_space_group_name_H-M   'P 1'
_cell_length_a   15.45120959
_cell_length_b   15.45168154
_cell_length_c   15.27891373
_cell_angle_alpha   89.99407160
_cell_angle_beta   89.99609619
_cell_angle_gamma   90.00515833
_symmetry_Int_Tables_number   1
_chemical_formula_structural   Ca2Al2SiO7
_chemical_formula_sum   'Ca48 Al48 Si24 O168'
_cell_volume   3647.79737098
_cell_formula_units_Z   24
loop_
 _symmetry_equiv_pos_site_id
 _symmetry_equiv_pos_as_xyz
  1  'x, y, z'
loop_
 _atom_type_symbol
 _atom_type_oxidation_number
  Ca2+  2.0
  Al0+  0.0
  Si0+  0.0
  O2-  -2.0
loop_
 _atom_site_type_symbol
 _atom_site_label
 _atom_site_symmetry_multiplicity
 _atom_site_fract_x
 _atom_site_fract_y
 _atom_site_fract_z
 _atom_site_occupancy
  Ca2+  Ca0  1  0.17750964  0.07660054  0.17076041  1
  Ca2+  Ca1  1  0.16948752  0.07413077  0.51195503  1
  Ca2+  Ca2  1  0.17523605  0.08213708  0.83434623  1
  Ca2+  Ca3  1  0.16842847  0.57997899  0.16875851  1
  Ca2+  Ca4  1  0.18051811  0.58434961  0.50422924  1
  Ca2+  Ca5  1  0.16909444  0.57983299  0.83854980  1
  Ca2+  Ca6  1  0.66245869  0.08565461  0.16391538  1
  Ca2+  Ca7  1  0.66916807  0.08639385  0.50583055  1
  Ca2+  Ca8  1  0.67361989  0.08570095  0.84127650  1
  Ca2+  Ca9  1  0.67271226  0.57357892  0.17871764  1
  Ca2+  Ca10  1  0.67145755  0.57845105  0.50745305  1
  Ca2+  Ca11  1  0.67066183  0.59033426  0.83182491  1
  Ca2+  Ca12  1  0.07606895  0.34124484  0.16137426  1
  Ca2+  Ca13  1  0.07869770  0.32603869  0.49751459  1
  Ca2+  Ca14  1  0.08563509  0.32715894  0.82875631  1
  Ca2+  Ca15  1  0.08723045  0.82606195  0.16270699  1
  Ca2+  Ca16  1  0.07891589  0.84294722  0.49918474  1
  Ca2+  Ca17  1  0.07823362  0.83416574  0.82726241  1
  Ca2+  Ca18  1  0.58127341  0.32589002  0.16140264  1
  Ca2+  Ca19  1  0.59118801  0.32154276  0.49499408  1
  Ca2+  Ca20  1  0.57760205  0.32220843  0.83095348  1
  Ca2+  Ca21  1  0.57167624  0.83585393  0.15950639  1
  Ca2+  Ca22  1  0.57608444  0.82518292  0.49595196  1
  Ca2+  Ca23  1  0.58042897  0.83464500  0.83140437  1
  Ca2+  Ca24  1  0.33119559  0.41897609  0.16803735  1
  Ca2+  Ca25  1  0.34052197  0.42925908  0.50456406  1
  Ca2+  Ca26  1  0.33075088  0.41918492  0.84003235  1
  Ca2+  Ca27  1  0.33672389  0.91791985  0.17141240  1
  Ca2+  Ca28  1  0.32214356  0.91650150  0.50508646  1
  Ca2+  Ca29  1  0.33750045  0.92782813  0.83642822  1
  Ca2+  Ca30  1  0.82788784  0.41965339  0.17907999  1
  Ca2+  Ca31  1  0.83342428  0.42315846  0.49851047  1
  Ca2+  Ca32  1  0.83346574  0.42266156  0.83465479  1
  Ca2+  Ca33  1  0.82527970  0.92210086  0.16517689  1
  Ca2+  Ca34  1  0.83239256  0.92178719  0.51206464  1
  Ca2+  Ca35  1  0.82896360  0.92492649  0.83694467  1
  Ca2+  Ca36  1  0.42765294  0.16794459  0.15463797  1
  Ca2+  Ca37  1  0.42818318  0.15909675  0.49739983  1
  Ca2+  Ca38  1  0.42245012  0.16232310  0.82892451  1
  Ca2+  Ca39  1  0.40700206  0.67849174  0.16421877  1
  Ca2+  Ca40  1  0.41574800  0.66697227  0.49517616  1
  Ca2+  Ca41  1  0.42007931  0.67283215  0.82651484  1
  Ca2+  Ca42  1  0.91490042  0.17224093  0.16390945  1
  Ca2+  Ca43  1  0.92039093  0.16753151  0.49774928  1
  Ca2+  Ca44  1  0.92107392  0.15904569  0.82380568  1
  Ca2+  Ca45  1  0.92220823  0.66403482  0.16043633  1
  Ca2+  Ca46  1  0.91207798  0.66862805  0.49935410  1
  Ca2+  Ca47  1  0.92147751  0.67277681  0.82514149  1
  Al0+  Al48  1  -0.00061410  0.00030182  0.00663028  1
  Al0+  Al49  1  0.00018653  -0.00089344  0.33257629  1
  Al0+  Al50  1  -0.00096400  -0.00025201  0.66550714  1
  Al0+  Al51  1  0.00174712  0.50046114  -0.00239931  1
  Al0+  Al52  1  0.00041715  0.49973288  0.33443614  1
  Al0+  Al53  1  -0.00095365  0.50133765  0.66900040  1
  Al0+  Al54  1  0.50107492  -0.00074661  -0.00115899  1
  Al0+  Al55  1  0.50143241  -0.00117862  0.32590185  1
  Al0+  Al56  1  0.49849345  -0.00127190  0.66272966  1
  Al0+  Al57  1  0.50068629  0.50084818  -0.00235319  1
  Al0+  Al58  1  0.50150701  0.49728736  0.34104144  1
  Al0+  Al59  1  0.50070492  0.50008993  0.66894769  1
  Al0+  Al60  1  0.24774209  0.25147967  0.00853638  1
  Al0+  Al61  1  0.25177152  0.24828630  0.33412964  1
  Al0+  Al62  1  0.24967124  0.25035798  0.66231805  1
  Al0+  Al63  1  0.25002280  0.74954103  -0.01201405  1
  Al0+  Al64  1  0.24850087  0.75048452  0.33779341  1
  Al0+  Al65  1  0.24818035  0.74843560  0.67589906  1
  Al0+  Al66  1  0.75119688  0.25268862  -0.00075647  1
  Al0+  Al67  1  0.75192118  0.24952443  0.32794785  1
  Al0+  Al68  1  0.74899968  0.25133112  0.66728578  1
  Al0+  Al69  1  0.75078627  0.75219761  0.00611273  1
  Al0+  Al70  1  0.75014579  0.75151093  0.33432304  1
  Al0+  Al71  1  0.74977977  0.74896578  0.66206382  1
  Al0+  Al72  1  0.82254534  0.57294031  0.34880264  1
  Al0+  Al73  1  0.32230180  0.07153227  0.68015952  1
  Al0+  Al74  1  0.42956618  0.82093970  0.98443377  1
  Al0+  Al75  1  0.31895926  0.56982865  0.34492583  1
  Al0+  Al76  1  0.17987581  0.93012207  0.34610304  1
  Al0+  Al77  1  0.17668301  0.92920911  0.68398490  1
  Al0+  Al78  1  0.81850985  0.07184911  0.67723839  1
  Al0+  Al79  1  0.67873236  0.92893083  0.01561795  1
  Al0+  Al80  1  0.93070181  0.81987069  0.65373438  1
  Al0+  Al81  1  0.17910179  0.42991270  0.01355780  1
  Al0+  Al82  1  0.42851173  0.81659475  0.32120047  1
  Al0+  Al83  1  0.57028504  0.67890536  0.65280418  1
  Al0+  Al84  1  0.82265125  0.07396474  0.01699706  1
  Al0+  Al85  1  0.07116071  0.17929398  0.65386211  1
  Al0+  Al86  1  0.93330236  0.31981012  0.31988651  1
  Al0+  Al87  1  0.42562021  0.32267582  0.98568180  1
  Al0+  Al88  1  0.57057342  0.17849643  0.65255008  1
  Al0+  Al89  1  0.32288959  0.57031846  0.68316438  1
  Al0+  Al90  1  0.67985850  0.42635201  0.34915241  1
  Al0+  Al91  1  0.57098640  0.18030095  0.98273659  1
  Al0+  Al92  1  0.82026540  0.57173505  0.68199382  1
  Al0+  Al93  1  0.57062269  0.17991341  0.31760644  1
  Al0+  Al94  1  0.06963768  0.67859655  0.98541097  1
  Al0+  Al95  1  0.32071255  0.07067052  0.01420352  1
  Si0+  Si96  1  0.92955990  0.32193412  0.98389683  1
  Si0+  Si97  1  0.07359784  0.17525121  0.31492276  1
  Si0+  Si98  1  0.82025970  0.06951645  0.34825060  1
  Si0+  Si99  1  0.67729223  0.92704427  0.67977161  1
  Si0+  Si100  1  0.42672195  0.32444952  0.31707804  1
  Si0+  Si101  1  0.82146428  0.57071614  0.01382554  1
  Si0+  Si102  1  0.57496019  0.67767355  0.98572101  1
  Si0+  Si103  1  0.42736069  0.32206557  0.64918322  1
  Si0+  Si104  1  0.67884499  0.43040157  0.01390159  1
  Si0+  Si105  1  0.67724685  0.92954649  0.34934679  1
  Si0+  Si106  1  0.92667660  0.82344615  0.31639630  1
  Si0+  Si107  1  0.92733405  0.32421830  0.65037933  1
  Si0+  Si108  1  0.67824480  0.42758434  0.68655674  1
  Si0+  Si109  1  0.17853242  0.92605055  0.01626145  1
  Si0+  Si110  1  0.17672138  0.42572601  0.35118208  1
  Si0+  Si111  1  0.32487641  0.07132854  0.34933569  1
  Si0+  Si112  1  0.06983314  0.68103066  0.32076591  1
  Si0+  Si113  1  0.92732742  0.82267174  0.98475106  1
  Si0+  Si114  1  0.06957641  0.17807647  0.98769884  1
  Si0+  Si115  1  0.32296287  0.57302176  0.01551643  1
  Si0+  Si116  1  0.17786418  0.42842617  0.68177933  1
  Si0+  Si117  1  0.42567397  0.82086190  0.64918826  1
  Si0+  Si118  1  0.07249138  0.67622763  0.64831722  1
  Si0+  Si119  1  0.57317901  0.67596176  0.31733591  1
  O2-  O120  1  0.24859971  -0.00726289  0.06110378  1
  O2-  O121  1  0.25164988  0.00753196  0.39281512  1
  O2-  O122  1  0.25137441  -0.00066619  0.73193403  1
  O2-  O123  1  0.25598453  0.50274960  0.06009282  1
  O2-  O124  1  0.24960785  0.49034259  0.39400486  1
  O2-  O125  1  0.24695921  0.49576281  0.72725860  1
  O2-  O126  1  0.74788981  0.00418554  0.06625798  1
  O2-  O127  1  0.75001821  -0.00146254  0.39167784  1
  O2-  O128  1  0.74110831  0.00027221  0.72369156  1
  O2-  O129  1  0.74813364  0.50313606  0.05636659  1
  O2-  O130  1  0.74795257  0.50306237  0.39797472  1
  O2-  O131  1  0.74678705  0.49709060  0.73061406  1
  O2-  O132  1  0.01050813  0.24893071  0.27001742  1
  O2-  O133  1  -0.00471885  0.25379251  0.60785822  1
  O2-  O134  1  -0.00400885  0.24607655  0.94354586  1
  O2-  O135  1  -0.00477874  0.74838573  0.27715976  1
  O2-  O136  1  0.00609088  0.74681103  0.60391583  1
  O2-  O137  1  -0.00336456  0.75531761  0.94013747  1
  O2-  O138  1  0.49338726  0.25368510  0.27359820  1
  O2-  O139  1  0.49398849  0.25113244  0.60488297  1
  O2-  O140  1  0.49421535  0.24833198  0.93400523  1
  O2-  O141  1  0.50216772  0.74124005  0.27202828  1
  O2-  O142  1  0.49322836  0.75073473  0.60518148  1
  O2-  O143  1  0.50570657  0.74556949  0.94148969  1
  O2-  O144  1  0.06771223  0.17964697  0.09292371  1
  O2-  O145  1  0.07010867  0.17434319  0.42043169  1
  O2-  O146  1  0.07059614  0.18160012  0.76748715  1
  O2-  O147  1  0.06780739  0.67823214  0.09951896  1
  O2-  O148  1  0.07106029  0.68275788  0.42553592  1
  O2-  O149  1  0.06846173  0.67376999  0.75383923  1
  O2-  O150  1  0.57131322  0.18482514  0.09649525  1
  O2-  O151  1  0.57093430  0.17886176  0.43108181  1
  O2-  O152  1  0.57268845  0.18036265  0.76503501  1
  O2-  O153  1  0.57543060  0.67582004  0.09126603  1
  O2-  O154  1  0.57367449  0.67950131  0.42282124  1
  O2-  O155  1  0.57092691  0.68245782  0.76622421  1
  O2-  O156  1  0.17421906  0.42943270  0.24558899  1
  O2-  O157  1  0.17727969  0.43020597  0.57604463  1
  O2-  O158  1  0.17606168  0.43141974  0.90063624  1
  O2-  O159  1  0.18100434  0.92851055  0.23274162  1
  O2-  O160  1  0.17772182  0.93107272  0.56990768  1
  O2-  O161  1  0.17533911  0.92955935  0.91128997  1
  O2-  O162  1  0.68197106  0.42849874  0.23478615  1
  O2-  O163  1  0.67966116  0.42646292  0.58104137  1
  O2-  O164  1  0.68121625  0.43054283  0.90894683  1
  O2-  O165  1  0.67780415  0.92926685  0.24452576  1
  O2-  O166  1  0.67966434  0.92721499  0.57354217  1
  O2-  O167  1  0.68346027  0.92507692  0.90200994  1
  O2-  O168  1  0.42959869  0.32403786  0.09951578  1
  O2-  O169  1  0.42559462  0.32438020  0.42254535  1
  O2-  O170  1  0.42781619  0.32231390  0.75466892  1
  O2-  O171  1  0.42703856  0.81755481  0.09805645  1
  O2-  O172  1  0.42949898  0.81561588  0.43410425  1
  O2-  O173  1  0.42941307  0.82183453  0.75472589  1
  O2-  O174  1  0.93116372  0.32517903  0.08909177  1
  O2-  O175  1  0.93401113  0.31766096  0.43296451  1
  O2-  O176  1  0.92867759  0.32582535  0.75627317  1
  O2-  O177  1  0.92730482  0.81987778  0.09081121  1
  O2-  O178  1  0.92664950  0.82721914  0.42125797  1
  O2-  O179  1  0.93009122  0.81831143  0.76694504  1
  O2-  O180  1  0.32388895  0.06960944  0.24358667  1
  O2-  O181  1  0.32230208  0.06870165  0.56620034  1
  O2-  O182  1  0.31826494  0.07148183  0.90139960  1
  O2-  O183  1  0.31393206  0.57233893  0.23182583  1
  O2-  O184  1  0.32117292  0.56950077  0.56950224  1
  O2-  O185  1  0.32208020  0.57106530  0.91013092  1
  O2-  O186  1  0.82091986  0.06788943  0.24330862  1
  O2-  O187  1  0.81824987  0.07076388  0.56350532  1
  O2-  O188  1  0.82516805  0.07154325  0.90339384  1
  O2-  O189  1  0.82307035  0.57106831  0.23433048  1
  O2-  O190  1  0.81981264  0.56965624  0.56933562  1
  O2-  O191  1  0.82121705  0.57040475  0.90873762  1
  O2-  O192  1  0.04238244  0.08397072  0.26700934  1
  O2-  O193  1  0.03805814  0.08451229  0.59827892  1
  O2-  O194  1  0.04443809  0.08472366  0.94163262  1
  O2-  O195  1  0.04560928  0.58790416  0.27343125  1
  O2-  O196  1  0.04469776  0.58322611  0.60154851  1
  O2-  O197  1  0.03590066  0.58391626  0.92938620  1
  O2-  O198  1  0.54113494  0.08360301  0.26226530  1
  O2-  O199  1  0.54259631  0.08103973  0.59715963  1
  O2-  O200  1  0.54816376  0.07987495  0.93348981  1
  O2-  O201  1  0.55155767  0.57941408  0.27598044  1
  O2-  O202  1  0.54210009  0.58076219  0.60023076  1
  O2-  O203  1  0.55173140  0.58447442  0.93762822  1
  O2-  O204  1  0.17064985  0.19456051  0.27297163  1
  O2-  O205  1  0.16591681  0.21046285  0.59546876  1
  O2-  O206  1  0.16046495  0.20957685  0.94196506  1
  O2-  O207  1  0.15912743  0.71340411  0.27126998  1
  O2-  O208  1  0.16840165  0.69964079  0.60652492  1
  O2-  O209  1  0.16500118  0.70509078  0.92813696  1
  O2-  O210  1  0.66668457  0.21095788  0.26322149  1
  O2-  O211  1  0.66699743  0.21233468  0.59829808  1
  O2-  O212  1  0.66956783  0.21327394  0.93187331  1
  O2-  O213  1  0.66656372  0.70379419  0.27104193  1
  O2-  O214  1  0.66499043  0.71046788  0.59581225  1
  O2-  O215  1  0.66900594  0.70520218  0.94049394  1
  O2-  O216  1  0.08358737  0.46612225  0.06879807  1
  O2-  O217  1  0.08531731  0.45484984  0.39891327  1
  O2-  O218  1  0.08453308  0.45387913  0.72886270  1
  O2-  O219  1  0.08565308  0.95135363  0.06495464  1
  O2-  O220  1  0.08186215  0.95939737  0.39902876  1
  O2-  O221  1  0.07930801  0.96049100  0.73612859  1
  O2-  O222  1  0.58662881  0.45649875  0.06182664  1
  O2-  O223  1  0.58108089  0.44771733  0.40415274  1
  O2-  O224  1  0.58522830  0.45367894  0.73253205  1
  O2-  O225  1  0.58008999  0.95489009  0.06862236  1
  O2-  O226  1  0.58582129  0.95897661  0.39616626  1
  O2-  O227  1  0.58182124  0.94732171  0.72293155  1
  O2-  O228  1  0.20313307  0.33480115  0.07351469  1
  O2-  O229  1  0.19713596  0.32928852  0.39433845  1
  O2-  O230  1  0.20247256  0.33428570  0.72668891  1
  O2-  O231  1  0.20392701  0.83018594  0.05776972  1
  O2-  O232  1  0.21105487  0.83570513  0.40312018  1
  O2-  O233  1  0.19843080  0.82930854  0.73580389  1
  O2-  O234  1  0.70936544  0.34037536  0.06244612  1
  O2-  O235  1  0.71565091  0.32944136  0.40065070  1
  O2-  O236  1  0.70629773  0.33549847  0.73408642  1
  O2-  O237  1  0.70952168  0.83224541  0.07388389  1
  O2-  O238  1  0.70330748  0.83693464  0.39603857  1
  O2-  O239  1  0.70763149  0.83560517  0.72628858  1
  O2-  O240  1  0.45368975  0.41809495  0.27125283  1
  O2-  O241  1  0.45700189  0.41514160  0.60416676  1
  O2-  O242  1  0.45644563  0.42069710  0.93199719  1
  O2-  O243  1  0.46077036  0.91191953  0.26540664  1
  O2-  O244  1  0.45116991  0.91318764  0.60054653  1
  O2-  O245  1  0.46175275  0.91623688  0.92993886  1
  O2-  O246  1  0.96131728  0.41785979  0.26504454  1
  O2-  O247  1  0.95556374  0.41702696  0.60353523  1
  O2-  O248  1  0.96215301  0.41140155  0.93464561  1
  O2-  O249  1  0.95831151  0.91317536  0.26683961  1
  O2-  O250  1  0.96073391  0.91556393  0.59696337  1
  O2-  O251  1  0.95293053  0.91748272  0.94132164  1
  O2-  O252  1  0.33097213  0.30250188  0.27210527  1
  O2-  O253  1  0.33310230  0.30237439  0.60178887  1
  O2-  O254  1  0.32365036  0.29920105  0.93838997  1
  O2-  O255  1  0.33157613  0.78534376  0.26715965  1
  O2-  O256  1  0.33034044  0.79384250  0.60783362  1
  O2-  O257  1  0.33498017  0.79157740  0.92651250  1
  O2-  O258  1  0.83877357  0.28686561  0.26311615  1
  O2-  O259  1  0.83376233  0.29937495  0.60496552  1
  O2-  O260  1  0.83663411  0.30051054  0.93655323  1
  O2-  O261  1  0.83399710  0.79812191  0.26885945  1
  O2-  O262  1  0.83527676  0.78874387  0.59726195  1
  O2-  O263  1  0.83399967  0.79563078  0.93947420  1
  O2-  O264  1  0.41784366  0.04072199  0.06657635  1
  O2-  O265  1  0.41757881  0.04043179  0.39357460  1
  O2-  O266  1  0.42082106  0.04151556  0.73290034  1
  O2-  O267  1  0.41768379  0.55086378  0.06128795  1
  O2-  O268  1  0.41661134  0.54426223  0.39996001  1
  O2-  O269  1  0.41924278  0.54028446  0.73735487  1
  O2-  O270  1  0.91933555  0.04320073  0.07381256  1
  O2-  O271  1  0.91276608  0.04176842  0.39440285  1
  O2-  O272  1  0.91348123  0.03805710  0.73102703  1
  O2-  O273  1  0.91207757  0.53871866  0.06059300  1
  O2-  O274  1  0.92025578  0.54207523  0.40177037  1
  O2-  O275  1  0.91709068  0.54146721  0.73666242  1
  O2-  O276  1  0.28758934  0.16489271  0.07178447  1
  O2-  O277  1  0.30592805  0.16736477  0.39379440  1
  O2-  O278  1  0.29403796  0.17134893  0.72992506  1
  O2-  O279  1  0.29236410  0.66679682  0.05833244  1
  O2-  O280  1  0.28288670  0.66288845  0.40223782  1
  O2-  O281  1  0.29303925  0.66563920  0.73894892  1
  O2-  O282  1  0.79649785  0.17444203  0.06758312  1
  O2-  O283  1  0.79273843  0.16167009  0.39353864  1
  O2-  O284  1  0.79337510  0.16952167  0.73180231  1
  O2-  O285  1  0.79897589  0.66325774  0.06224053  1
  O2-  O286  1  0.79756664  0.67332530  0.39939178  1
  O2-  O287  1  0.78718704  0.66806574  0.73504077  1
