# generated using pymatgen
data_Ca2Al2SiO7
_symmetry_space_group_name_H-M   'P 1'
_cell_length_a   15.45746434
_cell_length_b   15.45793089
_cell_length_c   15.28280783
_cell_angle_alpha   89.99996253
_cell_angle_beta   90.00940939
_cell_angle_gamma   90.02475123
_symmetry_Int_Tables_number   1
_chemical_formula_structural   Ca2Al2SiO7
_chemical_formula_sum   'Ca48 Al48 Si24 O168'
_cell_volume   3651.68006255
_cell_formula_units_Z   24
loop_
 _symmetry_equiv_pos_site_id
 _symmetry_equiv_pos_as_xyz
  1  'x, y, z'
loop_
 _atom_type_symbol
 _atom_type_oxidation_number
  Ca2+  2.0
  Al0+  0.0
  Si0+  0.0
  O2-  -2.0
loop_
 _atom_site_type_symbol
 _atom_site_label
 _atom_site_symmetry_multiplicity
 _atom_site_fract_x
 _atom_site_fract_y
 _atom_site_fract_z
 _atom_site_occupancy
  Ca2+  Ca0  1  0.17395156  0.07793560  0.16984466  1
  Ca2+  Ca1  1  0.17182350  0.07477397  0.50190125  1
  Ca2+  Ca2  1  0.17026212  0.07538711  0.84384190  1
  Ca2+  Ca3  1  0.16711286  0.57819317  0.17327547  1
  Ca2+  Ca4  1  0.17164476  0.57265902  0.50704482  1
  Ca2+  Ca5  1  0.16977896  0.57877298  0.83094382  1
  Ca2+  Ca6  1  0.67768233  0.08703909  0.17350640  1
  Ca2+  Ca7  1  0.67445226  0.09026517  0.50662861  1
  Ca2+  Ca8  1  0.67666340  0.08699287  0.83445112  1
  Ca2+  Ca9  1  0.66832533  0.57571722  0.17037718  1
  Ca2+  Ca10  1  0.65672473  0.57407571  0.50462778  1
  Ca2+  Ca11  1  0.66300121  0.57456873  0.83823994  1
  Ca2+  Ca12  1  0.07738862  0.32918749  0.16102420  1
  Ca2+  Ca13  1  0.07667662  0.33835770  0.49066162  1
  Ca2+  Ca14  1  0.08388712  0.32550032  0.82809203  1
  Ca2+  Ca15  1  0.08156316  0.84016660  0.15844151  1
  Ca2+  Ca16  1  0.08768852  0.83767946  0.49790093  1
  Ca2+  Ca17  1  0.07861046  0.84386171  0.83180752  1
  Ca2+  Ca18  1  0.58879802  0.33079339  0.16790965  1
  Ca2+  Ca19  1  0.58960540  0.32584276  0.49457118  1
  Ca2+  Ca20  1  0.58780758  0.33180038  0.82643112  1
  Ca2+  Ca21  1  0.57771852  0.82844119  0.16036140  1
  Ca2+  Ca22  1  0.59185722  0.82114562  0.49597045  1
  Ca2+  Ca23  1  0.57800153  0.83186199  0.82408296  1
  Ca2+  Ca24  1  0.32493939  0.41558359  0.17285309  1
  Ca2+  Ca25  1  0.32330678  0.41932211  0.50591911  1
  Ca2+  Ca26  1  0.33419467  0.42217406  0.83168223  1
  Ca2+  Ca27  1  0.32784500  0.92244048  0.16945594  1
  Ca2+  Ca28  1  0.32610892  0.91814902  0.50121372  1
  Ca2+  Ca29  1  0.32553677  0.91818970  0.84266686  1
  Ca2+  Ca30  1  0.82480827  0.41586858  0.17083463  1
  Ca2+  Ca31  1  0.82320275  0.41168749  0.50152974  1
  Ca2+  Ca32  1  0.82018051  0.42308873  0.83999555  1
  Ca2+  Ca33  1  0.84137760  0.92770741  0.16760440  1
  Ca2+  Ca34  1  0.82632400  0.93048511  0.50664015  1
  Ca2+  Ca35  1  0.82778507  0.92262703  0.83701198  1
  Ca2+  Ca36  1  0.41947389  0.15873075  0.16339722  1
  Ca2+  Ca37  1  0.42932406  0.16174908  0.49388327  1
  Ca2+  Ca38  1  0.42242696  0.16652402  0.82768717  1
  Ca2+  Ca39  1  0.42176400  0.67231450  0.16200290  1
  Ca2+  Ca40  1  0.42453756  0.66243171  0.49874054  1
  Ca2+  Ca41  1  0.41841771  0.67161287  0.82596392  1
  Ca2+  Ca42  1  0.91852337  0.16697897  0.16230238  1
  Ca2+  Ca43  1  0.91254933  0.17032278  0.49298490  1
  Ca2+  Ca44  1  0.92058988  0.15669402  0.83254109  1
  Ca2+  Ca45  1  0.91785163  0.67355349  0.15648568  1
  Ca2+  Ca46  1  0.91802951  0.67118487  0.49463244  1
  Ca2+  Ca47  1  0.91121950  0.67172393  0.83423659  1
  Al0+  Al48  1  -0.00073906  -0.00052010  -0.00178697  1
  Al0+  Al49  1  0.00007209  0.00143028  0.34164447  1
  Al0+  Al50  1  0.00079972  0.00141672  0.66973325  1
  Al0+  Al51  1  -0.00170450  0.50035820  0.00026235  1
  Al0+  Al52  1  -0.00177564  0.50159067  0.33091828  1
  Al0+  Al53  1  -0.00001591  0.50034038  0.66983542  1
  Al0+  Al54  1  0.50023269  -0.00057313  -0.00361334  1
  Al0+  Al55  1  0.50099242  -0.00226532  0.33156413  1
  Al0+  Al56  1  0.50019488  -0.00028133  0.66220612  1
  Al0+  Al57  1  0.49836627  0.49749019  0.00453040  1
  Al0+  Al58  1  0.50085681  0.49892759  0.33037006  1
  Al0+  Al59  1  0.49791115  0.50065275  0.67018521  1
  Al0+  Al60  1  0.25117190  0.24945516  -0.00270311  1
  Al0+  Al61  1  0.25060691  0.24883122  0.34222340  1
  Al0+  Al62  1  0.24886094  0.24911364  0.66707046  1
  Al0+  Al63  1  0.25031247  0.74814850  -0.00091997  1
  Al0+  Al64  1  0.25051666  0.74940256  0.33607453  1
  Al0+  Al65  1  0.24857244  0.74983797  0.67236934  1
  Al0+  Al66  1  0.75007142  0.25030839  0.00666587  1
  Al0+  Al67  1  0.75051225  0.25200685  0.33140167  1
  Al0+  Al68  1  0.75205734  0.25219834  0.67231535  1
  Al0+  Al69  1  0.75084956  0.74766335  -0.00198300  1
  Al0+  Al70  1  0.75204448  0.74982721  0.32537125  1
  Al0+  Al71  1  0.75017766  0.75222882  0.66296469  1
  Al0+  Al72  1  0.57078930  0.17840478  0.31881878  1
  Al0+  Al73  1  0.17610734  0.42653110  0.68309255  1
  Al0+  Al74  1  0.81887303  0.07149408  0.34685042  1
  Al0+  Al75  1  0.67744941  0.92668919  0.68002659  1
  Al0+  Al76  1  0.17666333  0.42927139  0.34463571  1
  Al0+  Al77  1  0.32058656  0.56988506  0.68185545  1
  Al0+  Al78  1  0.92972960  0.82075192  0.98507490  1
  Al0+  Al79  1  0.17907583  0.92855505  0.34886524  1
  Al0+  Al80  1  0.17939209  0.92844588  0.01476268  1
  Al0+  Al81  1  0.92961802  0.32163971  0.31880361  1
  Al0+  Al82  1  0.68014492  0.43150235  0.34866984  1
  Al0+  Al83  1  0.32513630  0.07132507  0.35016928  1
  Al0+  Al84  1  0.18069436  0.93050776  0.68262226  1
  Al0+  Al85  1  0.67962927  0.43098378  0.67910834  1
  Al0+  Al86  1  0.07044782  0.18065309  0.98709712  1
  Al0+  Al87  1  0.42927605  0.82078370  0.98557918  1
  Al0+  Al88  1  0.57151336  0.67713373  0.31713822  1
  Al0+  Al89  1  0.57045004  0.67925756  0.65366530  1
  Al0+  Al90  1  0.82001037  0.06856581  0.01511073  1
  Al0+  Al91  1  0.32340865  0.07258055  0.01373368  1
  Al0+  Al92  1  0.81965401  0.07231977  0.68304108  1
  Al0+  Al93  1  0.82146364  0.57239666  0.01567319  1
  Al0+  Al94  1  0.67727154  0.42886525  0.01819453  1
  Al0+  Al95  1  0.57194333  0.18118296  0.65414371  1
  Si0+  Si96  1  0.07119913  0.17780222  0.64993676  1
  Si0+  Si97  1  0.42624737  0.32085904  0.31756974  1
  Si0+  Si98  1  0.67668478  0.92636187  0.01549524  1
  Si0+  Si99  1  0.82165881  0.57503503  0.35011683  1
  Si0+  Si100  1  0.07059959  0.67869752  0.65135410  1
  Si0+  Si101  1  0.17894909  0.42814697  0.01371373  1
  Si0+  Si102  1  0.42647586  0.32234007  0.64950678  1
  Si0+  Si103  1  0.67855039  0.92520859  0.34669229  1
  Si0+  Si104  1  0.32390776  0.07215265  0.68284927  1
  Si0+  Si105  1  0.32014527  0.57034975  0.01644557  1
  Si0+  Si106  1  0.93124134  0.32209823  0.65286595  1
  Si0+  Si107  1  0.42533318  0.82170818  0.64851432  1
  Si0+  Si108  1  0.07304278  0.67476178  0.98153049  1
  Si0+  Si109  1  0.42637603  0.82042544  0.31602539  1
  Si0+  Si110  1  0.56995441  0.67633088  0.98311323  1
  Si0+  Si111  1  0.57259815  0.18007844  0.98556941  1
  Si0+  Si112  1  0.07172217  0.67959025  0.31965277  1
  Si0+  Si113  1  0.93014304  0.82283869  0.64962908  1
  Si0+  Si114  1  0.07297034  0.17746223  0.31868497  1
  Si0+  Si115  1  0.92669964  0.32261022  0.98171434  1
  Si0+  Si116  1  0.32206207  0.57119305  0.34867709  1
  Si0+  Si117  1  0.93153998  0.82282593  0.31911911  1
  Si0+  Si118  1  0.42811637  0.32167758  0.98457809  1
  Si0+  Si119  1  0.82332165  0.57473546  0.68099518  1
  O2-  O120  1  0.25233515  -0.00029526  0.06351946  1
  O2-  O121  1  0.25199848  -0.00049234  0.39868266  1
  O2-  O122  1  0.25661272  0.00345704  0.72841839  1
  O2-  O123  1  0.24669111  0.50137307  0.05773659  1
  O2-  O124  1  0.25306740  0.50209460  0.39137018  1
  O2-  O125  1  0.24992630  0.49653812  0.73264990  1
  O2-  O126  1  0.74540305  -0.00625671  0.06187188  1
  O2-  O127  1  0.74163581  -0.00144082  0.39165480  1
  O2-  O128  1  0.74615187  0.00082567  0.73136347  1
  O2-  O129  1  0.75027656  0.50079111  0.06648557  1
  O2-  O130  1  0.75215460  0.50871080  0.39597726  1
  O2-  O131  1  0.75037637  0.51018861  0.72401527  1
  O2-  O132  1  0.00700749  0.24853882  0.27372790  1
  O2-  O133  1  0.00315926  0.25235791  0.60923544  1
  O2-  O134  1  -0.00447579  0.25441372  0.93708737  1
  O2-  O135  1  0.00451885  0.75351508  0.27718932  1
  O2-  O136  1  0.00038238  0.75011745  0.60773323  1
  O2-  O137  1  0.00507115  0.74522980  0.93875194  1
  O2-  O138  1  0.49189233  0.24961339  0.27222679  1
  O2-  O139  1  0.49535859  0.25378663  0.60579176  1
  O2-  O140  1  0.50029061  0.25078723  0.94435428  1
  O2-  O141  1  0.49711611  0.75305209  0.27231671  1
  O2-  O142  1  0.49773350  0.75594324  0.60506127  1
  O2-  O143  1  0.50519206  0.74772291  0.93794035  1
  O2-  O144  1  0.07119366  0.18418773  0.10027990  1
  O2-  O145  1  0.07016169  0.17757165  0.42462028  1
  O2-  O146  1  0.07047606  0.17732647  0.75513014  1
  O2-  O147  1  0.07342001  0.67224304  0.08753787  1
  O2-  O148  1  0.06978670  0.67798327  0.42488748  1
  O2-  O149  1  0.06896924  0.67719209  0.75617413  1
  O2-  O150  1  0.57249173  0.18056659  0.09064592  1
  O2-  O151  1  0.57270347  0.18229293  0.43200390  1
  O2-  O152  1  0.57124595  0.18416686  0.76766340  1
  O2-  O153  1  0.56665211  0.67661557  0.08895550  1
  O2-  O154  1  0.57016582  0.67750549  0.43039682  1
  O2-  O155  1  0.56849758  0.67913885  0.76669294  1
  O2-  O156  1  0.17794858  0.43209397  0.23092507  1
  O2-  O157  1  0.17421795  0.43035072  0.56941422  1
  O2-  O158  1  0.18113143  0.42887053  0.90891389  1
  O2-  O159  1  0.17807985  0.92790646  0.23584055  1
  O2-  O160  1  0.18073721  0.93109977  0.56952138  1
  O2-  O161  1  0.18054035  0.93072439  0.90116639  1
  O2-  O162  1  0.68139877  0.43198843  0.23610664  1
  O2-  O163  1  0.68171835  0.42952329  0.56608679  1
  O2-  O164  1  0.67624895  0.43003378  0.90420330  1
  O2-  O165  1  0.68148603  0.92393301  0.24095842  1
  O2-  O166  1  0.68325827  0.92333691  0.56636627  1
  O2-  O167  1  0.67692669  0.92846846  0.90997796  1
  O2-  O168  1  0.42474545  0.32407252  0.08935174  1
  O2-  O169  1  0.42783895  0.32376921  0.42291232  1
  O2-  O170  1  0.42639564  0.32103769  0.75559138  1
  O2-  O171  1  0.43030778  0.81736843  0.09893091  1
  O2-  O172  1  0.42365117  0.81813084  0.42148108  1
  O2-  O173  1  0.42468495  0.81957293  0.75421521  1
  O2-  O174  1  0.92928026  0.32271496  0.08742058  1
  O2-  O175  1  0.92997035  0.32135986  0.43251362  1
  O2-  O176  1  0.93246560  0.32287345  0.75779366  1
  O2-  O177  1  0.93297781  0.82049436  0.09871236  1
  O2-  O178  1  0.92998369  0.82000380  0.42437976  1
  O2-  O179  1  0.93040768  0.82215673  0.75453874  1
  O2-  O180  1  0.32354684  0.07021028  0.23669834  1
  O2-  O181  1  0.32200351  0.07148808  0.57738034  1
  O2-  O182  1  0.32258957  0.07336952  0.90005323  1
  O2-  O183  1  0.31938201  0.57211848  0.24259983  1
  O2-  O184  1  0.31854539  0.56853192  0.56789759  1
  O2-  O185  1  0.32187672  0.56864669  0.91176877  1
  O2-  O186  1  0.82173498  0.06862576  0.23374691  1
  O2-  O187  1  0.81975341  0.07306994  0.56918861  1
  O2-  O188  1  0.81803965  0.06899739  0.90233897  1
  O2-  O189  1  0.82213759  0.57534988  0.24496789  1
  O2-  O190  1  0.82768995  0.57271495  0.57534848  1
  O2-  O191  1  0.81970863  0.57093882  0.90162650  1
  O2-  O192  1  0.04352309  0.08429547  0.27383318  1
  O2-  O193  1  0.04012376  0.08730920  0.60166747  1
  O2-  O194  1  0.03865962  0.08492277  0.93222534  1
  O2-  O195  1  0.04148743  0.59012209  0.26880626  1
  O2-  O196  1  0.04196779  0.58673621  0.60335604  1
  O2-  O197  1  0.04546564  0.58194826  0.93370532  1
  O2-  O198  1  0.54645003  0.07926572  0.26576267  1
  O2-  O199  1  0.54530869  0.08339187  0.59920008  1
  O2-  O200  1  0.54731752  0.08815875  0.93737054  1
  O2-  O201  1  0.53880613  0.58171491  0.26177289  1
  O2-  O202  1  0.53571567  0.58295449  0.60006400  1
  O2-  O203  1  0.53888172  0.58295703  0.93927031  1
  O2-  O204  1  0.16867940  0.20023651  0.27614281  1
  O2-  O205  1  0.16463707  0.20164392  0.60341734  1
  O2-  O206  1  0.16646517  0.21230243  0.93097652  1
  O2-  O207  1  0.16542179  0.70220747  0.27297392  1
  O2-  O208  1  0.16276283  0.70658818  0.60457072  1
  O2-  O209  1  0.16743663  0.69736962  0.93639191  1
  O2-  O210  1  0.66522750  0.21446460  0.26396278  1
  O2-  O211  1  0.66913398  0.21549999  0.60253195  1
  O2-  O212  1  0.66413682  0.21070946  0.93892587  1
  O2-  O213  1  0.66819580  0.70731913  0.26222643  1
  O2-  O214  1  0.66818210  0.70651424  0.59813948  1
  O2-  O215  1  0.66559008  0.69570147  0.93972701  1
  O2-  O216  1  0.08580792  0.45306963  0.05943408  1
  O2-  O217  1  0.08135178  0.46421229  0.39869085  1
  O2-  O218  1  0.07976566  0.45876046  0.73790485  1
  O2-  O219  1  0.08119608  0.95818745  0.06565733  1
  O2-  O220  1  0.08234536  0.95752195  0.40524609  1
  O2-  O221  1  0.08459329  0.96332871  0.73517040  1
  O2-  O222  1  0.57840690  0.45592436  0.07122918  1
  O2-  O223  1  0.58151471  0.45942182  0.40011947  1
  O2-  O224  1  0.58219891  0.45704533  0.73289113  1
  O2-  O225  1  0.58331293  0.95212864  0.06125457  1
  O2-  O226  1  0.58267541  0.94156493  0.39014740  1
  O2-  O227  1  0.57626623  0.94957041  0.72875799  1
  O2-  O228  1  0.21049578  0.33817045  0.06139180  1
  O2-  O229  1  0.20302799  0.33340040  0.40111871  1
  O2-  O230  1  0.20280054  0.32713203  0.73429491  1
  O2-  O231  1  0.20480667  0.82775394  0.06493583  1
  O2-  O232  1  0.20613694  0.82896293  0.40193956  1
  O2-  O233  1  0.20555356  0.83276402  0.73592827  1
  O2-  O234  1  0.70729121  0.33167451  0.07182597  1
  O2-  O235  1  0.71502948  0.33601792  0.40139674  1
  O2-  O236  1  0.71535846  0.33852807  0.73696405  1
  O2-  O237  1  0.69981818  0.83127175  0.05879962  1
  O2-  O238  1  0.71108050  0.83327574  0.39269774  1
  O2-  O239  1  0.70865167  0.82949203  0.73430739  1
  O2-  O240  1  0.45326072  0.41324761  0.26876379  1
  O2-  O241  1  0.45034503  0.41668412  0.60521982  1
  O2-  O242  1  0.45666720  0.41353361  0.93646886  1
  O2-  O243  1  0.45084724  0.91384637  0.26963065  1
  O2-  O244  1  0.44563762  0.91643740  0.60283092  1
  O2-  O245  1  0.45751385  0.91745338  0.92976206  1
  O2-  O246  1  0.95850863  0.41903650  0.26412173  1
  O2-  O247  1  0.95740351  0.41459339  0.60473900  1
  O2-  O248  1  0.95165901  0.41678310  0.93619234  1
  O2-  O249  1  0.95973737  0.91558991  0.27390205  1
  O2-  O250  1  0.96135722  0.91410169  0.60262157  1
  O2-  O251  1  0.96035014  0.91599985  0.92882515  1
  O2-  O252  1  0.33045463  0.29824366  0.27338217  1
  O2-  O253  1  0.33178725  0.29788395  0.60389231  1
  O2-  O254  1  0.33783493  0.29471204  0.93356421  1
  O2-  O255  1  0.33365836  0.79127815  0.26878065  1
  O2-  O256  1  0.33244256  0.79074875  0.60319797  1
  O2-  O257  1  0.33319683  0.78704168  0.93179403  1
  O2-  O258  1  0.83506857  0.28878551  0.26322351  1
  O2-  O259  1  0.83972441  0.29236492  0.60602834  1
  O2-  O260  1  0.83200329  0.29625267  0.93872301  1
  O2-  O261  1  0.84171342  0.79495390  0.26817079  1
  O2-  O262  1  0.83911898  0.79620349  0.60005347  1
  O2-  O263  1  0.83290399  0.78923193  0.93012444  1
  O2-  O264  1  0.42256757  0.04437273  0.06499932  1
  O2-  O265  1  0.42366785  0.04074751  0.40231682  1
  O2-  O266  1  0.41861990  0.04934336  0.72692800  1
  O2-  O267  1  0.40986246  0.53966629  0.06594619  1
  O2-  O268  1  0.41536072  0.54441396  0.39330093  1
  O2-  O269  1  0.41684387  0.54154241  0.73869576  1
  O2-  O270  1  0.91628314  0.03703438  0.06830080  1
  O2-  O271  1  0.91370079  0.04043513  0.40365960  1
  O2-  O272  1  0.91750508  0.04075712  0.73415349  1
  O2-  O273  1  0.92144285  0.54659242  0.06787055  1
  O2-  O274  1  0.91544835  0.54932952  0.39571340  1
  O2-  O275  1  0.91435959  0.54600576  0.73021305  1
  O2-  O276  1  0.29536069  0.17160848  0.06604770  1
  O2-  O277  1  0.29952662  0.16923258  0.40540241  1
  O2-  O278  1  0.29884020  0.16629346  0.72762312  1
  O2-  O279  1  0.29354598  0.66164321  0.06481318  1
  O2-  O280  1  0.29662058  0.66356384  0.39639723  1
  O2-  O281  1  0.28933333  0.66619845  0.73666449  1
  O2-  O282  1  0.79067820  0.16518948  0.06923734  1
  O2-  O283  1  0.78858679  0.16821376  0.39964660  1
  O2-  O284  1  0.79348119  0.16984455  0.73817286  1
  O2-  O285  1  0.79516583  0.67131301  0.06888971  1
  O2-  O286  1  0.79867601  0.67012835  0.39456808  1
  O2-  O287  1  0.80206003  0.66993151  0.72422899  1
