# generated using pymatgen
data_Ca2Al2SiO7
_symmetry_space_group_name_H-M   'P 1'
_cell_length_a   15.45345929
_cell_length_b   15.45302595
_cell_length_c   15.28016688
_cell_angle_alpha   89.99860596
_cell_angle_beta   89.99732031
_cell_angle_gamma   90.00425482
_symmetry_Int_Tables_number   1
_chemical_formula_structural   Ca2Al2SiO7
_chemical_formula_sum   'Ca48 Al48 Si24 O168'
_cell_volume   3648.94520751
_cell_formula_units_Z   24
loop_
 _symmetry_equiv_pos_site_id
 _symmetry_equiv_pos_as_xyz
  1  'x, y, z'
loop_
 _atom_type_symbol
 _atom_type_oxidation_number
  Ca2+  2.0
  Al0+  0.0
  Si0+  0.0
  O2-  -2.0
loop_
 _atom_site_type_symbol
 _atom_site_label
 _atom_site_symmetry_multiplicity
 _atom_site_fract_x
 _atom_site_fract_y
 _atom_site_fract_z
 _atom_site_occupancy
  Ca2+  Ca0  1  0.16632107  0.07506679  0.17168702  1
  Ca2+  Ca1  1  0.15953045  0.07150835  0.50164975  1
  Ca2+  Ca2  1  0.17144418  0.07194752  0.83901067  1
  Ca2+  Ca3  1  0.16302983  0.57557784  0.17693573  1
  Ca2+  Ca4  1  0.16664781  0.57519761  0.50429694  1
  Ca2+  Ca5  1  0.17320659  0.58009312  0.83290363  1
  Ca2+  Ca6  1  0.67570946  0.09057982  0.16930316  1
  Ca2+  Ca7  1  0.68049773  0.08059091  0.50443077  1
  Ca2+  Ca8  1  0.67487097  0.08757639  0.83885159  1
  Ca2+  Ca9  1  0.67784774  0.58589264  0.17258863  1
  Ca2+  Ca10  1  0.66571521  0.58565207  0.50390657  1
  Ca2+  Ca11  1  0.66782203  0.57930252  0.83441703  1
  Ca2+  Ca12  1  0.08143259  0.32710579  0.16350363  1
  Ca2+  Ca13  1  0.09001025  0.32786735  0.49204511  1
  Ca2+  Ca14  1  0.07811058  0.33322461  0.82974256  1
  Ca2+  Ca15  1  0.08405512  0.83425190  0.17002095  1
  Ca2+  Ca16  1  0.07902167  0.83209990  0.49155040  1
  Ca2+  Ca17  1  0.08090796  0.83911311  0.82719543  1
  Ca2+  Ca18  1  0.57616057  0.32645685  0.15575787  1
  Ca2+  Ca19  1  0.57906132  0.33999189  0.50207807  1
  Ca2+  Ca20  1  0.57541131  0.33135775  0.82838347  1
  Ca2+  Ca21  1  0.58188935  0.83101818  0.16862265  1
  Ca2+  Ca22  1  0.57704084  0.82048415  0.49066938  1
  Ca2+  Ca23  1  0.58214206  0.82589649  0.82572367  1
  Ca2+  Ca24  1  0.32946906  0.41414720  0.17177556  1
  Ca2+  Ca25  1  0.32385351  0.42059436  0.50987859  1
  Ca2+  Ca26  1  0.33537073  0.41462140  0.83024987  1
  Ca2+  Ca27  1  0.32693684  0.91994771  0.17228551  1
  Ca2+  Ca28  1  0.32205602  0.90667298  0.50140230  1
  Ca2+  Ca29  1  0.32125425  0.91835221  0.84260519  1
  Ca2+  Ca30  1  0.84097834  0.42696005  0.16957430  1
  Ca2+  Ca31  1  0.82759216  0.42772761  0.50426393  1
  Ca2+  Ca32  1  0.82664421  0.41869045  0.84156989  1
  Ca2+  Ca33  1  0.83750171  0.92804281  0.17379634  1
  Ca2+  Ca34  1  0.84855118  0.92518572  0.50245847  1
  Ca2+  Ca35  1  0.83747345  0.92735835  0.83558197  1
  Ca2+  Ca36  1  0.42103914  0.16970177  0.15356423  1
  Ca2+  Ca37  1  0.41254895  0.17522335  0.49734542  1
  Ca2+  Ca38  1  0.41581575  0.17223980  0.83298278  1
  Ca2+  Ca39  1  0.41757237  0.67315870  0.16897045  1
  Ca2+  Ca40  1  0.42464782  0.66296368  0.49541439  1
  Ca2+  Ca41  1  0.42189040  0.66301069  0.82319525  1
  Ca2+  Ca42  1  0.91880439  0.16704887  0.16294284  1
  Ca2+  Ca43  1  0.92044767  0.16520177  0.49291960  1
  Ca2+  Ca44  1  0.91034817  0.16876900  0.83147773  1
  Ca2+  Ca45  1  0.91793631  0.66633048  0.16608327  1
  Ca2+  Ca46  1  0.91934748  0.67905642  0.48884326  1
  Ca2+  Ca47  1  0.91596426  0.67434389  0.82723086  1
  Al0+  Al48  1  -0.00113210  -0.00135549  0.00712556  1
  Al0+  Al49  1  0.00249361  0.00158088  0.33204022  1
  Al0+  Al50  1  0.00086432  0.00185216  0.67305149  1
  Al0+  Al51  1  0.00069577  0.50060513  -0.00263676  1
  Al0+  Al52  1  -0.00186775  0.50022898  0.34147409  1
  Al0+  Al53  1  -0.00043069  0.50008652  0.66998879  1
  Al0+  Al54  1  0.49952256  -0.00177204  -0.00303169  1
  Al0+  Al55  1  0.50113945  0.00189870  0.33155026  1
  Al0+  Al56  1  0.50169639  0.00057969  0.66446324  1
  Al0+  Al57  1  0.49945480  0.50014245  -0.00151229  1
  Al0+  Al58  1  0.50056955  0.49972242  0.32674805  1
  Al0+  Al59  1  0.50062916  0.49880820  0.66560161  1
  Al0+  Al60  1  0.24908479  0.24897290  -0.00228329  1
  Al0+  Al61  1  0.24938408  0.24917340  0.33133026  1
  Al0+  Al62  1  0.24945463  0.24915562  0.66634775  1
  Al0+  Al63  1  0.24927582  0.74718905  0.00347634  1
  Al0+  Al64  1  0.25088739  0.74925639  0.32939944  1
  Al0+  Al65  1  0.24894071  0.74834563  0.67567855  1
  Al0+  Al66  1  0.74898186  0.25049931  -0.00226658  1
  Al0+  Al67  1  0.74930817  0.25127248  0.33878649  1
  Al0+  Al68  1  0.75008700  0.25151560  0.67212562  1
  Al0+  Al69  1  0.75118192  0.74985322  0.00210682  1
  Al0+  Al70  1  0.74958746  0.75189489  0.32878183  1
  Al0+  Al71  1  0.75016063  0.75307477  0.65724701  1
  Al0+  Al72  1  0.68001460  0.43105043  0.68115852  1
  Al0+  Al73  1  0.32144057  0.07131814  0.01455177  1
  Al0+  Al74  1  0.56994385  0.67942532  0.65336114  1
  Al0+  Al75  1  0.42964041  0.31826406  0.65079900  1
  Al0+  Al76  1  0.07026226  0.67634832  0.31948919  1
  Al0+  Al77  1  0.57181211  0.67717232  0.31467713  1
  Al0+  Al78  1  0.18059277  0.92951938  0.67987024  1
  Al0+  Al79  1  0.82147248  0.57099588  0.01247462  1
  Al0+  Al80  1  0.32095364  0.56903553  0.68075096  1
  Al0+  Al81  1  0.93021387  0.82293239  0.31596958  1
  Al0+  Al82  1  0.17927279  0.42786056  0.34553458  1
  Al0+  Al83  1  0.93081314  0.32194622  0.98685817  1
  Al0+  Al84  1  0.42803702  0.82268215  0.31804626  1
  Al0+  Al85  1  0.81805904  0.07222323  0.01529505  1
  Al0+  Al86  1  0.18195210  0.92919277  0.34804337  1
  Al0+  Al87  1  0.17672174  0.42569145  0.68384476  1
  Al0+  Al88  1  0.82040065  0.06968788  0.68122491  1
  Al0+  Al89  1  0.07083990  0.17995510  0.31966365  1
  Al0+  Al90  1  0.42651889  0.32219899  0.98324253  1
  Al0+  Al91  1  0.17843265  0.92686163  0.01891805  1
  Al0+  Al92  1  0.93232049  0.82243505  0.65404201  1
  Al0+  Al93  1  0.57142114  0.17669437  0.98365926  1
  Al0+  Al94  1  0.82014049  0.57325616  0.34834488  1
  Al0+  Al95  1  0.82099224  0.07059079  0.34741197  1
  Si0+  Si96  1  0.57219954  0.68053777  0.98420737  1
  Si0+  Si97  1  0.32337793  0.57062299  0.34789703  1
  Si0+  Si98  1  0.67615601  0.92889543  0.35042273  1
  Si0+  Si99  1  0.92930172  0.82076688  0.98505993  1
  Si0+  Si100  1  0.07313166  0.67652526  0.65146596  1
  Si0+  Si101  1  0.67629584  0.42880052  0.34931672  1
  Si0+  Si102  1  0.82117748  0.57577414  0.68216609  1
  Si0+  Si103  1  0.17867161  0.42973226  0.01429622  1
  Si0+  Si104  1  0.42892098  0.31958823  0.31841679  1
  Si0+  Si105  1  0.57291236  0.18025909  0.32008819  1
  Si0+  Si106  1  0.67641500  0.92712008  0.68150172  1
  Si0+  Si107  1  0.32481507  0.07262145  0.68165938  1
  Si0+  Si108  1  0.92573566  0.32180227  0.31980492  1
  Si0+  Si109  1  0.92665185  0.32282423  0.65170144  1
  Si0+  Si110  1  0.32493530  0.07272227  0.35049086  1
  Si0+  Si111  1  0.32287112  0.56994761  0.01696065  1
  Si0+  Si112  1  0.57521058  0.17751713  0.64754202  1
  Si0+  Si113  1  0.07000080  0.17565551  0.98218754  1
  Si0+  Si114  1  0.06897746  0.18111443  0.65323370  1
  Si0+  Si115  1  0.67722011  0.42944461  0.01691224  1
  Si0+  Si116  1  0.42539784  0.82317397  0.65287585  1
  Si0+  Si117  1  0.67733789  0.92570017  0.01604553  1
  Si0+  Si118  1  0.42718905  0.81859372  0.98378187  1
  Si0+  Si119  1  0.07194860  0.67799358  0.98336485  1
  O2-  O120  1  0.25028111  0.00023798  0.06669345  1
  O2-  O121  1  0.25915156  0.00167229  0.39535707  1
  O2-  O122  1  0.26154245  -0.00157973  0.72478932  1
  O2-  O123  1  0.25399662  0.49597516  0.05701185  1
  O2-  O124  1  0.25251672  0.50418136  0.39158210  1
  O2-  O125  1  0.24861289  0.49816463  0.73311675  1
  O2-  O126  1  0.74128928  -0.00119823  0.06045639  1
  O2-  O127  1  0.74918063  -0.00678808  0.39473378  1
  O2-  O128  1  0.74342821  -0.00340046  0.72699054  1
  O2-  O129  1  0.74785364  0.49592552  0.06096988  1
  O2-  O130  1  0.74235777  0.50040278  0.39289684  1
  O2-  O131  1  0.75538089  0.50531704  0.72789349  1
  O2-  O132  1  -0.00475617  0.25462194  0.27460710  1
  O2-  O133  1  0.00132389  0.25549829  0.61024637  1
  O2-  O134  1  0.00121112  0.24416842  0.93735874  1
  O2-  O135  1  -0.00098429  0.74736621  0.26595522  1
  O2-  O136  1  0.00423960  0.74494361  0.60799358  1
  O2-  O137  1  0.00236715  0.75152359  0.94261009  1
  O2-  O138  1  0.50006745  0.24879307  0.27724510  1
  O2-  O139  1  0.50321633  0.24258672  0.60252902  1
  O2-  O140  1  0.49802522  0.24841780  0.93501834  1
  O2-  O141  1  0.50049266  0.75121647  0.26657458  1
  O2-  O142  1  0.49450285  0.75494747  0.60895654  1
  O2-  O143  1  0.49971381  0.74936592  0.94087058  1
  O2-  O144  1  0.06983871  0.17787966  0.08778533  1
  O2-  O145  1  0.07032377  0.18041964  0.43332891  1
  O2-  O146  1  0.06714336  0.18038825  0.75839669  1
  O2-  O147  1  0.07174262  0.67413905  0.08799525  1
  O2-  O148  1  0.06971485  0.67668093  0.43320210  1
  O2-  O149  1  0.07171573  0.67660752  0.75765237  1
  O2-  O150  1  0.57174592  0.18084274  0.09808085  1
  O2-  O151  1  0.57333467  0.18152044  0.42510561  1
  O2-  O152  1  0.57588945  0.17836047  0.75273589  1
  O2-  O153  1  0.57201028  0.68182015  0.08882207  1
  O2-  O154  1  0.56812607  0.67509564  0.42831555  1
  O2-  O155  1  0.57039061  0.68153669  0.76727053  1
  O2-  O156  1  0.18216627  0.42666474  0.23180675  1
  O2-  O157  1  0.17835287  0.42538979  0.57022147  1
  O2-  O158  1  0.17669952  0.43306420  0.90951399  1
  O2-  O159  1  0.18263770  0.93226036  0.23553392  1
  O2-  O160  1  0.17887422  0.93043155  0.56690669  1
  O2-  O161  1  0.17908765  0.92718188  0.90471003  1
  O2-  O162  1  0.67651164  0.42564081  0.24383041  1
  O2-  O163  1  0.68202418  0.43140337  0.56779010  1
  O2-  O164  1  0.67675756  0.43261080  0.91126173  1
  O2-  O165  1  0.67375885  0.93347819  0.24466291  1
  O2-  O166  1  0.67441455  0.92857814  0.57633924  1
  O2-  O167  1  0.68121720  0.92092016  0.91031124  1
  O2-  O168  1  0.42902614  0.32359604  0.09758095  1
  O2-  O169  1  0.42898939  0.32011347  0.42347978  1
  O2-  O170  1  0.43074065  0.31616619  0.76336064  1
  O2-  O171  1  0.42730070  0.81686693  0.08849569  1
  O2-  O172  1  0.42923159  0.82054963  0.43203539  1
  O2-  O173  1  0.42766523  0.82282846  0.75890494  1
  O2-  O174  1  0.93561705  0.32445399  0.09996518  1
  O2-  O175  1  0.92422120  0.31930395  0.42570082  1
  O2-  O176  1  0.92600787  0.32130522  0.75694724  1
  O2-  O177  1  0.92745283  0.81958990  0.08952068  1
  O2-  O178  1  0.93464271  0.82374586  0.42985196  1
  O2-  O179  1  0.93273896  0.82190012  0.76793459  1
  O2-  O180  1  0.32480575  0.07443279  0.24516587  1
  O2-  O181  1  0.32273997  0.07487518  0.57600831  1
  O2-  O182  1  0.31919836  0.06800154  0.90050809  1
  O2-  O183  1  0.32471032  0.56658704  0.24175694  1
  O2-  O184  1  0.31998676  0.56858342  0.56711111  1
  O2-  O185  1  0.32283684  0.57302309  0.91216981  1
  O2-  O186  1  0.81744126  0.07370641  0.23442837  1
  O2-  O187  1  0.82204043  0.06919294  0.56814875  1
  O2-  O188  1  0.81947673  0.06884207  0.90203142  1
  O2-  O189  1  0.82132434  0.56857211  0.23488058  1
  O2-  O190  1  0.81995185  0.57436060  0.57673682  1
  O2-  O191  1  0.81850712  0.57276959  0.89925113  1
  O2-  O192  1  0.03978315  0.08558009  0.26357852  1
  O2-  O193  1  0.03646402  0.09062532  0.60615066  1
  O2-  O194  1  0.04304673  0.08123405  0.93837589  1
  O2-  O195  1  0.04021658  0.57680532  0.26800541  1
  O2-  O196  1  0.04917316  0.58170428  0.60673645  1
  O2-  O197  1  0.04204048  0.58835356  0.93308854  1
  O2-  O198  1  0.54934848  0.08825194  0.27176802  1
  O2-  O199  1  0.55443085  0.08198731  0.60242588  1
  O2-  O200  1  0.54720748  0.07676863  0.93045248  1
  O2-  O201  1  0.54308396  0.57942221  0.25930783  1
  O2-  O202  1  0.53927035  0.58361679  0.59876842  1
  O2-  O203  1  0.54478856  0.58792316  0.93834755  1
  O2-  O204  1  0.16662136  0.21130848  0.26355790  1
  O2-  O205  1  0.16146026  0.20430684  0.60507672  1
  O2-  O206  1  0.16327500  0.20155928  0.93585464  1
  O2-  O207  1  0.16946833  0.70086198  0.26640940  1
  O2-  O208  1  0.16785544  0.70152582  0.60823945  1
  O2-  O209  1  0.16491563  0.70429858  0.93666021  1
  O2-  O210  1  0.66362890  0.21162857  0.27203426  1
  O2-  O211  1  0.66770093  0.20883534  0.60194779  1
  O2-  O212  1  0.66876560  0.20738965  0.93010768  1
  O2-  O213  1  0.66931102  0.70693132  0.26137164  1
  O2-  O214  1  0.66482585  0.71035159  0.59621893  1
  O2-  O215  1  0.66368458  0.70980665  0.93645315  1
  O2-  O216  1  0.08924697  0.46283545  0.06262744  1
  O2-  O217  1  0.08294773  0.45403458  0.40174984  1
  O2-  O218  1  0.07756519  0.45341250  0.73669492  1
  O2-  O219  1  0.08008535  0.95431628  0.07102975  1
  O2-  O220  1  0.08650053  0.96441179  0.40137201  1
  O2-  O221  1  0.08833756  0.96777883  0.73758460  1
  O2-  O222  1  0.58406214  0.45706604  0.06340995  1
  O2-  O223  1  0.58154363  0.45353737  0.39409930  1
  O2-  O224  1  0.58436335  0.46213787  0.73541716  1
  O2-  O225  1  0.58134637  0.94515879  0.05886535  1
  O2-  O226  1  0.58448297  0.95883312  0.39870823  1
  O2-  O227  1  0.58197747  0.94956576  0.72891900  1
  O2-  O228  1  0.20120936  0.33558787  0.05919222  1
  O2-  O229  1  0.21298115  0.33205675  0.39976727  1
  O2-  O230  1  0.20585496  0.32730846  0.73609342  1
  O2-  O231  1  0.20773239  0.82761274  0.06935325  1
  O2-  O232  1  0.21079385  0.83060528  0.39992297  1
  O2-  O233  1  0.20419395  0.83267248  0.73690924  1
  O2-  O234  1  0.70033650  0.33492737  0.06101179  1
  O2-  O235  1  0.70321401  0.33728516  0.39926622  1
  O2-  O236  1  0.71046945  0.33553244  0.73704998  1
  O2-  O237  1  0.70731085  0.83475337  0.06519000  1
  O2-  O238  1  0.69604110  0.83284711  0.39247113  1
  O2-  O239  1  0.70388319  0.83359650  0.72706555  1
  O2-  O240  1  0.45551196  0.41061302  0.26896995  1
  O2-  O241  1  0.46247448  0.41403870  0.59696647  1
  O2-  O242  1  0.45678441  0.42102772  0.93098621  1
  O2-  O243  1  0.45689654  0.92186730  0.26551662  1
  O2-  O244  1  0.44806397  0.91747910  0.60654949  1
  O2-  O245  1  0.45214538  0.91050834  0.93559427  1
  O2-  O246  1  0.95125165  0.41605473  0.27653316  1
  O2-  O247  1  0.94980757  0.41704827  0.60642453  1
  O2-  O248  1  0.96368432  0.41689057  0.92983454  1
  O2-  O249  1  0.96254209  0.91992818  0.26309976  1
  O2-  O250  1  0.96700985  0.91908637  0.60257226  1
  O2-  O251  1  0.95668392  0.91360667  0.93898859  1
  O2-  O252  1  0.33811002  0.29120776  0.26980019  1
  O2-  O253  1  0.33217311  0.28751431  0.59696610  1
  O2-  O254  1  0.32727042  0.29586131  0.93062201  1
  O2-  O255  1  0.33196592  0.79249336  0.26179538  1
  O2-  O256  1  0.33102576  0.79587067  0.60972024  1
  O2-  O257  1  0.33567021  0.78729445  0.93715761  1
  O2-  O258  1  0.83239774  0.29572632  0.27309854  1
  O2-  O259  1  0.83605359  0.29188121  0.60416025  1
  O2-  O260  1  0.83271757  0.29494932  0.93419535  1
  O2-  O261  1  0.82966472  0.80118846  0.26537665  1
  O2-  O262  1  0.83542244  0.79770754  0.59795402  1
  O2-  O263  1  0.83801702  0.79092525  0.93677797  1
  O2-  O264  1  0.42136044  0.04362277  0.06523223  1
  O2-  O265  1  0.42011559  0.05273193  0.39612852  1
  O2-  O266  1  0.42118887  0.05421111  0.72531451  1
  O2-  O267  1  0.41534047  0.54455140  0.06457502  1
  O2-  O268  1  0.41657123  0.54139027  0.39306417  1
  O2-  O269  1  0.41852469  0.53915715  0.73429735  1
  O2-  O270  1  0.91380030  0.04011961  0.06941178  1
  O2-  O271  1  0.91850618  0.04162248  0.40002798  1
  O2-  O272  1  0.91473483  0.03769743  0.73858079  1
  O2-  O273  1  0.91851820  0.53952624  0.06539990  1
  O2-  O274  1  0.91349825  0.54028911  0.40701308  1
  O2-  O275  1  0.91575013  0.55323685  0.72751361  1
  O2-  O276  1  0.29496127  0.17133669  0.06598583  1
  O2-  O277  1  0.29509058  0.16545688  0.39623566  1
  O2-  O278  1  0.29265135  0.16304085  0.72952556  1
  O2-  O279  1  0.29212769  0.65990750  0.06582440  1
  O2-  O280  1  0.30259573  0.66556390  0.39148773  1
  O2-  O281  1  0.29440659  0.66622141  0.73883641  1
  O2-  O282  1  0.78958074  0.17011510  0.06837583  1
  O2-  O283  1  0.78809444  0.16637701  0.40295795  1
  O2-  O284  1  0.79051791  0.16634695  0.73504641  1
  O2-  O285  1  0.79001177  0.66663743  0.06762874  1
  O2-  O286  1  0.79155662  0.67186523  0.39907519  1
  O2-  O287  1  0.79314037  0.66975822  0.72617113  1
