# generated using pymatgen
data_Ca2Al2SiO7
_symmetry_space_group_name_H-M   'P 1'
_cell_length_a   15.46465118
_cell_length_b   15.46349089
_cell_length_c   15.28761291
_cell_angle_alpha   90.00274752
_cell_angle_beta   89.98963395
_cell_angle_gamma   90.00519114
_symmetry_Int_Tables_number   1
_chemical_formula_structural   Ca2Al2SiO7
_chemical_formula_sum   'Ca48 Al48 Si24 O168'
_cell_volume   3655.84134048
_cell_formula_units_Z   24
loop_
 _symmetry_equiv_pos_site_id
 _symmetry_equiv_pos_as_xyz
  1  'x, y, z'
loop_
 _atom_type_symbol
 _atom_type_oxidation_number
  Ca2+  2.0
  Al0+  0.0
  Si0+  0.0
  O2-  -2.0
loop_
 _atom_site_type_symbol
 _atom_site_label
 _atom_site_symmetry_multiplicity
 _atom_site_fract_x
 _atom_site_fract_y
 _atom_site_fract_z
 _atom_site_occupancy
  Ca2+  Ca0  1  0.16410518  0.08098793  0.16458235  1
  Ca2+  Ca1  1  0.17898919  0.07588160  0.50911650  1
  Ca2+  Ca2  1  0.17006273  0.07469039  0.83685842  1
  Ca2+  Ca3  1  0.17958989  0.57790099  0.17512797  1
  Ca2+  Ca4  1  0.17736172  0.58500978  0.50213933  1
  Ca2+  Ca5  1  0.18029657  0.58834382  0.83895928  1
  Ca2+  Ca6  1  0.67558214  0.09194846  0.17153845  1
  Ca2+  Ca7  1  0.67670655  0.08592221  0.50316761  1
  Ca2+  Ca8  1  0.67761019  0.08414040  0.84036632  1
  Ca2+  Ca9  1  0.65426624  0.57503740  0.16971685  1
  Ca2+  Ca10  1  0.65313934  0.57259902  0.49955430  1
  Ca2+  Ca11  1  0.65738167  0.57304961  0.84019734  1
  Ca2+  Ca12  1  0.08511759  0.32795435  0.15905726  1
  Ca2+  Ca13  1  0.08301884  0.33289361  0.49274437  1
  Ca2+  Ca14  1  0.08603570  0.32303715  0.83059274  1
  Ca2+  Ca15  1  0.07336682  0.83984351  0.16070789  1
  Ca2+  Ca16  1  0.07504640  0.84238365  0.49974764  1
  Ca2+  Ca17  1  0.07749021  0.84519189  0.83105198  1
  Ca2+  Ca18  1  0.58627167  0.32866583  0.15888637  1
  Ca2+  Ca19  1  0.58854065  0.32987865  0.49457594  1
  Ca2+  Ca20  1  0.58489072  0.33344656  0.83725102  1
  Ca2+  Ca21  1  0.57632082  0.82075622  0.16282080  1
  Ca2+  Ca22  1  0.56903158  0.82832624  0.48893572  1
  Ca2+  Ca23  1  0.57973791  0.82355066  0.82675334  1
  Ca2+  Ca24  1  0.33706673  0.42410957  0.17017941  1
  Ca2+  Ca25  1  0.33353816  0.42960729  0.50148688  1
  Ca2+  Ca26  1  0.34117332  0.42743236  0.84075037  1
  Ca2+  Ca27  1  0.32699005  0.91134678  0.17046554  1
  Ca2+  Ca28  1  0.33334264  0.91597708  0.51269076  1
  Ca2+  Ca29  1  0.32288796  0.91102577  0.83531175  1
  Ca2+  Ca30  1  0.82016746  0.41522951  0.17162119  1
  Ca2+  Ca31  1  0.82017695  0.41913853  0.50458970  1
  Ca2+  Ca32  1  0.82076661  0.41751340  0.83880934  1
  Ca2+  Ca33  1  0.83744102  0.92452794  0.16985323  1
  Ca2+  Ca34  1  0.83799172  0.92389489  0.50353450  1
  Ca2+  Ca35  1  0.84106317  0.92312865  0.83871145  1
  Ca2+  Ca36  1  0.43113345  0.17606400  0.15699341  1
  Ca2+  Ca37  1  0.42515827  0.16400561  0.49114137  1
  Ca2+  Ca38  1  0.41755964  0.17216275  0.82954072  1
  Ca2+  Ca39  1  0.42174591  0.65901180  0.16578963  1
  Ca2+  Ca40  1  0.41271223  0.67347226  0.49579968  1
  Ca2+  Ca41  1  0.41635150  0.66569999  0.83165134  1
  Ca2+  Ca42  1  0.91877653  0.16242587  0.15921046  1
  Ca2+  Ca43  1  0.91442726  0.16250391  0.49619485  1
  Ca2+  Ca44  1  0.91912152  0.15789483  0.83384316  1
  Ca2+  Ca45  1  0.91410586  0.68032474  0.16059404  1
  Ca2+  Ca46  1  0.91709446  0.68062704  0.49249073  1
  Ca2+  Ca47  1  0.91778762  0.68162070  0.82705481  1
  Al0+  Al48  1  0.00079919  0.00172862  0.00052624  1
  Al0+  Al49  1  0.00041588  0.00225614  0.33393764  1
  Al0+  Al50  1  0.00155291  0.00125566  0.66713298  1
  Al0+  Al51  1  -0.00027525  0.50197241  -0.00156465  1
  Al0+  Al52  1  -0.00248839  0.49974307  0.33600293  1
  Al0+  Al53  1  -0.00097009  0.49883452  0.66527645  1
  Al0+  Al54  1  0.50002340  -0.00019294  -0.00413747  1
  Al0+  Al55  1  0.50161519  -0.00021962  0.32199595  1
  Al0+  Al56  1  0.50309584  0.00085955  0.66663329  1
  Al0+  Al57  1  0.50004956  0.49995146  0.00112865  1
  Al0+  Al58  1  0.49722976  0.49953146  0.34094172  1
  Al0+  Al59  1  0.49886122  0.49678411  0.67382428  1
  Al0+  Al60  1  0.24999696  0.24969850  -0.00991202  1
  Al0+  Al61  1  0.24949778  0.24776925  0.33628587  1
  Al0+  Al62  1  0.25101855  0.25041232  0.66600811  1
  Al0+  Al63  1  0.24882363  0.74944862  0.01235249  1
  Al0+  Al64  1  0.24587012  0.75015265  0.33517843  1
  Al0+  Al65  1  0.24962992  0.74850042  0.67165639  1
  Al0+  Al66  1  0.75099752  0.25036294  0.00369342  1
  Al0+  Al67  1  0.75265771  0.25055516  0.33869304  1
  Al0+  Al68  1  0.75086216  0.25041266  0.67497490  1
  Al0+  Al69  1  0.74896096  0.75127266  -0.01071831  1
  Al0+  Al70  1  0.74842941  0.75156258  0.32467397  1
  Al0+  Al71  1  0.75102682  0.74796945  0.65806569  1
  Al0+  Al72  1  0.68001659  0.43061777  0.34726359  1
  Al0+  Al73  1  0.07011432  0.18015860  0.98499328  1
  Al0+  Al74  1  0.68058726  0.43098260  0.68315395  1
  Al0+  Al75  1  0.31998427  0.56907607  0.01615047  1
  Al0+  Al76  1  0.81969369  0.06820702  0.68144938  1
  Al0+  Al77  1  0.43011922  0.82012038  0.65628578  1
  Al0+  Al78  1  0.81841806  0.06758086  0.01475603  1
  Al0+  Al79  1  0.31948989  0.57148560  0.35131141  1
  Al0+  Al80  1  0.56813501  0.67678104  0.31901626  1
  Al0+  Al81  1  0.93026585  0.82217849  0.65060484  1
  Al0+  Al82  1  0.93109308  0.82086423  0.98524684  1
  Al0+  Al83  1  0.93059405  0.82292383  0.31813109  1
  Al0+  Al84  1  0.68205498  0.43224989  0.01552636  1
  Al0+  Al85  1  0.82016025  0.06869182  0.34774063  1
  Al0+  Al86  1  0.43083717  0.32077289  0.98473040  1
  Al0+  Al87  1  0.17656378  0.42567780  0.34735134  1
  Al0+  Al88  1  0.57476897  0.17758490  0.98294780  1
  Al0+  Al89  1  0.42431441  0.82231709  0.31753920  1
  Al0+  Al90  1  0.57442320  0.18086683  0.32084555  1
  Al0+  Al91  1  0.31826696  0.56895101  0.68278870  1
  Al0+  Al92  1  0.18136551  0.93001319  0.68141974  1
  Al0+  Al93  1  0.32665810  0.07332304  0.68118181  1
  Al0+  Al94  1  0.56854006  0.67992554  0.98491734  1
  Al0+  Al95  1  0.18100068  0.93210731  0.01632180  1
  Si0+  Si96  1  0.06995641  0.67561387  0.31626767  1
  Si0+  Si97  1  0.17836796  0.93105537  0.34808892  1
  Si0+  Si98  1  0.07130731  0.18076840  0.31935962  1
  Si0+  Si99  1  0.82367552  0.57602992  0.01476693  1
  Si0+  Si100  1  0.82449449  0.57372576  0.68253257  1
  Si0+  Si101  1  0.82204825  0.57610210  0.34902730  1
  Si0+  Si102  1  0.32325066  0.06926803  0.34444571  1
  Si0+  Si103  1  0.07133955  0.18020090  0.64899806  1
  Si0+  Si104  1  0.17576102  0.42565016  0.01338256  1
  Si0+  Si105  1  0.42925056  0.32111237  0.64978054  1
  Si0+  Si106  1  0.92745966  0.32437453  0.98361585  1
  Si0+  Si107  1  0.92797620  0.32018519  0.65130053  1
  Si0+  Si108  1  0.42678331  0.31954381  0.31991306  1
  Si0+  Si109  1  0.17479316  0.42666476  0.68417758  1
  Si0+  Si110  1  0.32379081  0.07521914  0.01673661  1
  Si0+  Si111  1  0.42393398  0.82163490  0.98423629  1
  Si0+  Si112  1  0.67629229  0.92642925  0.34780748  1
  Si0+  Si113  1  0.57365725  0.18079549  0.65202647  1
  Si0+  Si114  1  0.07368465  0.67773790  0.98498275  1
  Si0+  Si115  1  0.67805963  0.92429470  0.68072389  1
  Si0+  Si116  1  0.07209256  0.67584856  0.65003219  1
  Si0+  Si117  1  0.92877608  0.32189749  0.31999936  1
  Si0+  Si118  1  0.67487376  0.92434345  0.01561771  1
  Si0+  Si119  1  0.57074963  0.67442073  0.64988065  1
  O2-  O120  1  0.25874985  0.00397885  0.06315216  1
  O2-  O121  1  0.25792281  -0.00660892  0.38820775  1
  O2-  O122  1  0.25692185  -0.00102427  0.73061609  1
  O2-  O123  1  0.24375939  0.49344610  0.05879630  1
  O2-  O124  1  0.24585795  0.49893439  0.39896697  1
  O2-  O125  1  0.24209468  0.49525410  0.72920221  1
  O2-  O126  1  0.74017871  -0.00376925  0.06083316  1
  O2-  O127  1  0.74508854  -0.00563537  0.39411760  1
  O2-  O128  1  0.74908957  -0.01055727  0.72679949  1
  O2-  O129  1  0.75736572  0.50683927  0.06154368  1
  O2-  O130  1  0.75054188  0.51009247  0.39358187  1
  O2-  O131  1  0.75278105  0.50923258  0.72772529  1
  O2-  O132  1  0.00510857  0.25660801  0.27829331  1
  O2-  O133  1  0.00128445  0.25239225  0.60678760  1
  O2-  O134  1  -0.00180883  0.25816007  0.93877144  1
  O2-  O135  1  0.00180221  0.74466416  0.27173267  1
  O2-  O136  1  0.00320742  0.74450934  0.60531341  1
  O2-  O137  1  0.00410589  0.74413968  0.93888683  1
  O2-  O138  1  0.49874006  0.25494223  0.27547729  1
  O2-  O139  1  0.49750043  0.24647498  0.60876423  1
  O2-  O140  1  0.49959191  0.24613967  0.93284402  1
  O2-  O141  1  0.49448034  0.74756352  0.26922807  1
  O2-  O142  1  0.50608772  0.74747039  0.60737513  1
  O2-  O143  1  0.49602693  0.75728690  0.93921893  1
  O2-  O144  1  0.06855438  0.18103315  0.09880873  1
  O2-  O145  1  0.07062579  0.17912184  0.42458517  1
  O2-  O146  1  0.07046177  0.18079380  0.75382967  1
  O2-  O147  1  0.07115768  0.67765245  0.09046773  1
  O2-  O148  1  0.06879989  0.67638090  0.42206238  1
  O2-  O149  1  0.06953226  0.67344205  0.75545149  1
  O2-  O150  1  0.57581233  0.18256328  0.09679317  1
  O2-  O151  1  0.57329355  0.18147187  0.43472861  1
  O2-  O152  1  0.57598224  0.18358414  0.75642276  1
  O2-  O153  1  0.56705586  0.67827243  0.09765259  1
  O2-  O154  1  0.56706788  0.67831694  0.43299215  1
  O2-  O155  1  0.56981779  0.67449426  0.75553880  1
  O2-  O156  1  0.17815232  0.42405838  0.23373310  1
  O2-  O157  1  0.17496614  0.42666403  0.57858454  1
  O2-  O158  1  0.17455572  0.42764906  0.90784694  1
  O2-  O159  1  0.17462524  0.93553339  0.24322287  1
  O2-  O160  1  0.18077091  0.93326062  0.56716903  1
  O2-  O161  1  0.18096126  0.93253542  0.90354533  1
  O2-  O162  1  0.68241298  0.42859145  0.23467768  1
  O2-  O163  1  0.68153371  0.42936826  0.56974439  1
  O2-  O164  1  0.68337789  0.43294726  0.90237260  1
  O2-  O165  1  0.67790283  0.92737052  0.24250712  1
  O2-  O166  1  0.67711758  0.92776849  0.57508044  1
  O2-  O167  1  0.67784943  0.92322198  0.90976634  1
  O2-  O168  1  0.43157570  0.32026341  0.09882873  1
  O2-  O169  1  0.42570303  0.31555450  0.42591680  1
  O2-  O170  1  0.43000895  0.32252646  0.75438203  1
  O2-  O171  1  0.42411655  0.81942046  0.08969718  1
  O2-  O172  1  0.42575662  0.82416129  0.43165549  1
  O2-  O173  1  0.43067213  0.81704729  0.76921303  1
  O2-  O174  1  0.92850177  0.32424220  0.08949767  1
  O2-  O175  1  0.92732488  0.31894603  0.42539932  1
  O2-  O176  1  0.92894465  0.31978148  0.75609701  1
  O2-  O177  1  0.93246935  0.82134788  0.09846807  1
  O2-  O178  1  0.93445262  0.82478854  0.43141472  1
  O2-  O179  1  0.93209840  0.82282795  0.76345668  1
  O2-  O180  1  0.31866122  0.07303316  0.23986904  1
  O2-  O181  1  0.32429304  0.07379383  0.56656245  1
  O2-  O182  1  0.32085366  0.07518916  0.91136923  1
  O2-  O183  1  0.31997653  0.56778588  0.23798634  1
  O2-  O184  1  0.31825924  0.56838964  0.57003028  1
  O2-  O185  1  0.31842268  0.56994855  0.90289438  1
  O2-  O186  1  0.82290695  0.06924157  0.23507886  1
  O2-  O187  1  0.81881221  0.07032010  0.56811614  1
  O2-  O188  1  0.82040770  0.06554594  0.90157865  1
  O2-  O189  1  0.82618636  0.57280736  0.24372910  1
  O2-  O190  1  0.82712534  0.57060406  0.57695186  1
  O2-  O191  1  0.82398867  0.57358217  0.90911025  1
  O2-  O192  1  0.03806020  0.09167479  0.27054218  1
  O2-  O193  1  0.04171797  0.08955551  0.60090877  1
  O2-  O194  1  0.03471924  0.08603266  0.93029437  1
  O2-  O195  1  0.04546125  0.58133305  0.27080387  1
  O2-  O196  1  0.04795008  0.58170656  0.60287169  1
  O2-  O197  1  0.05275308  0.58326745  0.93748046  1
  O2-  O198  1  0.54768181  0.08523153  0.26407191  1
  O2-  O199  1  0.55294826  0.08704800  0.60487163  1
  O2-  O200  1  0.55277853  0.07661289  0.93208172  1
  O2-  O201  1  0.53823393  0.57697251  0.26878175  1
  O2-  O202  1  0.53902117  0.58141431  0.60618177  1
  O2-  O203  1  0.53421443  0.58477128  0.93119105  1
  O2-  O204  1  0.16424259  0.20354013  0.27139755  1
  O2-  O205  1  0.16393896  0.20694501  0.60142139  1
  O2-  O206  1  0.16536122  0.20732148  0.92659084  1
  O2-  O207  1  0.16352385  0.70106392  0.27119071  1
  O2-  O208  1  0.16558340  0.70279462  0.60517563  1
  O2-  O209  1  0.16745383  0.70654603  0.94165769  1
  O2-  O210  1  0.67085073  0.21453953  0.26889426  1
  O2-  O211  1  0.66418230  0.21535287  0.60509951  1
  O2-  O212  1  0.67252887  0.21096791  0.93135277  1
  O2-  O213  1  0.66659544  0.70226564  0.26448845  1
  O2-  O214  1  0.66643187  0.69183610  0.60438690  1
  O2-  O215  1  0.66463347  0.70692571  0.92712995  1
  O2-  O216  1  0.08111068  0.44919881  0.05945658  1
  O2-  O217  1  0.07611328  0.44999692  0.39952556  1
  O2-  O218  1  0.07959661  0.44824824  0.72894719  1
  O2-  O219  1  0.08629571  0.96886122  0.07024313  1
  O2-  O220  1  0.09111764  0.96885314  0.39792456  1
  O2-  O221  1  0.08504411  0.96480842  0.73397262  1
  O2-  O222  1  0.58568312  0.46329651  0.06811234  1
  O2-  O223  1  0.58275590  0.45563060  0.40319204  1
  O2-  O224  1  0.58418388  0.45880317  0.73792602  1
  O2-  O225  1  0.57876129  0.94411725  0.05910666  1
  O2-  O226  1  0.58176342  0.95323328  0.39202525  1
  O2-  O227  1  0.58630265  0.95126960  0.72906030  1
  O2-  O228  1  0.20023488  0.33057540  0.05652858  1
  O2-  O229  1  0.20484094  0.32727143  0.40237063  1
  O2-  O230  1  0.20119501  0.33265922  0.72817868  1
  O2-  O231  1  0.20654723  0.83568005  0.07347540  1
  O2-  O232  1  0.19388390  0.83615857  0.39347443  1
  O2-  O233  1  0.20364404  0.83082762  0.73481840  1
  O2-  O234  1  0.71423339  0.33617422  0.06943107  1
  O2-  O235  1  0.71755863  0.33736375  0.40408365  1
  O2-  O236  1  0.71621425  0.33723413  0.73862654  1
  O2-  O237  1  0.70444549  0.83119309  0.06031313  1
  O2-  O238  1  0.70057032  0.83219546  0.39317228  1
  O2-  O239  1  0.70010283  0.82786235  0.72272770  1
  O2-  O240  1  0.44873459  0.41513793  0.27862683  1
  O2-  O241  1  0.46205117  0.41164460  0.60262685  1
  O2-  O242  1  0.46412118  0.41713870  0.93105930  1
  O2-  O243  1  0.45310364  0.91870520  0.26042917  1
  O2-  O244  1  0.45805216  0.91835833  0.60223096  1
  O2-  O245  1  0.44193336  0.91758165  0.94019277  1
  O2-  O246  1  0.94826148  0.41576567  0.27306982  1
  O2-  O247  1  0.95187137  0.41300882  0.60292345  1
  O2-  O248  1  0.94834811  0.41938746  0.93718402  1
  O2-  O249  1  0.96724055  0.91844941  0.26522634  1
  O2-  O250  1  0.96513743  0.91835635  0.59704263  1
  O2-  O251  1  0.96695463  0.91605635  0.93261799  1
  O2-  O252  1  0.33459059  0.29053885  0.27270660  1
  O2-  O253  1  0.33559634  0.29851476  0.60299917  1
  O2-  O254  1  0.33196649  0.29768926  0.92927184  1
  O2-  O255  1  0.32309614  0.79809888  0.26878425  1
  O2-  O256  1  0.33248209  0.78872666  0.60388951  1
  O2-  O257  1  0.33066252  0.79018982  0.94113902  1
  O2-  O258  1  0.84016632  0.28782418  0.27121339  1
  O2-  O259  1  0.83683536  0.28820172  0.60479425  1
  O2-  O260  1  0.83577564  0.29452724  0.93731972  1
  O2-  O261  1  0.83307003  0.79754042  0.26393573  1
  O2-  O262  1  0.83318505  0.79408096  0.59463113  1
  O2-  O263  1  0.83514751  0.79365673  0.92825177  1
  O2-  O264  1  0.41994469  0.05436393  0.05969976  1
  O2-  O265  1  0.41797991  0.04715022  0.38856303  1
  O2-  O266  1  0.42686340  0.05189616  0.73227776  1
  O2-  O267  1  0.41497158  0.53453678  0.06964302  1
  O2-  O268  1  0.41559085  0.54180690  0.40789660  1
  O2-  O269  1  0.41344391  0.53530094  0.73712223  1
  O2-  O270  1  0.91468111  0.03538151  0.06837323  1
  O2-  O271  1  0.91708146  0.03790564  0.40234274  1
  O2-  O272  1  0.91785888  0.04089245  0.73290593  1
  O2-  O273  1  0.91868146  0.55402608  0.06057666  1
  O2-  O274  1  0.91374564  0.54823016  0.39831407  1
  O2-  O275  1  0.91686354  0.54537976  0.72991597  1
  O2-  O276  1  0.29310755  0.16824517  0.06124451  1
  O2-  O277  1  0.29134691  0.15811566  0.39588319  1
  O2-  O278  1  0.29406332  0.17126710  0.73257167  1
  O2-  O279  1  0.28928595  0.66340162  0.07384404  1
  O2-  O280  1  0.28796823  0.67014046  0.40358746  1
  O2-  O281  1  0.28816392  0.66443360  0.73856155  1
  O2-  O282  1  0.79323882  0.16615016  0.06789908  1
  O2-  O283  1  0.79065380  0.16484886  0.40365801  1
  O2-  O284  1  0.78806951  0.16337900  0.73677777  1
  O2-  O285  1  0.79661991  0.67037939  0.05762395  1
  O2-  O286  1  0.79915645  0.67163888  0.39219958  1
  O2-  O287  1  0.80272382  0.66975767  0.72488780  1
