# generated using pymatgen
data_Ca2Al2SiO7
_symmetry_space_group_name_H-M   'P 1'
_cell_length_a   15.45923870
_cell_length_b   15.45995796
_cell_length_c   15.28576339
_cell_angle_alpha   90.00462472
_cell_angle_beta   90.00668637
_cell_angle_gamma   90.00119775
_symmetry_Int_Tables_number   1
_chemical_formula_structural   Ca2Al2SiO7
_chemical_formula_sum   'Ca48 Al48 Si24 O168'
_cell_volume   3653.28488550
_cell_formula_units_Z   24
loop_
 _symmetry_equiv_pos_site_id
 _symmetry_equiv_pos_as_xyz
  1  'x, y, z'
loop_
 _atom_type_symbol
 _atom_type_oxidation_number
  Ca2+  2.0
  Al0+  0.0
  Si0+  0.0
  O2-  -2.0
loop_
 _atom_site_type_symbol
 _atom_site_label
 _atom_site_symmetry_multiplicity
 _atom_site_fract_x
 _atom_site_fract_y
 _atom_site_fract_z
 _atom_site_occupancy
  Ca2+  Ca0  1  0.16824708  0.07730851  0.17300352  1
  Ca2+  Ca1  1  0.16935514  0.08109468  0.49979423  1
  Ca2+  Ca2  1  0.16274690  0.08484374  0.83852494  1
  Ca2+  Ca3  1  0.17180538  0.57617790  0.17292492  1
  Ca2+  Ca4  1  0.17648493  0.57482370  0.50868926  1
  Ca2+  Ca5  1  0.16252226  0.57638562  0.83740400  1
  Ca2+  Ca6  1  0.66909328  0.07730184  0.16360682  1
  Ca2+  Ca7  1  0.66889158  0.08321621  0.50544081  1
  Ca2+  Ca8  1  0.67580251  0.07555056  0.84629959  1
  Ca2+  Ca9  1  0.67008503  0.58493192  0.16632792  1
  Ca2+  Ca10  1  0.66370832  0.58201878  0.50688968  1
  Ca2+  Ca11  1  0.66683233  0.57865268  0.83876161  1
  Ca2+  Ca12  1  0.08388472  0.33387296  0.15979712  1
  Ca2+  Ca13  1  0.08648692  0.33505713  0.49530390  1
  Ca2+  Ca14  1  0.09159151  0.32566223  0.82984830  1
  Ca2+  Ca15  1  0.08384462  0.82723235  0.15580415  1
  Ca2+  Ca16  1  0.08917791  0.82747321  0.49933287  1
  Ca2+  Ca17  1  0.07828889  0.81762740  0.83227535  1
  Ca2+  Ca18  1  0.56868615  0.33724873  0.16000880  1
  Ca2+  Ca19  1  0.57604241  0.33866238  0.49262708  1
  Ca2+  Ca20  1  0.58002383  0.34485149  0.83293519  1
  Ca2+  Ca21  1  0.57719038  0.82992393  0.15886786  1
  Ca2+  Ca22  1  0.57559870  0.81966856  0.49699671  1
  Ca2+  Ca23  1  0.57645115  0.83161112  0.82813292  1
  Ca2+  Ca24  1  0.32405338  0.41421902  0.17344024  1
  Ca2+  Ca25  1  0.32865965  0.42356800  0.50261057  1
  Ca2+  Ca26  1  0.32622349  0.42430415  0.83754283  1
  Ca2+  Ca27  1  0.32905042  0.92124110  0.17409222  1
  Ca2+  Ca28  1  0.33416566  0.92056246  0.50041561  1
  Ca2+  Ca29  1  0.33839906  0.91503083  0.83802638  1
  Ca2+  Ca30  1  0.83298266  0.42041494  0.16728344  1
  Ca2+  Ca31  1  0.82706234  0.41345240  0.50501729  1
  Ca2+  Ca32  1  0.81948565  0.42143660  0.84313324  1
  Ca2+  Ca33  1  0.83589542  0.91801909  0.16330270  1
  Ca2+  Ca34  1  0.83205560  0.91847581  0.50321275  1
  Ca2+  Ca35  1  0.82979726  0.91843292  0.84722246  1
  Ca2+  Ca36  1  0.40656289  0.17744261  0.16348344  1
  Ca2+  Ca37  1  0.41572690  0.17354336  0.49186347  1
  Ca2+  Ca38  1  0.41713451  0.17642723  0.83347268  1
  Ca2+  Ca39  1  0.41942002  0.66605830  0.16279386  1
  Ca2+  Ca40  1  0.42390183  0.65405437  0.49805827  1
  Ca2+  Ca41  1  0.41742595  0.67794300  0.82361131  1
  Ca2+  Ca42  1  0.92270969  0.17170874  0.15948984  1
  Ca2+  Ca43  1  0.92401245  0.17616326  0.49565376  1
  Ca2+  Ca44  1  0.92804500  0.16147512  0.83145560  1
  Ca2+  Ca45  1  0.92408286  0.67070612  0.15416979  1
  Ca2+  Ca46  1  0.92745152  0.66062134  0.49847583  1
  Ca2+  Ca47  1  0.92441056  0.65759161  0.83651023  1
  Al0+  Al48  1  0.00065818  -0.00037009  -0.00297373  1
  Al0+  Al49  1  -0.00212405  0.00016566  0.33946026  1
  Al0+  Al50  1  0.00215985  0.00225628  0.66044768  1
  Al0+  Al51  1  -0.00120239  0.49725819  0.00347387  1
  Al0+  Al52  1  -0.00158797  0.50035827  0.33234267  1
  Al0+  Al53  1  -0.00138596  0.49887112  0.66575694  1
  Al0+  Al54  1  0.50042269  0.00229878  0.00118588  1
  Al0+  Al55  1  0.50227712  -0.00195279  0.33815733  1
  Al0+  Al56  1  0.50011530  0.00108889  0.66291355  1
  Al0+  Al57  1  0.49832941  0.50118713  -0.00150958  1
  Al0+  Al58  1  0.50135086  0.49833764  0.32508929  1
  Al0+  Al59  1  0.49837714  0.50143944  0.67136657  1
  Al0+  Al60  1  0.25060079  0.25151208  -0.00571033  1
  Al0+  Al61  1  0.24963608  0.24726543  0.33702014  1
  Al0+  Al62  1  0.25103513  0.24813127  0.66463231  1
  Al0+  Al63  1  0.25088385  0.74951727  -0.00833085  1
  Al0+  Al64  1  0.25188057  0.74968384  0.34079199  1
  Al0+  Al65  1  0.24796273  0.75410581  0.66200257  1
  Al0+  Al66  1  0.74879258  0.24895629  0.00925520  1
  Al0+  Al67  1  0.75158084  0.24948491  0.32869739  1
  Al0+  Al68  1  0.75095256  0.24950079  0.67273273  1
  Al0+  Al69  1  0.74901333  0.75030874  0.00487148  1
  Al0+  Al70  1  0.75053101  0.74915493  0.33091305  1
  Al0+  Al71  1  0.74870779  0.75156952  0.66371403  1
  Al0+  Al72  1  0.82507996  0.07012868  0.01645238  1
  Al0+  Al73  1  0.07251355  0.17968095  0.64925681  1
  Al0+  Al74  1  0.07012757  0.18053436  0.98803571  1
  Al0+  Al75  1  0.67509016  0.42897445  0.01886337  1
  Al0+  Al76  1  0.32237153  0.07054935  0.34827779  1
  Al0+  Al77  1  0.67689606  0.92836336  0.01554553  1
  Al0+  Al78  1  0.06916593  0.67681889  0.65118310  1
  Al0+  Al79  1  0.42904001  0.32238018  0.98426535  1
  Al0+  Al80  1  0.07140742  0.67522269  0.98644576  1
  Al0+  Al81  1  0.42964808  0.82295176  0.98814168  1
  Al0+  Al82  1  0.17653131  0.42910212  0.34785212  1
  Al0+  Al83  1  0.17842104  0.42774747  0.68276936  1
  Al0+  Al84  1  0.57131963  0.67841039  0.31677292  1
  Al0+  Al85  1  0.42883545  0.31786057  0.32020711  1
  Al0+  Al86  1  0.56974700  0.67852828  0.65226504  1
  Al0+  Al87  1  0.42739262  0.82434345  0.64841242  1
  Al0+  Al88  1  0.92806600  0.82079686  0.98677965  1
  Al0+  Al89  1  0.18069522  0.42799365  0.01335675  1
  Al0+  Al90  1  0.67864508  0.42914367  0.67868613  1
  Al0+  Al91  1  0.32425698  0.56978397  0.34703873  1
  Al0+  Al92  1  0.32026830  0.57396054  0.68332083  1
  Al0+  Al93  1  0.92889304  0.32231698  0.31834767  1
  Al0+  Al94  1  0.17659583  0.92773032  0.34858003  1
  Al0+  Al95  1  0.82088644  0.57042436  0.01593138  1
  Si0+  Si96  1  0.92604205  0.32005954  0.65230802  1
  Si0+  Si97  1  0.82192534  0.57419019  0.68158899  1
  Si0+  Si98  1  0.82016757  0.57250410  0.34955341  1
  Si0+  Si99  1  0.18096606  0.92819144  0.01031724  1
  Si0+  Si100  1  0.32261740  0.07002668  0.68363036  1
  Si0+  Si101  1  0.92821817  0.82334897  0.64921602  1
  Si0+  Si102  1  0.68050120  0.92689504  0.35086400  1
  Si0+  Si103  1  0.67932917  0.93031324  0.68025870  1
  Si0+  Si104  1  0.32058725  0.07205774  0.01214107  1
  Si0+  Si105  1  0.57411741  0.17482102  0.31649584  1
  Si0+  Si106  1  0.57187349  0.67881938  0.98332582  1
  Si0+  Si107  1  0.07018097  0.17736651  0.31721163  1
  Si0+  Si108  1  0.32003487  0.57480784  0.01531430  1
  Si0+  Si109  1  0.07228423  0.68051344  0.31984597  1
  Si0+  Si110  1  0.57225727  0.17908162  0.98405420  1
  Si0+  Si111  1  0.57304649  0.17956626  0.65383323  1
  Si0+  Si112  1  0.17730528  0.93127155  0.68413506  1
  Si0+  Si113  1  0.43087585  0.32044388  0.65207679  1
  Si0+  Si114  1  0.92921736  0.82163732  0.31944579  1
  Si0+  Si115  1  0.92487658  0.32146277  0.98314702  1
  Si0+  Si116  1  0.81945310  0.07201735  0.35105352  1
  Si0+  Si117  1  0.42852844  0.82287450  0.31663147  1
  Si0+  Si118  1  0.68094488  0.42884429  0.34644855  1
  Si0+  Si119  1  0.82199063  0.06998827  0.68100246  1
  O2-  O120  1  0.25200947  -0.00146380  0.05320824  1
  O2-  O121  1  0.25027905  -0.00133102  0.39869482  1
  O2-  O122  1  0.25199438  -0.00106581  0.72629740  1
  O2-  O123  1  0.25260689  0.50514090  0.05975044  1
  O2-  O124  1  0.24975750  0.50011329  0.39694410  1
  O2-  O125  1  0.24580899  0.50402219  0.73302911  1
  O2-  O126  1  0.75263431  -0.00268747  0.06560464  1
  O2-  O127  1  0.74813491  0.00136583  0.39410180  1
  O2-  O128  1  0.75291710  -0.00221848  0.72322984  1
  O2-  O129  1  0.74894786  0.49930320  0.06844502  1
  O2-  O130  1  0.75023864  0.50011311  0.39138789  1
  O2-  O131  1  0.75156978  0.50619120  0.72372334  1
  O2-  O132  1  0.00710202  0.25070121  0.27285766  1
  O2-  O133  1  0.00013283  0.25809161  0.60597729  1
  O2-  O134  1  -0.00630831  0.25280405  0.93910278  1
  O2-  O135  1  0.00512624  0.75579884  0.27846672  1
  O2-  O136  1  -0.00684201  0.75145599  0.60433366  1
  O2-  O137  1  -0.00432843  0.74482050  0.93731445  1
  O2-  O138  1  0.50097288  0.23930277  0.27392239  1
  O2-  O139  1  0.50585802  0.25285209  0.61022463  1
  O2-  O140  1  0.50917606  0.25213691  0.93818976  1
  O2-  O141  1  0.49425958  0.75184548  0.27204492  1
  O2-  O142  1  0.49428131  0.74633343  0.60032060  1
  O2-  O143  1  0.50490943  0.74974863  0.94045122  1
  O2-  O144  1  0.07161283  0.18011174  0.10103793  1
  O2-  O145  1  0.06610374  0.17615865  0.42299760  1
  O2-  O146  1  0.06972745  0.17602407  0.76221562  1
  O2-  O147  1  0.07493004  0.68020962  0.10047875  1
  O2-  O148  1  0.06791066  0.67961442  0.42505010  1
  O2-  O149  1  0.06634994  0.67691157  0.76383123  1
  O2-  O150  1  0.56772095  0.17573967  0.08947649  1
  O2-  O151  1  0.57761501  0.17807887  0.42287079  1
  O2-  O152  1  0.57170680  0.17635041  0.75837356  1
  O2-  O153  1  0.56913084  0.67905452  0.08917880  1
  O2-  O154  1  0.57460388  0.67911227  0.42977410  1
  O2-  O155  1  0.57375308  0.68296627  0.76537487  1
  O2-  O156  1  0.17677744  0.43068771  0.23414233  1
  O2-  O157  1  0.18112648  0.42692689  0.56920936  1
  O2-  O158  1  0.18333660  0.42585956  0.90051272  1
  O2-  O159  1  0.17515498  0.92904910  0.23424390  1
  O2-  O160  1  0.17474307  0.93461811  0.57912265  1
  O2-  O161  1  0.18175365  0.92960141  0.90518169  1
  O2-  O162  1  0.68271359  0.42933070  0.24217619  1
  O2-  O163  1  0.68089185  0.42564329  0.56496121  1
  O2-  O164  1  0.67653035  0.43162804  0.90480572  1
  O2-  O165  1  0.68140379  0.92747924  0.24640651  1
  O2-  O166  1  0.68138979  0.93315321  0.57474332  1
  O2-  O167  1  0.67547443  0.93262232  0.90135642  1
  O2-  O168  1  0.42604374  0.31787007  0.09725111  1
  O2-  O169  1  0.43383390  0.31846045  0.43384461  1
  O2-  O170  1  0.43094135  0.31754570  0.75709366  1
  O2-  O171  1  0.42783945  0.82262433  0.10125056  1
  O2-  O172  1  0.43312244  0.82629192  0.42174695  1
  O2-  O173  1  0.43416659  0.82871507  0.76205665  1
  O2-  O174  1  0.92761178  0.32046485  0.08897431  1
  O2-  O175  1  0.92335368  0.31824500  0.43166029  1
  O2-  O176  1  0.92087797  0.31453612  0.75714363  1
  O2-  O177  1  0.93502289  0.82248954  0.10088191  1
  O2-  O178  1  0.92589397  0.81960721  0.42481557  1
  O2-  O179  1  0.92927476  0.82693645  0.75410852  1
  O2-  O180  1  0.32052977  0.06954701  0.23419522  1
  O2-  O181  1  0.32365252  0.07023342  0.57873671  1
  O2-  O182  1  0.32084423  0.07210175  0.90670352  1
  O2-  O183  1  0.32180903  0.57079792  0.23323228  1
  O2-  O184  1  0.32300226  0.56631547  0.56985192  1
  O2-  O185  1  0.31872092  0.57554334  0.90994418  1
  O2-  O186  1  0.82130897  0.07045963  0.24680810  1
  O2-  O187  1  0.81843495  0.07085101  0.57539176  1
  O2-  O188  1  0.82353753  0.06844435  0.90207621  1
  O2-  O189  1  0.82000433  0.57459813  0.24519926  1
  O2-  O190  1  0.82211338  0.57317864  0.57539524  1
  O2-  O191  1  0.81955984  0.56796178  0.90196102  1
  O2-  O192  1  0.03772613  0.08474512  0.27257756  1
  O2-  O193  1  0.03715409  0.08566339  0.59239273  1
  O2-  O194  1  0.04108997  0.08415233  0.93186350  1
  O2-  O195  1  0.03994643  0.59047922  0.27238918  1
  O2-  O196  1  0.03778774  0.58052679  0.59555917  1
  O2-  O197  1  0.04195902  0.57666639  0.93422625  1
  O2-  O198  1  0.55371964  0.07854698  0.27434553  1
  O2-  O199  1  0.54344664  0.09003072  0.60251702  1
  O2-  O200  1  0.54160316  0.08815283  0.93495253  1
  O2-  O201  1  0.54397290  0.58235224  0.26094003  1
  O2-  O202  1  0.54333725  0.57840678  0.60012065  1
  O2-  O203  1  0.54556493  0.58599632  0.93693121  1
  O2-  O204  1  0.16658506  0.19449856  0.27514277  1
  O2-  O205  1  0.17068402  0.20571354  0.59619762  1
  O2-  O206  1  0.16504874  0.21142760  0.93046563  1
  O2-  O207  1  0.16611531  0.70468012  0.27528130  1
  O2-  O208  1  0.16409807  0.71109410  0.59681987  1
  O2-  O209  1  0.16617974  0.70835648  0.92949004  1
  O2-  O210  1  0.66579605  0.20287489  0.26883277  1
  O2-  O211  1  0.66656769  0.20372508  0.60719335  1
  O2-  O212  1  0.66888885  0.19813986  0.94172008  1
  O2-  O213  1  0.66748125  0.71304325  0.26372441  1
  O2-  O214  1  0.66785756  0.70922843  0.59728760  1
  O2-  O215  1  0.66659566  0.70164930  0.93966642  1
  O2-  O216  1  0.08236957  0.45214852  0.06573206  1
  O2-  O217  1  0.07761017  0.45785140  0.40044797  1
  O2-  O218  1  0.07653514  0.45023006  0.73155557  1
  O2-  O219  1  0.09003543  0.95630864  0.05821665  1
  O2-  O220  1  0.07886228  0.95692751  0.40436395  1
  O2-  O221  1  0.08648752  0.96477253  0.73011498  1
  O2-  O222  1  0.57608508  0.45920217  0.06958373  1
  O2-  O223  1  0.58851589  0.45624631  0.39206678  1
  O2-  O224  1  0.58284124  0.45778484  0.73385103  1
  O2-  O225  1  0.58103842  0.96385670  0.07115699  1
  O2-  O226  1  0.58882091  0.95144418  0.39993241  1
  O2-  O227  1  0.58844872  0.96226662  0.72633478  1
  O2-  O228  1  0.21571260  0.33209480  0.06683587  1
  O2-  O229  1  0.20193936  0.32917068  0.39818553  1
  O2-  O230  1  0.21107799  0.32865805  0.73267131  1
  O2-  O231  1  0.20899126  0.83640239  0.05755900  1
  O2-  O232  1  0.20372205  0.83038007  0.40373917  1
  O2-  O233  1  0.19969467  0.83781986  0.72963239  1
  O2-  O234  1  0.69803369  0.32906686  0.07038976  1
  O2-  O235  1  0.70869136  0.33608776  0.39310527  1
  O2-  O236  1  0.70955133  0.33332450  0.73553321  1
  O2-  O237  1  0.69971798  0.82996698  0.06960313  1
  O2-  O238  1  0.71451637  0.83699666  0.39864906  1
  O2-  O239  1  0.70366216  0.83757828  0.72662972  1
  O2-  O240  1  0.46247625  0.41124161  0.26287878  1
  O2-  O241  1  0.45699349  0.41289732  0.60638576  1
  O2-  O242  1  0.45663213  0.41980118  0.93031183  1
  O2-  O243  1  0.45784056  0.91607851  0.27079638  1
  O2-  O244  1  0.46322467  0.92069437  0.59389811  1
  O2-  O245  1  0.45868298  0.92067034  0.93449070  1
  O2-  O246  1  0.95478504  0.42033915  0.26476460  1
  O2-  O247  1  0.94331714  0.41565613  0.60748910  1
  O2-  O248  1  0.94865848  0.41516482  0.93796836  1
  O2-  O249  1  0.95105513  0.91649298  0.27570855  1
  O2-  O250  1  0.95750116  0.91505238  0.59996613  1
  O2-  O251  1  0.95916509  0.91698900  0.93131164  1
  O2-  O252  1  0.33125101  0.28697077  0.26738425  1
  O2-  O253  1  0.34168205  0.28721516  0.60380049  1
  O2-  O254  1  0.33696226  0.28454792  0.92683636  1
  O2-  O255  1  0.33214216  0.80167830  0.27471801  1
  O2-  O256  1  0.32543909  0.80843264  0.59979676  1
  O2-  O257  1  0.33519546  0.79302702  0.92962640  1
  O2-  O258  1  0.83444493  0.28729310  0.26254605  1
  O2-  O259  1  0.83492474  0.28677622  0.60324589  1
  O2-  O260  1  0.82954028  0.29616075  0.94065093  1
  O2-  O261  1  0.83958230  0.79029381  0.27063250  1
  O2-  O262  1  0.83307516  0.80242316  0.60350859  1
  O2-  O263  1  0.82652002  0.79925275  0.93761633  1
  O2-  O264  1  0.41222200  0.04813721  0.06070973  1
  O2-  O265  1  0.42206476  0.04467942  0.40211728  1
  O2-  O266  1  0.41541111  0.04316176  0.73032298  1
  O2-  O267  1  0.41448812  0.55087587  0.05909170  1
  O2-  O268  1  0.42286144  0.53643888  0.39756222  1
  O2-  O269  1  0.41752719  0.54450953  0.73785965  1
  O2-  O270  1  0.92286862  0.03979904  0.07032163  1
  O2-  O271  1  0.90957409  0.04331120  0.40176084  1
  O2-  O272  1  0.91530135  0.04288858  0.72464207  1
  O2-  O273  1  0.91869988  0.54210012  0.07084608  1
  O2-  O274  1  0.91163037  0.54399655  0.39727540  1
  O2-  O275  1  0.91435067  0.54706472  0.72800584  1
  O2-  O276  1  0.28851430  0.16216718  0.05931989  1
  O2-  O277  1  0.29404476  0.16720172  0.40466062  1
  O2-  O278  1  0.29430783  0.16175773  0.73050037  1
  O2-  O279  1  0.29369253  0.66835605  0.06172440  1
  O2-  O280  1  0.30200170  0.66897212  0.40062548  1
  O2-  O281  1  0.29621696  0.67651104  0.72914638  1
  O2-  O282  1  0.79654335  0.16718052  0.07137124  1
  O2-  O283  1  0.78987312  0.16369492  0.39852932  1
  O2-  O284  1  0.79375432  0.15987754  0.73082559  1
  O2-  O285  1  0.79536456  0.66926631  0.06975779  1
  O2-  O286  1  0.79188928  0.66384874  0.39807964  1
  O2-  O287  1  0.79857960  0.66912205  0.72569318  1
