# generated using pymatgen
data_Ca2Al2SiO7
_symmetry_space_group_name_H-M   'P 1'
_cell_length_a   15.45437367
_cell_length_b   15.45446430
_cell_length_c   15.28095154
_cell_angle_alpha   90.00335687
_cell_angle_beta   89.99929480
_cell_angle_gamma   90.01544583
_symmetry_Int_Tables_number   1
_chemical_formula_structural   Ca2Al2SiO7
_chemical_formula_sum   'Ca48 Al48 Si24 O168'
_cell_volume   3649.68805626
_cell_formula_units_Z   24
loop_
 _symmetry_equiv_pos_site_id
 _symmetry_equiv_pos_as_xyz
  1  'x, y, z'
loop_
 _atom_type_symbol
 _atom_type_oxidation_number
  Ca2+  2.0
  Al0+  0.0
  Si0+  0.0
  O2-  -2.0
loop_
 _atom_site_type_symbol
 _atom_site_label
 _atom_site_symmetry_multiplicity
 _atom_site_fract_x
 _atom_site_fract_y
 _atom_site_fract_z
 _atom_site_occupancy
  Ca2+  Ca0  1  0.17112895  0.08697857  0.16881836  1
  Ca2+  Ca1  1  0.17211569  0.08575970  0.50669354  1
  Ca2+  Ca2  1  0.15517859  0.07869720  0.83527934  1
  Ca2+  Ca3  1  0.17089966  0.57384890  0.17245476  1
  Ca2+  Ca4  1  0.15853313  0.57126178  0.50199268  1
  Ca2+  Ca5  1  0.17079248  0.56819462  0.84133142  1
  Ca2+  Ca6  1  0.67595009  0.07885722  0.17542178  1
  Ca2+  Ca7  1  0.67538456  0.07847454  0.50817023  1
  Ca2+  Ca8  1  0.67696035  0.08761071  0.83362422  1
  Ca2+  Ca9  1  0.67013570  0.58613626  0.17058486  1
  Ca2+  Ca10  1  0.67838996  0.57583362  0.50741230  1
  Ca2+  Ca11  1  0.66903108  0.58474216  0.83227318  1
  Ca2+  Ca12  1  0.08079917  0.33206753  0.16390116  1
  Ca2+  Ca13  1  0.08060923  0.33306216  0.49458146  1
  Ca2+  Ca14  1  0.09066687  0.32315535  0.82938919  1
  Ca2+  Ca15  1  0.08572336  0.82389736  0.16433919  1
  Ca2+  Ca16  1  0.07733227  0.82976405  0.49906953  1
  Ca2+  Ca17  1  0.07671719  0.83383010  0.82082721  1
  Ca2+  Ca18  1  0.56793466  0.33691833  0.16083606  1
  Ca2+  Ca19  1  0.58424975  0.32849473  0.49714798  1
  Ca2+  Ca20  1  0.57892463  0.33311629  0.82537238  1
  Ca2+  Ca21  1  0.58104273  0.83040950  0.15962506  1
  Ca2+  Ca22  1  0.59036092  0.83825761  0.49760263  1
  Ca2+  Ca23  1  0.58140909  0.83249662  0.83065616  1
  Ca2+  Ca24  1  0.32425397  0.40920144  0.16939804  1
  Ca2+  Ca25  1  0.32231037  0.41015183  0.50157145  1
  Ca2+  Ca26  1  0.32510570  0.41575424  0.84171041  1
  Ca2+  Ca27  1  0.33719736  0.92261556  0.17227970  1
  Ca2+  Ca28  1  0.32685369  0.92388625  0.50381965  1
  Ca2+  Ca29  1  0.32853217  0.91527928  0.83562161  1
  Ca2+  Ca30  1  0.83409489  0.42025303  0.17600059  1
  Ca2+  Ca31  1  0.83947411  0.42639983  0.50461084  1
  Ca2+  Ca32  1  0.82691899  0.41735582  0.83098399  1
  Ca2+  Ca33  1  0.82834581  0.92868439  0.17345188  1
  Ca2+  Ca34  1  0.82696392  0.92416771  0.50776681  1
  Ca2+  Ca35  1  0.83488300  0.92628082  0.83218066  1
  Ca2+  Ca36  1  0.41071553  0.17550007  0.16509266  1
  Ca2+  Ca37  1  0.42221837  0.16860544  0.49408727  1
  Ca2+  Ca38  1  0.42356028  0.17352005  0.82707223  1
  Ca2+  Ca39  1  0.42281524  0.67232591  0.15218715  1
  Ca2+  Ca40  1  0.41913574  0.66908039  0.49589549  1
  Ca2+  Ca41  1  0.41765166  0.66568576  0.83620106  1
  Ca2+  Ca42  1  0.91640489  0.16877705  0.16217135  1
  Ca2+  Ca43  1  0.91858763  0.16723877  0.49652314  1
  Ca2+  Ca44  1  0.92372091  0.16046217  0.82650151  1
  Ca2+  Ca45  1  0.92203626  0.66148450  0.16884219  1
  Ca2+  Ca46  1  0.91398379  0.66858188  0.49415055  1
  Ca2+  Ca47  1  0.91363667  0.67445562  0.82355313  1
  Al0+  Al48  1  -0.00061243  0.00001044  0.00450075  1
  Al0+  Al49  1  0.00019715  -0.00189723  0.33424254  1
  Al0+  Al50  1  0.00135043  -0.00125800  0.66190041  1
  Al0+  Al51  1  -0.00135552  0.49848983  0.00187996  1
  Al0+  Al52  1  0.00052026  0.49892448  0.33176031  1
  Al0+  Al53  1  0.00239421  0.49959093  0.67855358  1
  Al0+  Al54  1  0.49975859  -0.00084376  -0.00419933  1
  Al0+  Al55  1  0.49908735  0.00008022  0.33976509  1
  Al0+  Al56  1  0.50020803  0.00113659  0.66549973  1
  Al0+  Al57  1  0.50016310  0.50145762  -0.00617614  1
  Al0+  Al58  1  0.49852376  0.50072929  0.32841573  1
  Al0+  Al59  1  0.49944557  0.50216387  0.66639734  1
  Al0+  Al60  1  0.24811562  0.24773476  -0.00538500  1
  Al0+  Al61  1  0.25035397  0.24916591  0.33842140  1
  Al0+  Al62  1  0.25090110  0.25037447  0.66655794  1
  Al0+  Al63  1  0.24977651  0.74826142  -0.00117669  1
  Al0+  Al64  1  0.25070495  0.74864523  0.32846244  1
  Al0+  Al65  1  0.25051390  0.75119731  0.66813656  1
  Al0+  Al66  1  0.75070755  0.25204920  0.00593287  1
  Al0+  Al67  1  0.74997742  0.24956183  0.33109161  1
  Al0+  Al68  1  0.75014558  0.25163427  0.66911595  1
  Al0+  Al69  1  0.75011653  0.75050693  -0.00255570  1
  Al0+  Al70  1  0.75058888  0.75016851  0.33770437  1
  Al0+  Al71  1  0.74901603  0.75174475  0.66847951  1
  Al0+  Al72  1  0.92901708  0.31991968  0.32103821  1
  Al0+  Al73  1  0.82340997  0.07420207  0.34997174  1
  Al0+  Al74  1  0.42716351  0.82304010  0.98333268  1
  Al0+  Al75  1  0.07042863  0.67842052  0.31968687  1
  Al0+  Al76  1  0.06755588  0.17954789  0.98722354  1
  Al0+  Al77  1  0.42839311  0.31943016  0.98502879  1
  Al0+  Al78  1  0.57232707  0.17994496  0.65277475  1
  Al0+  Al79  1  0.82230023  0.07147375  0.68145164  1
  Al0+  Al80  1  0.18023221  0.93037494  0.67872094  1
  Al0+  Al81  1  0.67665288  0.92941827  0.68486325  1
  Al0+  Al82  1  0.82192636  0.57179460  0.68271525  1
  Al0+  Al83  1  0.32160670  0.57061721  0.01595931  1
  Al0+  Al84  1  0.31834911  0.07066994  0.34667971  1
  Al0+  Al85  1  0.07102560  0.17910763  0.65145423  1
  Al0+  Al86  1  0.18052315  0.42796267  0.68174927  1
  Al0+  Al87  1  0.82060672  0.56831013  0.34530427  1
  Al0+  Al88  1  0.18046845  0.43032481  0.34719461  1
  Al0+  Al89  1  0.17935000  0.42573746  0.01801015  1
  Al0+  Al90  1  0.42861499  0.31977566  0.32007422  1
  Al0+  Al91  1  0.92814374  0.81981078  0.65191340  1
  Al0+  Al92  1  0.67742666  0.42897203  0.68065087  1
  Al0+  Al93  1  0.82169121  0.07140069  0.01545506  1
  Al0+  Al94  1  0.57308225  0.67948773  0.98272794  1
  Al0+  Al95  1  0.67942119  0.92978226  0.34780335  1
  Si0+  Si96  1  0.57424756  0.17881585  0.98514395  1
  Si0+  Si97  1  0.92675479  0.82152116  0.31497642  1
  Si0+  Si98  1  0.92538919  0.32413513  0.98206291  1
  Si0+  Si99  1  0.93160015  0.82009615  0.98646586  1
  Si0+  Si100  1  0.07057891  0.67660751  0.98415968  1
  Si0+  Si101  1  0.92922182  0.32380426  0.65229456  1
  Si0+  Si102  1  0.32359364  0.57390676  0.34925767  1
  Si0+  Si103  1  0.42864287  0.32377473  0.64876522  1
  Si0+  Si104  1  0.57112908  0.17641111  0.31613846  1
  Si0+  Si105  1  0.07287005  0.67693304  0.65234946  1
  Si0+  Si106  1  0.17838776  0.92349620  0.34864747  1
  Si0+  Si107  1  0.57030218  0.67957342  0.64867573  1
  Si0+  Si108  1  0.67848881  0.42960115  0.01602196  1
  Si0+  Si109  1  0.57179320  0.67984255  0.31989889  1
  Si0+  Si110  1  0.67803544  0.92829395  0.01575864  1
  Si0+  Si111  1  0.42925852  0.82158277  0.31972713  1
  Si0+  Si112  1  0.17780865  0.92787527  0.01503445  1
  Si0+  Si113  1  0.82008391  0.57317053  0.01607226  1
  Si0+  Si114  1  0.67380411  0.42857892  0.34693542  1
  Si0+  Si115  1  0.42751739  0.82146255  0.64908493  1
  Si0+  Si116  1  0.07253830  0.17652504  0.31795830  1
  Si0+  Si117  1  0.32278756  0.57402565  0.68262683  1
  Si0+  Si118  1  0.32191600  0.06909748  0.01229438  1
  Si0+  Si119  1  0.32206679  0.07226902  0.68490538  1
  O2-  O120  1  0.25352903  -0.00491688  0.05519356  1
  O2-  O121  1  0.24222051  -0.00316548  0.39216334  1
  O2-  O122  1  0.25163085  0.00582968  0.72963341  1
  O2-  O123  1  0.25176134  0.49776400  0.06808817  1
  O2-  O124  1  0.25559245  0.50523754  0.39402146  1
  O2-  O125  1  0.25591659  0.50328015  0.72553181  1
  O2-  O126  1  0.74310176  -0.00019696  0.06046784  1
  O2-  O127  1  0.75085258  0.00194463  0.39756623  1
  O2-  O128  1  0.74866157  0.00180725  0.73358784  1
  O2-  O129  1  0.74971619  0.50113674  0.05766272  1
  O2-  O130  1  0.74652020  0.49278496  0.39097731  1
  O2-  O131  1  0.74909568  0.50050147  0.73259273  1
  O2-  O132  1  -0.00071026  0.24046066  0.27409480  1
  O2-  O133  1  -0.00362244  0.25440170  0.60657140  1
  O2-  O134  1  -0.00614613  0.25470850  0.93944448  1
  O2-  O135  1  -0.00235677  0.75471359  0.27056047  1
  O2-  O136  1  0.00073258  0.74131134  0.60718661  1
  O2-  O137  1  0.00056314  0.74817660  0.94209807  1
  O2-  O138  1  0.50488023  0.24732673  0.27120670  1
  O2-  O139  1  0.49921011  0.25657296  0.60561653  1
  O2-  O140  1  0.50562124  0.24680861  0.93974455  1
  O2-  O141  1  0.50089134  0.75120123  0.27822629  1
  O2-  O142  1  0.50019323  0.75203426  0.60636264  1
  O2-  O143  1  0.49921167  0.75073622  0.93379503  1
  O2-  O144  1  0.06754984  0.17820849  0.10051331  1
  O2-  O145  1  0.07450044  0.17908690  0.42337515  1
  O2-  O146  1  0.07010387  0.17907964  0.76479765  1
  O2-  O147  1  0.06927280  0.67768949  0.08953502  1
  O2-  O148  1  0.06946249  0.67963167  0.43270551  1
  O2-  O149  1  0.07377810  0.68065348  0.75825302  1
  O2-  O150  1  0.57304883  0.17970842  0.09089244  1
  O2-  O151  1  0.56929955  0.17712765  0.42162871  1
  O2-  O152  1  0.56869919  0.18118530  0.76636309  1
  O2-  O153  1  0.57592511  0.68332765  0.09717926  1
  O2-  O154  1  0.57009527  0.67830773  0.42495801  1
  O2-  O155  1  0.56819910  0.67840194  0.75337045  1
  O2-  O156  1  0.18128515  0.42950468  0.23446583  1
  O2-  O157  1  0.17971997  0.42911928  0.56831999  1
  O2-  O158  1  0.18103228  0.42659469  0.90446616  1
  O2-  O159  1  0.18178386  0.92120999  0.24254873  1
  O2-  O160  1  0.18411586  0.92815043  0.56574780  1
  O2-  O161  1  0.17426849  0.92932566  0.91012526  1
  O2-  O162  1  0.67111793  0.43331587  0.24100481  1
  O2-  O163  1  0.67597666  0.43175297  0.56683592  1
  O2-  O164  1  0.68040949  0.42705438  0.91132651  1
  O2-  O165  1  0.67884918  0.92949009  0.23350632  1
  O2-  O166  1  0.67810621  0.93069694  0.57140506  1
  O2-  O167  1  0.67966026  0.92752828  0.91078064  1
  O2-  O168  1  0.42795601  0.31652186  0.09846020  1
  O2-  O169  1  0.42978995  0.31861969  0.43290251  1
  O2-  O170  1  0.42846593  0.32225214  0.75456547  1
  O2-  O171  1  0.42995486  0.82527629  0.09765790  1
  O2-  O172  1  0.42675646  0.81960830  0.42484539  1
  O2-  O173  1  0.42511894  0.81953785  0.75377240  1
  O2-  O174  1  0.92485272  0.32498037  0.08794968  1
  O2-  O175  1  0.93284026  0.32376916  0.43386185  1
  O2-  O176  1  0.93018135  0.32364632  0.75802964  1
  O2-  O177  1  0.93331982  0.81888596  0.09173450  1
  O2-  O178  1  0.92668161  0.82005238  0.42023280  1
  O2-  O179  1  0.93178890  0.81984270  0.76593325  1
  O2-  O180  1  0.31818173  0.06927147  0.23278579  1
  O2-  O181  1  0.32127074  0.07024654  0.57899706  1
  O2-  O182  1  0.32173719  0.06860963  0.90751681  1
  O2-  O183  1  0.32362114  0.57565162  0.24419403  1
  O2-  O184  1  0.32326727  0.57575260  0.57667676  1
  O2-  O185  1  0.31713286  0.57010590  0.90219032  1
  O2-  O186  1  0.82160779  0.07175218  0.23571554  1
  O2-  O187  1  0.82178075  0.07047944  0.56825744  1
  O2-  O188  1  0.82398008  0.06879288  0.90290601  1
  O2-  O189  1  0.81801845  0.56849885  0.23155411  1
  O2-  O190  1  0.82189476  0.57012583  0.56889211  1
  O2-  O191  1  0.82023304  0.57463847  0.91143647  1
  O2-  O192  1  0.05468232  0.07986475  0.27369285  1
  O2-  O193  1  0.04382877  0.08267086  0.59615926  1
  O2-  O194  1  0.03594300  0.08168809  0.93488470  1
  O2-  O195  1  0.03681993  0.58424810  0.26301353  1
  O2-  O196  1  0.04988004  0.58087714  0.61071914  1
  O2-  O197  1  0.04168996  0.58464136  0.93793319  1
  O2-  O198  1  0.54124910  0.08327684  0.27091300  1
  O2-  O199  1  0.53872694  0.08422390  0.59794719  1
  O2-  O200  1  0.54992738  0.08510935  0.93933071  1
  O2-  O201  1  0.54469179  0.58912922  0.26964315  1
  O2-  O202  1  0.54064491  0.58864963  0.59948995  1
  O2-  O203  1  0.54696424  0.58154107  0.92809700  1
  O2-  O204  1  0.16476795  0.20698150  0.27173829  1
  O2-  O205  1  0.16908112  0.20968384  0.59938080  1
  O2-  O206  1  0.16378399  0.20618245  0.93053324  1
  O2-  O207  1  0.16708580  0.70867845  0.26323778  1
  O2-  O208  1  0.16543818  0.70560101  0.60538083  1
  O2-  O209  1  0.16242742  0.70302672  0.93745656  1
  O2-  O210  1  0.66562461  0.19833867  0.27049851  1
  O2-  O211  1  0.66910694  0.21041716  0.59876862  1
  O2-  O212  1  0.66803778  0.20648538  0.94069466  1
  O2-  O213  1  0.66373281  0.70776770  0.27233497  1
  O2-  O214  1  0.66257058  0.70655736  0.60230900  1
  O2-  O215  1  0.67102334  0.70950352  0.92882879  1
  O2-  O216  1  0.07903566  0.45480352  0.06736679  1
  O2-  O217  1  0.08507798  0.46380086  0.40080470  1
  O2-  O218  1  0.08670758  0.45722394  0.74105021  1
  O2-  O219  1  0.08928971  0.95919554  0.06673767  1
  O2-  O220  1  0.08250969  0.94242255  0.39137007  1
  O2-  O221  1  0.08373843  0.95925268  0.73288857  1
  O2-  O222  1  0.58629058  0.45839562  0.06157233  1
  O2-  O223  1  0.58219767  0.45824177  0.39471770  1
  O2-  O224  1  0.57887657  0.45885868  0.73322470  1
  O2-  O225  1  0.58234116  0.95040185  0.05983379  1
  O2-  O226  1  0.58071554  0.95465493  0.40160957  1
  O2-  O227  1  0.57668304  0.95605939  0.73529300  1
  O2-  O228  1  0.20864022  0.32590736  0.06782877  1
  O2-  O229  1  0.21168641  0.33488611  0.40241880  1
  O2-  O230  1  0.21355079  0.33197999  0.73560378  1
  O2-  O231  1  0.20183594  0.83450085  0.06102286  1
  O2-  O232  1  0.20957168  0.83219722  0.39590726  1
  O2-  O233  1  0.21181400  0.83440327  0.73456780  1
  O2-  O234  1  0.70506764  0.33914843  0.06714631  1
  O2-  O235  1  0.69429872  0.33250962  0.38817840  1
  O2-  O236  1  0.70492357  0.33208728  0.73650600  1
  O2-  O237  1  0.70768381  0.83563015  0.06237561  1
  O2-  O238  1  0.70704492  0.83155788  0.40139052  1
  O2-  O239  1  0.70364992  0.83057189  0.73615119  1
  O2-  O240  1  0.45637437  0.41721166  0.26452304  1
  O2-  O241  1  0.45019202  0.41893113  0.60391081  1
  O2-  O242  1  0.45748239  0.41608424  0.93146954  1
  O2-  O243  1  0.45658070  0.91413106  0.27313224  1
  O2-  O244  1  0.45314827  0.91409758  0.60237446  1
  O2-  O245  1  0.45413537  0.92113064  0.92829484  1
  O2-  O246  1  0.96309990  0.41414966  0.26379764  1
  O2-  O247  1  0.95888589  0.41808168  0.60885538  1
  O2-  O248  1  0.94938172  0.41831068  0.93635646  1
  O2-  O249  1  0.95148976  0.91578035  0.26879950  1
  O2-  O250  1  0.96400916  0.91289671  0.59523448  1
  O2-  O251  1  0.96228356  0.91112606  0.94002186  1
  O2-  O252  1  0.33277143  0.28414551  0.26694876  1
  O2-  O253  1  0.33623201  0.29427944  0.60261250  1
  O2-  O254  1  0.33409069  0.28516558  0.92950716  1
  O2-  O255  1  0.33856982  0.79487595  0.26935661  1
  O2-  O256  1  0.33669840  0.79098646  0.59998116  1
  O2-  O257  1  0.32780099  0.79465102  0.93116164  1
  O2-  O258  1  0.83042069  0.29620967  0.26525378  1
  O2-  O259  1  0.83439287  0.30307670  0.60733660  1
  O2-  O260  1  0.83077404  0.29903721  0.93816001  1
  O2-  O261  1  0.83398321  0.79254171  0.26845800  1
  O2-  O262  1  0.83057860  0.79122793  0.59876564  1
  O2-  O263  1  0.83957594  0.79393057  0.93947386  1
  O2-  O264  1  0.41448175  0.04463923  0.06079147  1
  O2-  O265  1  0.41319191  0.03898201  0.40299575  1
  O2-  O266  1  0.41442874  0.04387518  0.73059909  1
  O2-  O267  1  0.42370442  0.54832562  0.06380263  1
  O2-  O268  1  0.41778429  0.54902976  0.39488367  1
  O2-  O269  1  0.41670328  0.55090687  0.72839387  1
  O2-  O270  1  0.91547956  0.03513377  0.07211446  1
  O2-  O271  1  0.92330531  0.04640686  0.39967672  1
  O2-  O272  1  0.92014393  0.03784132  0.73227897  1
  O2-  O273  1  0.91221231  0.54537873  0.06321361  1
  O2-  O274  1  0.91644955  0.53773803  0.39924829  1
  O2-  O275  1  0.91917402  0.54612639  0.73913382  1
  O2-  O276  1  0.28923072  0.15913283  0.06003720  1
  O2-  O277  1  0.28883996  0.16488801  0.40487631  1
  O2-  O278  1  0.29983364  0.16692476  0.72899670  1
  O2-  O279  1  0.29275660  0.67012202  0.06813885  1
  O2-  O280  1  0.29835003  0.66788242  0.39519546  1
  O2-  O281  1  0.29658197  0.66674247  0.72971084  1
  O2-  O282  1  0.79432993  0.16934547  0.06912157  1
  O2-  O283  1  0.79636554  0.17380050  0.40061531  1
  O2-  O284  1  0.79670620  0.17060267  0.73407745  1
  O2-  O285  1  0.79201552  0.66488768  0.06419507  1
  O2-  O286  1  0.79061312  0.66434868  0.39958987  1
  O2-  O287  1  0.79084355  0.66934670  0.73496504  1
