# generated using pymatgen
data_Ca2Al2SiO7
_symmetry_space_group_name_H-M   'P 1'
_cell_length_a   15.45692381
_cell_length_b   15.45829801
_cell_length_c   15.28250737
_cell_angle_alpha   90.01194865
_cell_angle_beta   90.00510384
_cell_angle_gamma   90.00550043
_symmetry_Int_Tables_number   1
_chemical_formula_structural   Ca2Al2SiO7
_chemical_formula_sum   'Ca48 Al48 Si24 O168'
_cell_volume   3651.56757874
_cell_formula_units_Z   24
loop_
 _symmetry_equiv_pos_site_id
 _symmetry_equiv_pos_as_xyz
  1  'x, y, z'
loop_
 _atom_type_symbol
 _atom_type_oxidation_number
  Ca2+  2.0
  Al0+  0.0
  Si0+  0.0
  O2-  -2.0
loop_
 _atom_site_type_symbol
 _atom_site_label
 _atom_site_symmetry_multiplicity
 _atom_site_fract_x
 _atom_site_fract_y
 _atom_site_fract_z
 _atom_site_occupancy
  Ca2+  Ca0  1  0.16623808  0.07260584  0.17094284  1
  Ca2+  Ca1  1  0.17584848  0.07342743  0.50957998  1
  Ca2+  Ca2  1  0.16974870  0.07622175  0.83476649  1
  Ca2+  Ca3  1  0.17418663  0.57249653  0.17342777  1
  Ca2+  Ca4  1  0.17487181  0.57760905  0.50139512  1
  Ca2+  Ca5  1  0.16337589  0.57303808  0.83645603  1
  Ca2+  Ca6  1  0.65862113  0.07633863  0.16892575  1
  Ca2+  Ca7  1  0.65673113  0.07859064  0.50193812  1
  Ca2+  Ca8  1  0.66341131  0.08092889  0.83874384  1
  Ca2+  Ca9  1  0.67324225  0.58780632  0.16994985  1
  Ca2+  Ca10  1  0.66676331  0.58218753  0.51047942  1
  Ca2+  Ca11  1  0.67511488  0.58237482  0.83299321  1
  Ca2+  Ca12  1  0.08314354  0.33756933  0.15792478  1
  Ca2+  Ca13  1  0.08015897  0.34539617  0.50017973  1
  Ca2+  Ca14  1  0.07590753  0.34357981  0.82877590  1
  Ca2+  Ca15  1  0.07995135  0.83546012  0.15755967  1
  Ca2+  Ca16  1  0.08005610  0.84150153  0.49732333  1
  Ca2+  Ca17  1  0.07413993  0.83953928  0.82769565  1
  Ca2+  Ca18  1  0.57685599  0.32089872  0.15639613  1
  Ca2+  Ca19  1  0.59000967  0.32222793  0.49621443  1
  Ca2+  Ca20  1  0.58375321  0.32336959  0.82572302  1
  Ca2+  Ca21  1  0.58150290  0.83475174  0.16697966  1
  Ca2+  Ca22  1  0.57885356  0.82204876  0.49022327  1
  Ca2+  Ca23  1  0.58685023  0.82836210  0.82755266  1
  Ca2+  Ca24  1  0.32710918  0.41507971  0.17170235  1
  Ca2+  Ca25  1  0.32602056  0.41805120  0.50415777  1
  Ca2+  Ca26  1  0.32446750  0.41040183  0.83902581  1
  Ca2+  Ca27  1  0.32348282  0.91062190  0.17476808  1
  Ca2+  Ca28  1  0.32732728  0.91544395  0.50535148  1
  Ca2+  Ca29  1  0.32495446  0.92110931  0.83580389  1
  Ca2+  Ca30  1  0.83764865  0.42223253  0.16535146  1
  Ca2+  Ca31  1  0.82653977  0.42423497  0.51362810  1
  Ca2+  Ca32  1  0.83545317  0.42426857  0.83591886  1
  Ca2+  Ca33  1  0.82140812  0.91321034  0.16791032  1
  Ca2+  Ca34  1  0.82783609  0.91643417  0.50397794  1
  Ca2+  Ca35  1  0.83028126  0.91365489  0.84129124  1
  Ca2+  Ca36  1  0.42552380  0.16833396  0.16014651  1
  Ca2+  Ca37  1  0.42323402  0.16219791  0.49910701  1
  Ca2+  Ca38  1  0.42346723  0.16662352  0.83065543  1
  Ca2+  Ca39  1  0.41713825  0.66666963  0.17024045  1
  Ca2+  Ca40  1  0.42500931  0.66664312  0.49037707  1
  Ca2+  Ca41  1  0.42456307  0.66866792  0.82637326  1
  Ca2+  Ca42  1  0.92055773  0.17514727  0.15890628  1
  Ca2+  Ca43  1  0.91756737  0.17536953  0.49966857  1
  Ca2+  Ca44  1  0.91619964  0.18072910  0.82821228  1
  Ca2+  Ca45  1  0.91858458  0.67118423  0.15749367  1
  Ca2+  Ca46  1  0.91521243  0.67004412  0.50276490  1
  Ca2+  Ca47  1  0.90886454  0.67483034  0.82837564  1
  Al0+  Al48  1  -0.00121276  0.00089667  0.00019982  1
  Al0+  Al49  1  -0.00161852  0.00312166  0.33579151  1
  Al0+  Al50  1  -0.00217029  0.00156990  0.66441277  1
  Al0+  Al51  1  0.00139188  0.50148505  0.00526790  1
  Al0+  Al52  1  -0.00144111  0.50264241  0.33580301  1
  Al0+  Al53  1  -0.00015122  0.50431547  0.66795046  1
  Al0+  Al54  1  0.49956296  -0.00170581  -0.00032235  1
  Al0+  Al55  1  0.49960039  -0.00183493  0.32942519  1
  Al0+  Al56  1  0.49843378  0.00000351  0.66736258  1
  Al0+  Al57  1  0.50051910  0.49986274  -0.00425431  1
  Al0+  Al58  1  0.50168711  0.49889360  0.33074375  1
  Al0+  Al59  1  0.50028586  0.49768646  0.66702867  1
  Al0+  Al60  1  0.25119576  0.24790962  0.00171492  1
  Al0+  Al61  1  0.24716374  0.24790981  0.33762794  1
  Al0+  Al62  1  0.25107410  0.24825618  0.67451384  1
  Al0+  Al63  1  0.25067099  0.74836135  0.00182920  1
  Al0+  Al64  1  0.24867314  0.74721107  0.33832521  1
  Al0+  Al65  1  0.24788927  0.74941867  0.67179878  1
  Al0+  Al66  1  0.75170091  0.25049209  -0.00687243  1
  Al0+  Al67  1  0.75226618  0.25053279  0.32652834  1
  Al0+  Al68  1  0.74999437  0.24934090  0.66036666  1
  Al0+  Al69  1  0.75098468  0.75045184  0.00514498  1
  Al0+  Al70  1  0.75024564  0.75186985  0.33444696  1
  Al0+  Al71  1  0.75021723  0.75039654  0.66026078  1
  Al0+  Al72  1  0.17757832  0.42721333  0.34942347  1
  Al0+  Al73  1  0.32358911  0.56915990  0.34858863  1
  Al0+  Al74  1  0.93207535  0.32341692  0.98589135  1
  Al0+  Al75  1  0.92960579  0.82271658  0.65127205  1
  Al0+  Al76  1  0.17714820  0.92824126  0.34720533  1
  Al0+  Al77  1  0.81931883  0.57283144  0.68158600  1
  Al0+  Al78  1  0.93139055  0.32335498  0.65220468  1
  Al0+  Al79  1  0.92951596  0.82026329  0.98811463  1
  Al0+  Al80  1  0.17799357  0.92899891  0.01416589  1
  Al0+  Al81  1  0.57098281  0.17879084  0.31788636  1
  Al0+  Al82  1  0.57344895  0.67682054  0.31602855  1
  Al0+  Al83  1  0.42688992  0.81892380  0.31866285  1
  Al0+  Al84  1  0.18009455  0.43086970  0.68134925  1
  Al0+  Al85  1  0.32330967  0.06993622  0.68380446  1
  Al0+  Al86  1  0.57036400  0.17858682  0.65100568  1
  Al0+  Al87  1  0.67909662  0.92960073  0.01299631  1
  Al0+  Al88  1  0.56971814  0.67864593  0.65410175  1
  Al0+  Al89  1  0.67888752  0.93080565  0.34855574  1
  Al0+  Al90  1  0.18133060  0.42913060  0.01388707  1
  Al0+  Al91  1  0.81934582  0.57013460  0.01481251  1
  Al0+  Al92  1  0.57069088  0.17734845  0.98296199  1
  Al0+  Al93  1  0.67793614  0.42559189  0.68134071  1
  Al0+  Al94  1  0.17617589  0.92777675  0.68303920  1
  Al0+  Al95  1  0.42764600  0.32204602  0.98434106  1
  Si0+  Si96  1  0.07338740  0.67898111  0.98423675  1
  Si0+  Si97  1  0.93008175  0.82341353  0.31750792  1
  Si0+  Si98  1  0.32613423  0.57279443  0.01649325  1
  Si0+  Si99  1  0.42643607  0.82086789  0.65218583  1
  Si0+  Si100  1  0.07056628  0.17833201  0.31899733  1
  Si0+  Si101  1  0.82086522  0.07214969  0.68075519  1
  Si0+  Si102  1  0.93126597  0.32327601  0.31744625  1
  Si0+  Si103  1  0.82188576  0.07500961  0.01566840  1
  Si0+  Si104  1  0.32410123  0.57230570  0.68443205  1
  Si0+  Si105  1  0.06905777  0.67856765  0.31834863  1
  Si0+  Si106  1  0.67753148  0.42650580  0.01620199  1
  Si0+  Si107  1  0.57277177  0.68013188  0.98506485  1
  Si0+  Si108  1  0.68033307  0.92993088  0.67940400  1
  Si0+  Si109  1  0.42553555  0.32089394  0.31856253  1
  Si0+  Si110  1  0.42697249  0.81970447  0.98429286  1
  Si0+  Si111  1  0.07328488  0.67887525  0.64881527  1
  Si0+  Si112  1  0.07247918  0.17680209  0.98331228  1
  Si0+  Si113  1  0.82146673  0.07470090  0.35067295  1
  Si0+  Si114  1  0.81999077  0.57221844  0.34925326  1
  Si0+  Si115  1  0.68117158  0.42717920  0.34467939  1
  Si0+  Si116  1  0.42575999  0.32098095  0.64925414  1
  Si0+  Si117  1  0.07280296  0.17890579  0.65006117  1
  Si0+  Si118  1  0.32189346  0.07100440  0.34901343  1
  Si0+  Si119  1  0.32182757  0.06955616  0.01929299  1
  O2-  O120  1  0.25294411  0.00128114  0.06403743  1
  O2-  O121  1  0.25484203  0.00013007  0.39255329  1
  O2-  O122  1  0.24944610  -0.00143732  0.73224150  1
  O2-  O123  1  0.26001710  0.50036981  0.05884567  1
  O2-  O124  1  0.25369468  0.49493115  0.39839081  1
  O2-  O125  1  0.25618269  0.50339173  0.72924491  1
  O2-  O126  1  0.75145834  0.00763534  0.05920111  1
  O2-  O127  1  0.75106954  0.00812037  0.39544894  1
  O2-  O128  1  0.75000611  0.00117088  0.72293660  1
  O2-  O129  1  0.74540036  0.49507083  0.06295343  1
  O2-  O130  1  0.74601431  0.50326591  0.38857030  1
  O2-  O131  1  0.74970203  0.49822942  0.73101001  1
  O2-  O132  1  0.00489427  0.25440353  0.27639019  1
  O2-  O133  1  0.00902904  0.25185900  0.60402027  1
  O2-  O134  1  0.00747007  0.24917353  0.93949429  1
  O2-  O135  1  0.00256515  0.75392353  0.27554604  1
  O2-  O136  1  0.00826566  0.75180049  0.60468959  1
  O2-  O137  1  0.00711000  0.74980145  0.93989166  1
  O2-  O138  1  0.49461661  0.25282493  0.27352827  1
  O2-  O139  1  0.49717855  0.25518105  0.60436271  1
  O2-  O140  1  0.50155203  0.25232632  0.93379421  1
  O2-  O141  1  0.50008691  0.74823979  0.26685775  1
  O2-  O142  1  0.49124471  0.74913589  0.60770552  1
  O2-  O143  1  0.49917072  0.74906313  0.94325657  1
  O2-  O144  1  0.06965340  0.17566991  0.08960392  1
  O2-  O145  1  0.06745477  0.17513555  0.42359464  1
  O2-  O146  1  0.06808382  0.17704347  0.75548538  1
  O2-  O147  1  0.07222412  0.67989920  0.09037043  1
  O2-  O148  1  0.06484279  0.67592337  0.42316759  1
  O2-  O149  1  0.07273947  0.67731602  0.75431114  1
  O2-  O150  1  0.56828645  0.17745240  0.09693563  1
  O2-  O151  1  0.57141585  0.18077063  0.43090993  1
  O2-  O152  1  0.57040253  0.17675986  0.76356958  1
  O2-  O153  1  0.57315336  0.68082892  0.08994900  1
  O2-  O154  1  0.57482485  0.67816655  0.42960301  1
  O2-  O155  1  0.57079087  0.68351178  0.76785666  1
  O2-  O156  1  0.17646900  0.42868986  0.23582547  1
  O2-  O157  1  0.18119410  0.43341724  0.56832678  1
  O2-  O158  1  0.17926837  0.43288011  0.90099447  1
  O2-  O159  1  0.17481370  0.93109544  0.23384360  1
  O2-  O160  1  0.17763993  0.93029416  0.56918965  1
  O2-  O161  1  0.17844034  0.93097711  0.90166762  1
  O2-  O162  1  0.68613798  0.42541591  0.23965780  1
  O2-  O163  1  0.68071776  0.42587508  0.56676168  1
  O2-  O164  1  0.67864774  0.42803002  0.91112490  1
  O2-  O165  1  0.68205853  0.93026765  0.23538635  1
  O2-  O166  1  0.68122270  0.93110171  0.57429427  1
  O2-  O167  1  0.68151562  0.92726476  0.89944493  1
  O2-  O168  1  0.42840905  0.31955462  0.09867265  1
  O2-  O169  1  0.42576454  0.31969822  0.42410101  1
  O2-  O170  1  0.42540922  0.31940187  0.75454871  1
  O2-  O171  1  0.42451846  0.81910193  0.08905594  1
  O2-  O172  1  0.42861437  0.81821157  0.43245269  1
  O2-  O173  1  0.42917639  0.82046118  0.75836566  1
  O2-  O174  1  0.93372584  0.32175925  0.09982413  1
  O2-  O175  1  0.92955191  0.32319351  0.42240459  1
  O2-  O176  1  0.93200088  0.32203574  0.76514358  1
  O2-  O177  1  0.92969973  0.81788906  0.10173325  1
  O2-  O178  1  0.92996710  0.82284442  0.42262159  1
  O2-  O179  1  0.92706470  0.82180592  0.76437409  1
  O2-  O180  1  0.31815949  0.07309965  0.24342494  1
  O2-  O181  1  0.32366939  0.06753851  0.56966470  1
  O2-  O182  1  0.32161754  0.06742863  0.91402758  1
  O2-  O183  1  0.31995630  0.56801942  0.23470585  1
  O2-  O184  1  0.32331886  0.57235448  0.57898770  1
  O2-  O185  1  0.32508390  0.57658361  0.91104488  1
  O2-  O186  1  0.82454225  0.07447510  0.24518453  1
  O2-  O187  1  0.82164382  0.07141201  0.57540329  1
  O2-  O188  1  0.82332321  0.07414742  0.91000963  1
  O2-  O189  1  0.82327400  0.57088649  0.24402224  1
  O2-  O190  1  0.81751307  0.57231918  0.56731924  1
  O2-  O191  1  0.81726451  0.57245487  0.90243285  1
  O2-  O192  1  0.03682803  0.08936022  0.26819390  1
  O2-  O193  1  0.04141605  0.08813027  0.60112440  1
  O2-  O194  1  0.04257476  0.08550155  0.93537621  1
  O2-  O195  1  0.03564009  0.58903432  0.26844381  1
  O2-  O196  1  0.04264783  0.58830972  0.59948817  1
  O2-  O197  1  0.04418181  0.58640504  0.93930974  1
  O2-  O198  1  0.54109171  0.08226090  0.26419431  1
  O2-  O199  1  0.53661068  0.08175845  0.59772774  1
  O2-  O200  1  0.54039557  0.07851512  0.93130451  1
  O2-  O201  1  0.54886367  0.57715332  0.26275066  1
  O2-  O202  1  0.54399872  0.57981011  0.60163865  1
  O2-  O203  1  0.54896296  0.58755073  0.93747504  1
  O2-  O204  1  0.16411238  0.19994448  0.27190111  1
  O2-  O205  1  0.16915910  0.19916484  0.60799627  1
  O2-  O206  1  0.16790593  0.19682974  0.94049599  1
  O2-  O207  1  0.16273991  0.70040360  0.27315615  1
  O2-  O208  1  0.16879900  0.70026583  0.60398156  1
  O2-  O209  1  0.16811129  0.70000162  0.93841719  1
  O2-  O210  1  0.66795249  0.20970281  0.26360951  1
  O2-  O211  1  0.66695021  0.20620200  0.59464488  1
  O2-  O212  1  0.67069474  0.20176309  0.93187508  1
  O2-  O213  1  0.67220704  0.70904867  0.26450541  1
  O2-  O214  1  0.66339627  0.71309376  0.59731358  1
  O2-  O215  1  0.66297567  0.71294903  0.93827235  1
  O2-  O216  1  0.08706039  0.46362080  0.07042201  1
  O2-  O217  1  0.08035666  0.46260902  0.40123933  1
  O2-  O218  1  0.08436002  0.46563995  0.73425614  1
  O2-  O219  1  0.08108644  0.96069099  0.06799387  1
  O2-  O220  1  0.08150638  0.96359782  0.40068208  1
  O2-  O221  1  0.07732001  0.95991241  0.73301360  1
  O2-  O222  1  0.58297082  0.45148140  0.06087707  1
  O2-  O223  1  0.58685213  0.44653815  0.38966497  1
  O2-  O224  1  0.57871111  0.45088553  0.73355509  1
  O2-  O225  1  0.58133165  0.95690956  0.06691915  1
  O2-  O226  1  0.58086244  0.95887173  0.40064923  1
  O2-  O227  1  0.58803277  0.95523778  0.72642220  1
  O2-  O228  1  0.20662677  0.33014863  0.06680898  1
  O2-  O229  1  0.19856869  0.32679991  0.40173615  1
  O2-  O230  1  0.20541947  0.33299265  0.73467390  1
  O2-  O231  1  0.20759711  0.83087005  0.06635965  1
  O2-  O232  1  0.20184899  0.83051301  0.40056108  1
  O2-  O233  1  0.20038146  0.82853400  0.73630682  1
  O2-  O234  1  0.70493039  0.33247507  0.06093147  1
  O2-  O235  1  0.71493560  0.33729970  0.39279712  1
  O2-  O236  1  0.70823429  0.32681149  0.73172544  1
  O2-  O237  1  0.71354640  0.83601353  0.07034382  1
  O2-  O238  1  0.71335871  0.83510393  0.40263313  1
  O2-  O239  1  0.71032004  0.83862377  0.72558088  1
  O2-  O240  1  0.45013958  0.41407758  0.27180313  1
  O2-  O241  1  0.44718971  0.41606626  0.60461145  1
  O2-  O242  1  0.45006340  0.42228632  0.93196147  1
  O2-  O243  1  0.45352914  0.91712778  0.26434915  1
  O2-  O244  1  0.45464238  0.91306725  0.60586768  1
  O2-  O245  1  0.45496586  0.91109509  0.93696554  1
  O2-  O246  1  0.95708995  0.41625370  0.27087568  1
  O2-  O247  1  0.95987323  0.42123483  0.59898320  1
  O2-  O248  1  0.96373090  0.42058081  0.93423652  1
  O2-  O249  1  0.95521950  0.91674948  0.27174701  1
  O2-  O250  1  0.95601625  0.92037843  0.59593096  1
  O2-  O251  1  0.95512328  0.91875539  0.93536188  1
  O2-  O252  1  0.33079943  0.29455912  0.27401534  1
  O2-  O253  1  0.33262845  0.29165733  0.60349711  1
  O2-  O254  1  0.32940402  0.29071523  0.93249533  1
  O2-  O255  1  0.32748683  0.78873971  0.26683550  1
  O2-  O256  1  0.33042634  0.79930065  0.60942866  1
  O2-  O257  1  0.33602627  0.79059960  0.93530469  1
  O2-  O258  1  0.84185687  0.29293877  0.26675931  1
  O2-  O259  1  0.83706671  0.28819081  0.59600760  1
  O2-  O260  1  0.83607979  0.29379547  0.93095443  1
  O2-  O261  1  0.83883398  0.79288762  0.27116092  1
  O2-  O262  1  0.83555125  0.78825705  0.59397100  1
  O2-  O263  1  0.83342132  0.78642887  0.93483004  1
  O2-  O264  1  0.41516866  0.04258063  0.06468516  1
  O2-  O265  1  0.41625189  0.04708404  0.39313089  1
  O2-  O266  1  0.41996373  0.03824583  0.73906760  1
  O2-  O267  1  0.42113022  0.55110855  0.06167735  1
  O2-  O268  1  0.42397324  0.54410063  0.39959546  1
  O2-  O269  1  0.41776140  0.54805344  0.73051294  1
  O2-  O270  1  0.91461661  0.04859254  0.06355486  1
  O2-  O271  1  0.91340794  0.04711528  0.39924239  1
  O2-  O272  1  0.91215302  0.04565647  0.72893090  1
  O2-  O273  1  0.91562133  0.54008154  0.07077407  1
  O2-  O274  1  0.91012425  0.54179513  0.39794980  1
  O2-  O275  1  0.91873690  0.54917022  0.73318791  1
  O2-  O276  1  0.29682662  0.16297431  0.06593848  1
  O2-  O277  1  0.29433391  0.16276601  0.39801088  1
  O2-  O278  1  0.29609841  0.16718416  0.73900854  1
  O2-  O279  1  0.29655401  0.66427946  0.06505110  1
  O2-  O280  1  0.29127434  0.66500011  0.40416350  1
  O2-  O281  1  0.29899680  0.66575454  0.73149704  1
  O2-  O282  1  0.79895930  0.16953073  0.06187584  1
  O2-  O283  1  0.79819868  0.16994325  0.39483110  1
  O2-  O284  1  0.79252049  0.16357970  0.72746439  1
  O2-  O285  1  0.78740115  0.66500482  0.07184333  1
  O2-  O286  1  0.79587130  0.66500668  0.39573008  1
  O2-  O287  1  0.78674220  0.67105845  0.73297511  1
