# generated using pymatgen
data_Ca2Al2SiO7
_symmetry_space_group_name_H-M   'P 1'
_cell_length_a   15.45987912
_cell_length_b   15.45849358
_cell_length_c   15.28490020
_cell_angle_alpha   89.99781100
_cell_angle_beta   90.00313372
_cell_angle_gamma   89.99544358
_symmetry_Int_Tables_number   1
_chemical_formula_structural   Ca2Al2SiO7
_chemical_formula_sum   'Ca48 Al48 Si24 O168'
_cell_volume   3652.88389892
_cell_formula_units_Z   24
loop_
 _symmetry_equiv_pos_site_id
 _symmetry_equiv_pos_as_xyz
  1  'x, y, z'
loop_
 _atom_type_symbol
 _atom_type_oxidation_number
  Ca2+  2.0
  Al0+  0.0
  Si0+  0.0
  O2-  -2.0
loop_
 _atom_site_type_symbol
 _atom_site_label
 _atom_site_symmetry_multiplicity
 _atom_site_fract_x
 _atom_site_fract_y
 _atom_site_fract_z
 _atom_site_occupancy
  Ca2+  Ca0  1  0.16890789  0.07663411  0.17747560  1
  Ca2+  Ca1  1  0.16620428  0.07687724  0.50917677  1
  Ca2+  Ca2  1  0.17196661  0.08491978  0.82931923  1
  Ca2+  Ca3  1  0.18123752  0.58349654  0.17182449  1
  Ca2+  Ca4  1  0.17344467  0.58569235  0.50247154  1
  Ca2+  Ca5  1  0.17147374  0.58416148  0.83852225  1
  Ca2+  Ca6  1  0.65461125  0.08100841  0.16878588  1
  Ca2+  Ca7  1  0.66212086  0.07832655  0.50476720  1
  Ca2+  Ca8  1  0.65432068  0.07123885  0.83679900  1
  Ca2+  Ca9  1  0.67427799  0.57836335  0.17837137  1
  Ca2+  Ca10  1  0.66880760  0.57749750  0.50685041  1
  Ca2+  Ca11  1  0.67179762  0.58402255  0.83283534  1
  Ca2+  Ca12  1  0.07910060  0.33425438  0.16921619  1
  Ca2+  Ca13  1  0.07780049  0.32105616  0.49365052  1
  Ca2+  Ca14  1  0.08175511  0.32848842  0.82321543  1
  Ca2+  Ca15  1  0.08272923  0.83390214  0.16631178  1
  Ca2+  Ca16  1  0.08910121  0.83244182  0.49822700  1
  Ca2+  Ca17  1  0.08092438  0.82674451  0.82322813  1
  Ca2+  Ca18  1  0.58740600  0.32438454  0.16316015  1
  Ca2+  Ca19  1  0.58420167  0.33396916  0.49478355  1
  Ca2+  Ca20  1  0.57275041  0.33846588  0.82835669  1
  Ca2+  Ca21  1  0.57198565  0.82973182  0.16154507  1
  Ca2+  Ca22  1  0.58311807  0.82269064  0.49390693  1
  Ca2+  Ca23  1  0.58237587  0.83152581  0.82839893  1
  Ca2+  Ca24  1  0.34449675  0.42746699  0.16733992  1
  Ca2+  Ca25  1  0.34055096  0.42205756  0.50365998  1
  Ca2+  Ca26  1  0.33781002  0.41927887  0.83809520  1
  Ca2+  Ca27  1  0.33190084  0.91147692  0.17519027  1
  Ca2+  Ca28  1  0.32672030  0.92125770  0.50469377  1
  Ca2+  Ca29  1  0.33267834  0.91997546  0.83521320  1
  Ca2+  Ca30  1  0.83027011  0.42415507  0.17825571  1
  Ca2+  Ca31  1  0.82305235  0.41987761  0.50274336  1
  Ca2+  Ca32  1  0.82885621  0.42683439  0.83565838  1
  Ca2+  Ca33  1  0.82340484  0.91821529  0.16804277  1
  Ca2+  Ca34  1  0.82598107  0.91851710  0.50679351  1
  Ca2+  Ca35  1  0.81803828  0.91403382  0.83520233  1
  Ca2+  Ca36  1  0.42866492  0.17251570  0.15930566  1
  Ca2+  Ca37  1  0.41787985  0.17115057  0.49818465  1
  Ca2+  Ca38  1  0.41739677  0.17663008  0.82873492  1
  Ca2+  Ca39  1  0.41537037  0.67159529  0.16521604  1
  Ca2+  Ca40  1  0.42955435  0.66894254  0.49105559  1
  Ca2+  Ca41  1  0.41941832  0.67217155  0.82758646  1
  Ca2+  Ca42  1  0.91962921  0.17253077  0.16946326  1
  Ca2+  Ca43  1  0.92580756  0.16912234  0.49035290  1
  Ca2+  Ca44  1  0.92396994  0.16697218  0.82610432  1
  Ca2+  Ca45  1  0.91350039  0.66112373  0.16436020  1
  Ca2+  Ca46  1  0.91829707  0.65969532  0.49954936  1
  Ca2+  Ca47  1  0.91906852  0.66092783  0.82465874  1
  Al0+  Al48  1  -0.00178567  -0.00126157  -0.00129664  1
  Al0+  Al49  1  0.00006852  -0.00192938  0.33249968  1
  Al0+  Al50  1  -0.00006170  -0.00180806  0.66780588  1
  Al0+  Al51  1  0.00096262  0.49884498  0.00367054  1
  Al0+  Al52  1  0.00184314  0.50024460  0.33285399  1
  Al0+  Al53  1  0.00114419  0.50021638  0.66402490  1
  Al0+  Al54  1  0.49710158  -0.00152415  -0.00241070  1
  Al0+  Al55  1  0.49724865  0.00014462  0.32841525  1
  Al0+  Al56  1  0.49743810  0.00276224  0.67414528  1
  Al0+  Al57  1  0.50194244  0.50021428  0.00176729  1
  Al0+  Al58  1  0.50219491  0.50109276  0.33704505  1
  Al0+  Al59  1  0.50044489  0.50125775  0.66317300  1
  Al0+  Al60  1  0.24937364  0.24877900  -0.00068375  1
  Al0+  Al61  1  0.25086169  0.24975557  0.32763748  1
  Al0+  Al62  1  0.24997785  0.25087065  0.66115134  1
  Al0+  Al63  1  0.24928572  0.74920307  -0.00073354  1
  Al0+  Al64  1  0.24900917  0.75014770  0.33887929  1
  Al0+  Al65  1  0.24865092  0.75134454  0.66609072  1
  Al0+  Al66  1  0.75371695  0.24726621  -0.00706299  1
  Al0+  Al67  1  0.75111123  0.24978979  0.32847729  1
  Al0+  Al68  1  0.74792643  0.25136539  0.67269609  1
  Al0+  Al69  1  0.74982535  0.75227537  0.00914126  1
  Al0+  Al70  1  0.75142401  0.75015000  0.33242221  1
  Al0+  Al71  1  0.75077581  0.75067576  0.66977596  1
  Al0+  Al72  1  0.68005345  0.42677361  0.34786671  1
  Al0+  Al73  1  0.42989457  0.32156824  0.65130953  1
  Al0+  Al74  1  0.57021813  0.17936874  0.32164587  1
  Al0+  Al75  1  0.42984372  0.32256938  0.98503370  1
  Al0+  Al76  1  0.31956493  0.07394551  0.68272227  1
  Al0+  Al77  1  0.32104245  0.57003709  0.34875372  1
  Al0+  Al78  1  0.06911936  0.17857624  0.65318877  1
  Al0+  Al79  1  0.42822223  0.81874960  0.32038649  1
  Al0+  Al80  1  0.57143051  0.68183654  0.65438837  1
  Al0+  Al81  1  0.07274441  0.17620434  0.31700225  1
  Al0+  Al82  1  0.67844317  0.92988553  0.67831926  1
  Al0+  Al83  1  0.82311003  0.57319539  0.35065318  1
  Al0+  Al84  1  0.17830635  0.93037959  0.34741274  1
  Al0+  Al85  1  0.82135820  0.56978819  0.01508721  1
  Al0+  Al86  1  0.93025809  0.32120546  0.31860964  1
  Al0+  Al87  1  0.82189696  0.56963468  0.68170089  1
  Al0+  Al88  1  0.57258687  0.17788627  0.98199780  1
  Al0+  Al89  1  0.32162944  0.57106927  0.01190788  1
  Al0+  Al90  1  0.67673863  0.93186612  0.01644144  1
  Al0+  Al91  1  0.17822017  0.92784371  0.68446061  1
  Al0+  Al92  1  0.67583968  0.42818694  0.68437912  1
  Al0+  Al93  1  0.57378482  0.67774721  0.31701270  1
  Al0+  Al94  1  0.42671694  0.81838197  0.98432392  1
  Al0+  Al95  1  0.07215349  0.67810695  0.65228510  1
  Si0+  Si96  1  0.06903615  0.67921277  0.98705764  1
  Si0+  Si97  1  0.82064885  0.06958784  0.34638821  1
  Si0+  Si98  1  0.93154672  0.32263248  0.98291134  1
  Si0+  Si99  1  0.17862455  0.42652990  0.35050735  1
  Si0+  Si100  1  0.92807321  0.82075147  0.65014990  1
  Si0+  Si101  1  0.18008920  0.42999170  0.67899046  1
  Si0+  Si102  1  0.07029121  0.17690120  0.98414235  1
  Si0+  Si103  1  0.57440201  0.67934654  0.98445430  1
  Si0+  Si104  1  0.67675604  0.93037170  0.34706850  1
  Si0+  Si105  1  0.92625553  0.32228386  0.65095515  1
  Si0+  Si106  1  0.07121018  0.67981476  0.31776294  1
  Si0+  Si107  1  0.92789861  0.82109703  0.98535294  1
  Si0+  Si108  1  0.82516346  0.07174358  0.01747212  1
  Si0+  Si109  1  0.42757926  0.32431186  0.31655088  1
  Si0+  Si110  1  0.42737607  0.82492748  0.65058960  1
  Si0+  Si111  1  0.17770516  0.92907440  0.01493863  1
  Si0+  Si112  1  0.17812534  0.42571222  0.01670266  1
  Si0+  Si113  1  0.67959042  0.42568231  0.01608296  1
  Si0+  Si114  1  0.57198590  0.17711796  0.65108969  1
  Si0+  Si115  1  0.92809383  0.82204680  0.31721298  1
  Si0+  Si116  1  0.31864596  0.07132513  0.01672406  1
  Si0+  Si117  1  0.32283987  0.07329824  0.34840403  1
  Si0+  Si118  1  0.32122119  0.57162498  0.68066533  1
  Si0+  Si119  1  0.82250398  0.07302783  0.68211607  1
  O2-  O120  1  0.24806426  -0.00053202  0.05848567  1
  O2-  O121  1  0.24986834  0.00874707  0.39181281  1
  O2-  O122  1  0.25024745  -0.00058440  0.73463544  1
  O2-  O123  1  0.25078560  0.49163491  0.05836866  1
  O2-  O124  1  0.25032871  0.49124320  0.39572492  1
  O2-  O125  1  0.24924798  0.50165663  0.72322943  1
  O2-  O126  1  0.74947959  0.01042175  0.06137373  1
  O2-  O127  1  0.74760290  0.00143732  0.38965369  1
  O2-  O128  1  0.75046935  0.00760112  0.72597016  1
  O2-  O129  1  0.74728516  0.49484800  0.06110386  1
  O2-  O130  1  0.74880061  0.50248056  0.39767630  1
  O2-  O131  1  0.74963039  0.49918577  0.73330841  1
  O2-  O132  1  0.00372324  0.25078871  0.26662656  1
  O2-  O133  1  -0.01049956  0.24813927  0.60754539  1
  O2-  O134  1  0.00173506  0.25010093  0.94151022  1
  O2-  O135  1  -0.00329744  0.74765348  0.27576024  1
  O2-  O136  1  -0.00202572  0.75352089  0.60573080  1
  O2-  O137  1  -0.00485010  0.74642025  0.94384987  1
  O2-  O138  1  0.49697633  0.25529410  0.27432070  1
  O2-  O139  1  0.50665401  0.24814698  0.60616469  1
  O2-  O140  1  0.50354167  0.25337259  0.93318992  1
  O2-  O141  1  0.49964315  0.74783444  0.26748173  1
  O2-  O142  1  0.49793226  0.75802999  0.60757800  1
  O2-  O143  1  0.50276298  0.74453618  0.93877593  1
  O2-  O144  1  0.06864502  0.17492603  0.08881104  1
  O2-  O145  1  0.06911280  0.17508082  0.43037560  1
  O2-  O146  1  0.06841612  0.18249646  0.76716099  1
  O2-  O147  1  0.07004166  0.68182006  0.09222853  1
  O2-  O148  1  0.07232681  0.68147771  0.42265472  1
  O2-  O149  1  0.07143933  0.67777446  0.76621556  1
  O2-  O150  1  0.56982353  0.17938484  0.09596074  1
  O2-  O151  1  0.56872936  0.17616113  0.43462499  1
  O2-  O152  1  0.56949399  0.17594408  0.75631879  1
  O2-  O153  1  0.57423482  0.68200619  0.08973317  1
  O2-  O154  1  0.57425553  0.68126842  0.43078315  1
  O2-  O155  1  0.56900059  0.68274362  0.76804749  1
  O2-  O156  1  0.17722634  0.43015447  0.24456023  1
  O2-  O157  1  0.18035112  0.43069257  0.57427190  1
  O2-  O158  1  0.17341706  0.42701944  0.91088584  1
  O2-  O159  1  0.17820076  0.92976387  0.23339090  1
  O2-  O160  1  0.17937942  0.92870151  0.57102256  1
  O2-  O161  1  0.17633907  0.92965534  0.91036654  1
  O2-  O162  1  0.68319641  0.42476577  0.23377869  1
  O2-  O163  1  0.67732367  0.42664731  0.57131834  1
  O2-  O164  1  0.68062977  0.42829820  0.91062751  1
  O2-  O165  1  0.67812702  0.93216031  0.24196200  1
  O2-  O166  1  0.68044161  0.93098183  0.56473680  1
  O2-  O167  1  0.68058462  0.92957598  0.90322396  1
  O2-  O168  1  0.42927785  0.32048973  0.09854773  1
  O2-  O169  1  0.42558079  0.32167584  0.42209059  1
  O2-  O170  1  0.42797648  0.32212404  0.76430707  1
  O2-  O171  1  0.42404573  0.81731619  0.09713251  1
  O2-  O172  1  0.43096458  0.82051374  0.43386085  1
  O2-  O173  1  0.42699578  0.82165236  0.75661564  1
  O2-  O174  1  0.93269990  0.32362559  0.08760894  1
  O2-  O175  1  0.93078777  0.31685635  0.43206320  1
  O2-  O176  1  0.93158752  0.32290676  0.75724343  1
  O2-  O177  1  0.93115829  0.82428251  0.09052258  1
  O2-  O178  1  0.92746627  0.82656854  0.42189173  1
  O2-  O179  1  0.92814343  0.82018665  0.75616789  1
  O2-  O180  1  0.32292216  0.07094993  0.24247554  1
  O2-  O181  1  0.31909636  0.07339923  0.56900887  1
  O2-  O182  1  0.31542886  0.07332628  0.91194153  1
  O2-  O183  1  0.31778380  0.57060088  0.23522142  1
  O2-  O184  1  0.32020914  0.57050793  0.57578447  1
  O2-  O185  1  0.31629011  0.57291948  0.89863247  1
  O2-  O186  1  0.82242856  0.06633451  0.24120626  1
  O2-  O187  1  0.82341137  0.07126111  0.57624057  1
  O2-  O188  1  0.83364269  0.06633517  0.91244019  1
  O2-  O189  1  0.82249036  0.57068286  0.23651692  1
  O2-  O190  1  0.82257101  0.56768178  0.56891932  1
  O2-  O191  1  0.82485859  0.56868728  0.90238854  1
  O2-  O192  1  0.03943894  0.07909277  0.26342217  1
  O2-  O193  1  0.04188715  0.08002718  0.60180656  1
  O2-  O194  1  0.03955412  0.08602097  0.93602002  1
  O2-  O195  1  0.04844482  0.58724453  0.26967379  1
  O2-  O196  1  0.04313103  0.58185245  0.59677254  1
  O2-  O197  1  0.04519697  0.58549343  0.94110941  1
  O2-  O198  1  0.53682097  0.08491161  0.26432669  1
  O2-  O199  1  0.54354310  0.08381030  0.60518569  1
  O2-  O200  1  0.53777907  0.08080602  0.93126054  1
  O2-  O201  1  0.54713315  0.57808584  0.26650400  1
  O2-  O202  1  0.53882796  0.58695536  0.59939936  1
  O2-  O203  1  0.55357528  0.58377199  0.94131103  1
  O2-  O204  1  0.17163006  0.20168884  0.26296829  1
  O2-  O205  1  0.16276584  0.21357079  0.59781626  1
  O2-  O206  1  0.16265716  0.20307522  0.93747336  1
  O2-  O207  1  0.16096096  0.71282410  0.26952828  1
  O2-  O208  1  0.16828057  0.70942624  0.59738246  1
  O2-  O209  1  0.15881495  0.70992284  0.93781481  1
  O2-  O210  1  0.66701913  0.20520950  0.26538091  1
  O2-  O211  1  0.66846965  0.19762175  0.60857579  1
  O2-  O212  1  0.67518029  0.19442801  0.93220330  1
  O2-  O213  1  0.67202201  0.70782240  0.26453008  1
  O2-  O214  1  0.66843874  0.71229679  0.60160428  1
  O2-  O215  1  0.66751356  0.71030335  0.93983515  1
  O2-  O216  1  0.08745480  0.45639870  0.06605193  1
  O2-  O217  1  0.08678414  0.45541726  0.39738308  1
  O2-  O218  1  0.08848157  0.45641905  0.72806370  1
  O2-  O219  1  0.08522808  0.95705985  0.06177409  1
  O2-  O220  1  0.08044224  0.95755824  0.40091209  1
  O2-  O221  1  0.07858141  0.95446518  0.73668336  1
  O2-  O222  1  0.58539176  0.44797064  0.06189934  1
  O2-  O223  1  0.58096116  0.45093140  0.40048219  1
  O2-  O224  1  0.57835637  0.46207325  0.73624278  1
  O2-  O225  1  0.57872739  0.96034608  0.06887779  1
  O2-  O226  1  0.58502876  0.95879200  0.39343579  1
  O2-  O227  1  0.58237773  0.95776397  0.73471051  1
  O2-  O228  1  0.19873709  0.33077749  0.06214208  1
  O2-  O229  1  0.20003923  0.33017200  0.39269998  1
  O2-  O230  1  0.20839936  0.33897102  0.72735467  1
  O2-  O231  1  0.20466994  0.83672440  0.06166324  1
  O2-  O232  1  0.20942113  0.83530997  0.40285779  1
  O2-  O233  1  0.20581625  0.82861761  0.73716193  1
  O2-  O234  1  0.70742524  0.33030088  0.05743034  1
  O2-  O235  1  0.71160659  0.32838189  0.40034195  1
  O2-  O236  1  0.70057235  0.32913494  0.73895755  1
  O2-  O237  1  0.71233410  0.83841086  0.07343648  1
  O2-  O238  1  0.70753316  0.83927872  0.39313351  1
  O2-  O239  1  0.71340282  0.83647681  0.73574846  1
  O2-  O240  1  0.45333953  0.41816963  0.27252398  1
  O2-  O241  1  0.45929846  0.41802785  0.59707535  1
  O2-  O242  1  0.45549816  0.42273921  0.93284958  1
  O2-  O243  1  0.45510664  0.91678100  0.26534500  1
  O2-  O244  1  0.45015081  0.92056171  0.60858639  1
  O2-  O245  1  0.45533876  0.91553144  0.93157007  1
  O2-  O246  1  0.96084452  0.41929199  0.26458238  1
  O2-  O247  1  0.95807229  0.41261747  0.60350575  1
  O2-  O248  1  0.96293983  0.41353586  0.93514888  1
  O2-  O249  1  0.95954833  0.91106253  0.26617163  1
  O2-  O250  1  0.95168814  0.91489493  0.60416375  1
  O2-  O251  1  0.95899575  0.91074896  0.93557839  1
  O2-  O252  1  0.33416949  0.30140884  0.26849927  1
  O2-  O253  1  0.33440383  0.29066852  0.59556981  1
  O2-  O254  1  0.32954699  0.29356029  0.93422090  1
  O2-  O255  1  0.32899989  0.78920551  0.26854737  1
  O2-  O256  1  0.33399194  0.79826284  0.60571422  1
  O2-  O257  1  0.33024806  0.78691888  0.92942477  1
  O2-  O258  1  0.83502185  0.28889558  0.26164098  1
  O2-  O259  1  0.82992932  0.30164557  0.60956420  1
  O2-  O260  1  0.84069524  0.29616214  0.93331094  1
  O2-  O261  1  0.83651070  0.79726333  0.26763015  1
  O2-  O262  1  0.83534467  0.79502542  0.60298048  1
  O2-  O263  1  0.83423602  0.79630721  0.94084268  1
  O2-  O264  1  0.41042170  0.04282374  0.06256911  1
  O2-  O265  1  0.41433081  0.04322172  0.39630845  1
  O2-  O266  1  0.41731804  0.04923999  0.73870588  1
  O2-  O267  1  0.41919926  0.54468781  0.06662450  1
  O2-  O268  1  0.41828384  0.54337152  0.40258117  1
  O2-  O269  1  0.41202180  0.54285712  0.72819942  1
  O2-  O270  1  0.91510382  0.03779611  0.06751311  1
  O2-  O271  1  0.91070485  0.03801605  0.39496937  1
  O2-  O272  1  0.91415996  0.04367146  0.73035263  1
  O2-  O273  1  0.91876724  0.53911253  0.06892243  1
  O2-  O274  1  0.92326714  0.54516118  0.39980043  1
  O2-  O275  1  0.92137609  0.53984568  0.73399070  1
  O2-  O276  1  0.29012207  0.16263919  0.06514600  1
  O2-  O277  1  0.30213179  0.16928058  0.39138904  1
  O2-  O278  1  0.28508979  0.17133519  0.73531779  1
  O2-  O279  1  0.28319644  0.66487321  0.06749021  1
  O2-  O280  1  0.28444552  0.66363813  0.40393265  1
  O2-  O281  1  0.29339715  0.66355644  0.72737833  1
  O2-  O282  1  0.80806159  0.16900489  0.05887945  1
  O2-  O283  1  0.79633137  0.16206082  0.39236099  1
  O2-  O284  1  0.80321652  0.16747635  0.72889183  1
  O2-  O285  1  0.79507294  0.66753528  0.06876156  1
  O2-  O286  1  0.80043308  0.67461293  0.40009597  1
  O2-  O287  1  0.79605331  0.66900130  0.73433318  1
