# generated using pymatgen
data_Ca2Al2SiO7
_symmetry_space_group_name_H-M   'P 1'
_cell_length_a   15.45498898
_cell_length_b   15.45600707
_cell_length_c   15.28085599
_cell_angle_alpha   89.99773694
_cell_angle_beta   90.00541266
_cell_angle_gamma   90.00447744
_symmetry_Int_Tables_number   1
_chemical_formula_structural   Ca2Al2SiO7
_chemical_formula_sum   'Ca48 Al48 Si24 O168'
_cell_volume   3650.17500547
_cell_formula_units_Z   24
loop_
 _symmetry_equiv_pos_site_id
 _symmetry_equiv_pos_as_xyz
  1  'x, y, z'
loop_
 _atom_type_symbol
 _atom_type_oxidation_number
  Ca2+  2.0
  Al0+  0.0
  Si0+  0.0
  O2-  -2.0
loop_
 _atom_site_type_symbol
 _atom_site_label
 _atom_site_symmetry_multiplicity
 _atom_site_fract_x
 _atom_site_fract_y
 _atom_site_fract_z
 _atom_site_occupancy
  Ca2+  Ca0  1  0.16023234  0.07403735  0.17273811  1
  Ca2+  Ca1  1  0.17053106  0.07582736  0.50388773  1
  Ca2+  Ca2  1  0.17343750  0.07492280  0.83484760  1
  Ca2+  Ca3  1  0.17251469  0.57693308  0.17130933  1
  Ca2+  Ca4  1  0.17748321  0.58124174  0.50427204  1
  Ca2+  Ca5  1  0.16379388  0.57250056  0.83958448  1
  Ca2+  Ca6  1  0.67138608  0.08088717  0.16932071  1
  Ca2+  Ca7  1  0.67773947  0.08617991  0.50690523  1
  Ca2+  Ca8  1  0.66715821  0.08306282  0.84007570  1
  Ca2+  Ca9  1  0.66709924  0.58482231  0.17158264  1
  Ca2+  Ca10  1  0.66405850  0.58196526  0.50196834  1
  Ca2+  Ca11  1  0.67469690  0.59221025  0.83776879  1
  Ca2+  Ca12  1  0.08140884  0.32664308  0.15824213  1
  Ca2+  Ca13  1  0.08464288  0.32637373  0.49476955  1
  Ca2+  Ca14  1  0.07927646  0.34187429  0.83009460  1
  Ca2+  Ca15  1  0.07422104  0.83908967  0.16332375  1
  Ca2+  Ca16  1  0.08015007  0.84176621  0.49107960  1
  Ca2+  Ca17  1  0.07964303  0.84184534  0.83331909  1
  Ca2+  Ca18  1  0.58246783  0.33171865  0.16522940  1
  Ca2+  Ca19  1  0.58091196  0.33025992  0.49296261  1
  Ca2+  Ca20  1  0.58526307  0.31945893  0.82849954  1
  Ca2+  Ca21  1  0.58471875  0.82427004  0.15976567  1
  Ca2+  Ca22  1  0.57594798  0.82123231  0.49215107  1
  Ca2+  Ca23  1  0.59144398  0.82578455  0.83034245  1
  Ca2+  Ca24  1  0.33485355  0.42019535  0.17373121  1
  Ca2+  Ca25  1  0.33314756  0.41759257  0.49968378  1
  Ca2+  Ca26  1  0.32090908  0.41318469  0.83666108  1
  Ca2+  Ca27  1  0.32243337  0.91117881  0.17422490  1
  Ca2+  Ca28  1  0.32422188  0.91497760  0.50493227  1
  Ca2+  Ca29  1  0.32681411  0.91882827  0.83716610  1
  Ca2+  Ca30  1  0.82870289  0.42029310  0.16849820  1
  Ca2+  Ca31  1  0.82519892  0.42333100  0.50453740  1
  Ca2+  Ca32  1  0.83631296  0.42994861  0.84134696  1
  Ca2+  Ca33  1  0.83014013  0.91427801  0.17099602  1
  Ca2+  Ca34  1  0.83724623  0.92607281  0.50028285  1
  Ca2+  Ca35  1  0.82900358  0.92257112  0.83944011  1
  Ca2+  Ca36  1  0.41971201  0.17447935  0.16143441  1
  Ca2+  Ca37  1  0.41704521  0.16955566  0.49709019  1
  Ca2+  Ca38  1  0.42635662  0.15960695  0.82726117  1
  Ca2+  Ca39  1  0.42421995  0.66699918  0.16822929  1
  Ca2+  Ca40  1  0.42327228  0.66670183  0.48825926  1
  Ca2+  Ca41  1  0.42977769  0.66779352  0.82794839  1
  Ca2+  Ca42  1  0.91876142  0.16932084  0.16583553  1
  Ca2+  Ca43  1  0.92162376  0.15949968  0.49121088  1
  Ca2+  Ca44  1  0.91431992  0.17388960  0.83019319  1
  Ca2+  Ca45  1  0.91239608  0.67744219  0.15961327  1
  Ca2+  Ca46  1  0.91829614  0.67271123  0.49648551  1
  Ca2+  Ca47  1  0.90956385  0.67216000  0.83106502  1
  Al0+  Al48  1  0.00075561  0.00189469  -0.00238988  1
  Al0+  Al49  1  -0.00016191  0.00036712  0.33187183  1
  Al0+  Al50  1  -0.00183604  0.00234414  0.67485866  1
  Al0+  Al51  1  0.00005846  0.50062828  0.00755205  1
  Al0+  Al52  1  -0.00135374  0.49911565  0.33458156  1
  Al0+  Al53  1  -0.00185874  0.50247181  0.67027271  1
  Al0+  Al54  1  0.50041565  -0.00016477  0.00175434  1
  Al0+  Al55  1  0.49939958  -0.00102203  0.33061606  1
  Al0+  Al56  1  0.50056559  -0.00189449  0.66250802  1
  Al0+  Al57  1  0.50006389  0.49974763  -0.00743045  1
  Al0+  Al58  1  0.50006456  0.49780127  0.33365480  1
  Al0+  Al59  1  0.50012533  0.49796328  0.66436508  1
  Al0+  Al60  1  0.24980373  0.24916780  0.00244954  1
  Al0+  Al61  1  0.25022329  0.24743290  0.32412121  1
  Al0+  Al62  1  0.24880700  0.24879621  0.67405941  1
  Al0+  Al63  1  0.24999223  0.74945296  0.00370799  1
  Al0+  Al64  1  0.24960972  0.74719091  0.33847208  1
  Al0+  Al65  1  0.24851501  0.74805810  0.67263163  1
  Al0+  Al66  1  0.75115174  0.25208098  -0.00778298  1
  Al0+  Al67  1  0.75117752  0.25083690  0.34144569  1
  Al0+  Al68  1  0.75008280  0.25200891  0.66589979  1
  Al0+  Al69  1  0.75127604  0.75222734  -0.00065504  1
  Al0+  Al70  1  0.75090435  0.75025465  0.32909317  1
  Al0+  Al71  1  0.75103454  0.75058421  0.66152947  1
  Al0+  Al72  1  0.57209045  0.17693622  0.65101046  1
  Al0+  Al73  1  0.92986860  0.82195025  0.98479345  1
  Al0+  Al74  1  0.57013461  0.17905259  0.98756400  1
  Al0+  Al75  1  0.31984375  0.56801541  0.34638321  1
  Al0+  Al76  1  0.17777495  0.92711794  0.68310163  1
  Al0+  Al77  1  0.42563013  0.82186732  0.31856532  1
  Al0+  Al78  1  0.93175963  0.82032981  0.32060579  1
  Al0+  Al79  1  0.81962227  0.57244093  0.01487597  1
  Al0+  Al80  1  0.32297628  0.07020205  0.68082325  1
  Al0+  Al81  1  0.57160505  0.67884436  0.65116393  1
  Al0+  Al82  1  0.43039490  0.31858741  0.32007727  1
  Al0+  Al83  1  0.07005078  0.18000700  0.32055185  1
  Al0+  Al84  1  0.18016001  0.92984121  0.34620211  1
  Al0+  Al85  1  0.17961297  0.43034424  0.67846244  1
  Al0+  Al86  1  0.17896091  0.42854500  0.01597690  1
  Al0+  Al87  1  0.81831171  0.57139661  0.67956270  1
  Al0+  Al88  1  0.57022154  0.67877536  0.31720701  1
  Al0+  Al89  1  0.57108772  0.67984016  0.98484730  1
  Al0+  Al90  1  0.93076103  0.32263669  0.98663588  1
  Al0+  Al91  1  0.81885893  0.06880377  0.34534338  1
  Al0+  Al92  1  0.67963240  0.43020333  0.34626759  1
  Al0+  Al93  1  0.82041506  0.07356646  0.68192328  1
  Al0+  Al94  1  0.67952843  0.92994778  0.01310188  1
  Al0+  Al95  1  0.17899882  0.92939672  0.01631257  1
  Si0+  Si96  1  0.67598665  0.42851711  0.68491949  1
  Si0+  Si97  1  0.42603500  0.31904529  0.65043528  1
  Si0+  Si98  1  0.17722289  0.42435424  0.34857081  1
  Si0+  Si99  1  0.32336522  0.07372561  0.34793105  1
  Si0+  Si100  1  0.42636632  0.82159210  0.98320674  1
  Si0+  Si101  1  0.32429861  0.57157093  0.68481024  1
  Si0+  Si102  1  0.07257677  0.67863742  0.98496360  1
  Si0+  Si103  1  0.93179482  0.82283147  0.65139903  1
  Si0+  Si104  1  0.82117280  0.07515905  0.01602485  1
  Si0+  Si105  1  0.06892506  0.18032221  0.65306510  1
  Si0+  Si106  1  0.07069884  0.67735511  0.65316864  1
  Si0+  Si107  1  0.67997935  0.92886636  0.67998029  1
  Si0+  Si108  1  0.07264775  0.67468983  0.31797356  1
  Si0+  Si109  1  0.42511317  0.81996608  0.65024074  1
  Si0+  Si110  1  0.32323801  0.07103024  0.01896072  1
  Si0+  Si111  1  0.07287808  0.17867294  0.98028429  1
  Si0+  Si112  1  0.67801841  0.42750485  0.01389668  1
  Si0+  Si113  1  0.82263592  0.57456041  0.35074838  1
  Si0+  Si114  1  0.92643203  0.32315733  0.31821951  1
  Si0+  Si115  1  0.92959578  0.32483268  0.65056527  1
  Si0+  Si116  1  0.42659714  0.32192733  0.98098557  1
  Si0+  Si117  1  0.32408749  0.57063384  0.01620275  1
  Si0+  Si118  1  0.57588998  0.17765989  0.31804204  1
  Si0+  Si119  1  0.67606520  0.92550041  0.35011454  1
  O2-  O120  1  0.25418458  0.00322054  0.06334085  1
  O2-  O121  1  0.25951611  0.00034250  0.39190023  1
  O2-  O122  1  0.25400186  -0.00444643  0.73148896  1
  O2-  O123  1  0.25642017  0.50083534  0.06067477  1
  O2-  O124  1  0.24304477  0.49480137  0.39356785  1
  O2-  O125  1  0.25479498  0.50332751  0.72790215  1
  O2-  O126  1  0.75377583  0.00540019  0.05975873  1
  O2-  O127  1  0.74159732  -0.00258938  0.39404918  1
  O2-  O128  1  0.74208781  0.00231714  0.72668038  1
  O2-  O129  1  0.74280749  0.49883640  0.05957641  1
  O2-  O130  1  0.75346194  0.50594051  0.39363259  1
  O2-  O131  1  0.74189409  0.49982263  0.72834448  1
  O2-  O132  1  -0.00083451  0.25894718  0.27446961  1
  O2-  O133  1  -0.00225680  0.25073063  0.60893582  1
  O2-  O134  1  0.00654678  0.25015261  0.93684407  1
  O2-  O135  1  0.00291172  0.74195922  0.27390202  1
  O2-  O136  1  0.00716589  0.75520983  0.61073234  1
  O2-  O137  1  0.00596977  0.74809445  0.93818617  1
  O2-  O138  1  0.50320414  0.24175618  0.27358657  1
  O2-  O139  1  0.49586769  0.25134805  0.60624634  1
  O2-  O140  1  0.49484397  0.25238108  0.93827399  1
  O2-  O141  1  0.50207258  0.75497911  0.26772396  1
  O2-  O142  1  0.49145441  0.74862743  0.60661445  1
  O2-  O143  1  0.49595361  0.75447472  0.93768579  1
  O2-  O144  1  0.07088715  0.17793261  0.08605001  1
  O2-  O145  1  0.06959498  0.18045807  0.43439379  1
  O2-  O146  1  0.06786265  0.18201747  0.75803816  1
  O2-  O147  1  0.07199629  0.67917854  0.09059014  1
  O2-  O148  1  0.07145011  0.67340804  0.42410354  1
  O2-  O149  1  0.06745154  0.67352988  0.75801280  1
  O2-  O150  1  0.57013059  0.18220681  0.10081076  1
  O2-  O151  1  0.57670725  0.18086341  0.42365985  1
  O2-  O152  1  0.57159992  0.17934045  0.76436157  1
  O2-  O153  1  0.56948004  0.67894502  0.09742856  1
  O2-  O154  1  0.56868961  0.67900304  0.43118886  1
  O2-  O155  1  0.57272952  0.68286764  0.76443585  1
  O2-  O156  1  0.17821962  0.42577828  0.24316876  1
  O2-  O157  1  0.18009438  0.43095640  0.56528413  1
  O2-  O158  1  0.17943819  0.43117434  0.90239427  1
  O2-  O159  1  0.17854774  0.93260275  0.23328649  1
  O2-  O160  1  0.17584616  0.93020062  0.56941045  1
  O2-  O161  1  0.18097418  0.93156327  0.90327340  1
  O2-  O162  1  0.68220233  0.42861407  0.23297828  1
  O2-  O163  1  0.67751851  0.42783621  0.57913514  1
  O2-  O164  1  0.68075901  0.42638940  0.90831545  1
  O2-  O165  1  0.67867286  0.92558909  0.24449212  1
  O2-  O166  1  0.68422279  0.92816151  0.57444323  1
  O2-  O167  1  0.68155038  0.93106835  0.89950195  1
  O2-  O168  1  0.42731355  0.32279054  0.08666605  1
  O2-  O169  1  0.42909454  0.31680794  0.43340350  1
  O2-  O170  1  0.42635355  0.31931992  0.75606044  1
  O2-  O171  1  0.42563981  0.81968532  0.08848845  1
  O2-  O172  1  0.42525295  0.81830352  0.43259222  1
  O2-  O173  1  0.42551492  0.81988044  0.75604612  1
  O2-  O174  1  0.93004528  0.31943435  0.09981837  1
  O2-  O175  1  0.92719824  0.32332853  0.42416715  1
  O2-  O176  1  0.93205523  0.32641010  0.75566968  1
  O2-  O177  1  0.93068255  0.82082525  0.09784324  1
  O2-  O178  1  0.93377529  0.82073906  0.43444760  1
  O2-  O179  1  0.92987782  0.82157665  0.75643335  1
  O2-  O180  1  0.32093707  0.07642086  0.24255106  1
  O2-  O181  1  0.31924499  0.07241026  0.56715186  1
  O2-  O182  1  0.32333172  0.07036637  0.91320758  1
  O2-  O183  1  0.31886991  0.56585455  0.23323586  1
  O2-  O184  1  0.32324722  0.57149152  0.57920472  1
  O2-  O185  1  0.32284586  0.57028398  0.91033637  1
  O2-  O186  1  0.81804500  0.07018926  0.23232930  1
  O2-  O187  1  0.82414112  0.06963528  0.56877392  1
  O2-  O188  1  0.81921140  0.07552522  0.91014666  1
  O2-  O189  1  0.82385034  0.57394840  0.24535996  1
  O2-  O190  1  0.82021793  0.56936994  0.56651834  1
  O2-  O191  1  0.81900598  0.57166930  0.90135859  1
  O2-  O192  1  0.03328640  0.08683975  0.26450415  1
  O2-  O193  1  0.03923570  0.08809097  0.60722614  1
  O2-  O194  1  0.04503606  0.08675106  0.93254356  1
  O2-  O195  1  0.04905111  0.57998931  0.27195525  1
  O2-  O196  1  0.03620694  0.58925680  0.60232082  1
  O2-  O197  1  0.04528482  0.58465695  0.94068299  1
  O2-  O198  1  0.55692330  0.08171015  0.27457636  1
  O2-  O199  1  0.54589143  0.07941015  0.59642104  1
  O2-  O200  1  0.54049323  0.08182034  0.93334147  1
  O2-  O201  1  0.53835454  0.58125151  0.26566529  1
  O2-  O202  1  0.54511302  0.57933291  0.60039475  1
  O2-  O203  1  0.54271985  0.58295134  0.92868264  1
  O2-  O204  1  0.16520720  0.20590340  0.26180391  1
  O2-  O205  1  0.16142015  0.20856217  0.60713210  1
  O2-  O206  1  0.16817870  0.20207862  0.93659848  1
  O2-  O207  1  0.16602837  0.69973229  0.27279412  1
  O2-  O208  1  0.16605640  0.69733256  0.60875828  1
  O2-  O209  1  0.16735891  0.70113715  0.93905511  1
  O2-  O210  1  0.66782183  0.20954119  0.27229287  1
  O2-  O211  1  0.66889486  0.21072438  0.59799221  1
  O2-  O212  1  0.66525090  0.21065239  0.93063554  1
  O2-  O213  1  0.67021479  0.70345615  0.26608363  1
  O2-  O214  1  0.66652207  0.71291688  0.59555337  1
  O2-  O215  1  0.66672479  0.71443731  0.93135806  1
  O2-  O216  1  0.08459694  0.46006252  0.07279164  1
  O2-  O217  1  0.08167380  0.44587728  0.39333626  1
  O2-  O218  1  0.08438574  0.46444337  0.73339617  1
  O2-  O219  1  0.08156222  0.96285689  0.06749168  1
  O2-  O220  1  0.08556567  0.96638639  0.40029679  1
  O2-  O221  1  0.08205640  0.96122989  0.73761532  1
  O2-  O222  1  0.58167317  0.44906616  0.05605062  1
  O2-  O223  1  0.58377465  0.45894017  0.40224101  1
  O2-  O224  1  0.58084355  0.44895207  0.72976885  1
  O2-  O225  1  0.58250183  0.95772160  0.06789910  1
  O2-  O226  1  0.58032660  0.94612889  0.39428224  1
  O2-  O227  1  0.58382638  0.94612678  0.72335007  1
  O2-  O228  1  0.20657378  0.33022171  0.06792414  1
  O2-  O229  1  0.20643272  0.33092988  0.39286178  1
  O2-  O230  1  0.20751816  0.33481543  0.73584831  1
  O2-  O231  1  0.20658660  0.83120630  0.06885355  1
  O2-  O232  1  0.20443957  0.83173843  0.40059946  1
  O2-  O233  1  0.19987668  0.82684875  0.73614366  1
  O2-  O234  1  0.70798104  0.33521034  0.06050441  1
  O2-  O235  1  0.71176170  0.33614107  0.40520968  1
  O2-  O236  1  0.70512628  0.33594525  0.73061635  1
  O2-  O237  1  0.71315737  0.83534535  0.06811503  1
  O2-  O238  1  0.70604895  0.83308608  0.39650573  1
  O2-  O239  1  0.71293936  0.83764281  0.72669701  1
  O2-  O240  1  0.46340018  0.41320710  0.26456101  1
  O2-  O241  1  0.45073876  0.41322287  0.60441806  1
  O2-  O242  1  0.45016619  0.41482315  0.93264466  1
  O2-  O243  1  0.44547682  0.92319827  0.26720867  1
  O2-  O244  1  0.45149261  0.91236360  0.60252276  1
  O2-  O245  1  0.45059718  0.91619729  0.93899655  1
  O2-  O246  1  0.94609763  0.41868036  0.27306761  1
  O2-  O247  1  0.96043842  0.41536658  0.60218146  1
  O2-  O248  1  0.96244303  0.42035923  0.93439665  1
  O2-  O249  1  0.96489979  0.91469927  0.26495313  1
  O2-  O250  1  0.95786377  0.91653195  0.60655444  1
  O2-  O251  1  0.95940708  0.91940751  0.93081582  1
  O2-  O252  1  0.33506071  0.29021242  0.26209090  1
  O2-  O253  1  0.33202367  0.29221573  0.60529975  1
  O2-  O254  1  0.33224487  0.29518471  0.93652826  1
  O2-  O255  1  0.32831849  0.78726075  0.26670169  1
  O2-  O256  1  0.32947489  0.79570746  0.60680647  1
  O2-  O257  1  0.33293349  0.79411888  0.93670347  1
  O2-  O258  1  0.83454254  0.29196566  0.27242672  1
  O2-  O259  1  0.83629096  0.30058175  0.60495098  1
  O2-  O260  1  0.83606613  0.29268933  0.92828527  1
  O2-  O261  1  0.83467093  0.79305789  0.26620889  1
  O2-  O262  1  0.84238509  0.79130890  0.60177159  1
  O2-  O263  1  0.83476899  0.78981338  0.92915634  1
  O2-  O264  1  0.41667197  0.04740966  0.06552604  1
  O2-  O265  1  0.41973328  0.05557245  0.39198607  1
  O2-  O266  1  0.42286928  0.04277754  0.73215384  1
  O2-  O267  1  0.41816860  0.54369982  0.06065538  1
  O2-  O268  1  0.41432981  0.53387619  0.40180337  1
  O2-  O269  1  0.41789972  0.54464355  0.73023916  1
  O2-  O270  1  0.91626445  0.05130415  0.05867980  1
  O2-  O271  1  0.91402068  0.03410209  0.40040730  1
  O2-  O272  1  0.91395836  0.04128322  0.73985534  1
  O2-  O273  1  0.91477401  0.54155548  0.07087308  1
  O2-  O274  1  0.91650031  0.54839157  0.39775616  1
  O2-  O275  1  0.91328119  0.53923905  0.73565500  1
  O2-  O276  1  0.29823081  0.16556166  0.06349314  1
  O2-  O277  1  0.29148000  0.16546966  0.39489919  1
  O2-  O278  1  0.29165990  0.16593532  0.73785733  1
  O2-  O279  1  0.29800954  0.66352147  0.06296737  1
  O2-  O280  1  0.28884133  0.66234770  0.40501428  1
  O2-  O281  1  0.29985123  0.66449896  0.73231006  1
  O2-  O282  1  0.79346761  0.16871738  0.06096166  1
  O2-  O283  1  0.79314896  0.16523033  0.40276954  1
  O2-  O284  1  0.79414407  0.17245654  0.73359233  1
  O2-  O285  1  0.78941788  0.66882527  0.06801576  1
  O2-  O286  1  0.79750600  0.66832825  0.39675433  1
  O2-  O287  1  0.78930534  0.66957369  0.73164433  1
