# generated using pymatgen
data_Ca2Al2SiO7
_symmetry_space_group_name_H-M   'P 1'
_cell_length_a   15.45727841
_cell_length_b   15.45713236
_cell_length_c   15.28338940
_cell_angle_alpha   89.99184464
_cell_angle_beta   90.00547800
_cell_angle_gamma   90.00649180
_symmetry_Int_Tables_number   1
_chemical_formula_structural   Ca2Al2SiO7
_chemical_formula_sum   'Ca48 Al48 Si24 O168'
_cell_volume   3651.58676536
_cell_formula_units_Z   24
loop_
 _symmetry_equiv_pos_site_id
 _symmetry_equiv_pos_as_xyz
  1  'x, y, z'
loop_
 _atom_type_symbol
 _atom_type_oxidation_number
  Ca2+  2.0
  Al0+  0.0
  Si0+  0.0
  O2-  -2.0
loop_
 _atom_site_type_symbol
 _atom_site_label
 _atom_site_symmetry_multiplicity
 _atom_site_fract_x
 _atom_site_fract_y
 _atom_site_fract_z
 _atom_site_occupancy
  Ca2+  Ca0  1  0.17736739  0.08919975  0.16817384  1
  Ca2+  Ca1  1  0.17529870  0.08071686  0.51150902  1
  Ca2+  Ca2  1  0.17181614  0.08858418  0.83792504  1
  Ca2+  Ca3  1  0.17647088  0.57551432  0.17587848  1
  Ca2+  Ca4  1  0.15925141  0.57659720  0.50359971  1
  Ca2+  Ca5  1  0.16656443  0.57120210  0.83883362  1
  Ca2+  Ca6  1  0.65990977  0.07210839  0.16776449  1
  Ca2+  Ca7  1  0.67257373  0.08740312  0.51138343  1
  Ca2+  Ca8  1  0.67152486  0.08574839  0.83390053  1
  Ca2+  Ca9  1  0.66912402  0.58878806  0.17359519  1
  Ca2+  Ca10  1  0.67186088  0.57854756  0.50221556  1
  Ca2+  Ca11  1  0.66563460  0.57994953  0.83689310  1
  Ca2+  Ca12  1  0.08615208  0.33592829  0.16378042  1
  Ca2+  Ca13  1  0.07820902  0.33786437  0.49874803  1
  Ca2+  Ca14  1  0.08576208  0.32549426  0.82620434  1
  Ca2+  Ca15  1  0.08732403  0.82444329  0.16566787  1
  Ca2+  Ca16  1  0.09055934  0.82329495  0.49923509  1
  Ca2+  Ca17  1  0.09339124  0.82581360  0.82449326  1
  Ca2+  Ca18  1  0.57113933  0.33206405  0.15902048  1
  Ca2+  Ca19  1  0.58714273  0.32825767  0.50180188  1
  Ca2+  Ca20  1  0.57340389  0.33309719  0.82536823  1
  Ca2+  Ca21  1  0.57836382  0.82240916  0.15591119  1
  Ca2+  Ca22  1  0.57982448  0.82695247  0.49249892  1
  Ca2+  Ca23  1  0.57880759  0.83509649  0.83716596  1
  Ca2+  Ca24  1  0.32542260  0.42123781  0.16824325  1
  Ca2+  Ca25  1  0.31999858  0.42327646  0.50201586  1
  Ca2+  Ca26  1  0.32211214  0.41606425  0.84255963  1
  Ca2+  Ca27  1  0.34408497  0.92797607  0.16674296  1
  Ca2+  Ca28  1  0.32856573  0.92558078  0.50624986  1
  Ca2+  Ca29  1  0.33223620  0.92688620  0.83525265  1
  Ca2+  Ca30  1  0.83253428  0.42165419  0.17520488  1
  Ca2+  Ca31  1  0.83458740  0.41479343  0.50525390  1
  Ca2+  Ca32  1  0.82811462  0.40877011  0.82908744  1
  Ca2+  Ca33  1  0.82596881  0.91373202  0.16675418  1
  Ca2+  Ca34  1  0.83102248  0.92479808  0.50787624  1
  Ca2+  Ca35  1  0.82989604  0.92439969  0.83755182  1
  Ca2+  Ca36  1  0.40723889  0.17228841  0.15921730  1
  Ca2+  Ca37  1  0.41546960  0.16177852  0.50065556  1
  Ca2+  Ca38  1  0.41523224  0.16816380  0.82968715  1
  Ca2+  Ca39  1  0.42329944  0.66185339  0.15645293  1
  Ca2+  Ca40  1  0.42101809  0.66495784  0.49053715  1
  Ca2+  Ca41  1  0.41339632  0.66893286  0.83510586  1
  Ca2+  Ca42  1  0.92634194  0.17632390  0.16068764  1
  Ca2+  Ca43  1  0.91935816  0.17612978  0.49960685  1
  Ca2+  Ca44  1  0.92902820  0.16886615  0.82201459  1
  Ca2+  Ca45  1  0.92275897  0.65929276  0.16920348  1
  Ca2+  Ca46  1  0.92839879  0.65928831  0.49526966  1
  Ca2+  Ca47  1  0.92418525  0.67157213  0.82651248  1
  Al0+  Al48  1  0.00034644  0.00028486  -0.00100301  1
  Al0+  Al49  1  -0.00081895  0.00029083  0.33179279  1
  Al0+  Al50  1  -0.00026468  -0.00129828  0.66999493  1
  Al0+  Al51  1  -0.00279522  0.49940105  0.00158823  1
  Al0+  Al52  1  -0.00235232  0.50039369  0.33076387  1
  Al0+  Al53  1  -0.00032912  0.50160860  0.66654401  1
  Al0+  Al54  1  0.50169198  -0.00184813  0.00463314  1
  Al0+  Al55  1  0.50118392  -0.00127277  0.33875975  1
  Al0+  Al56  1  0.49992271  -0.00051584  0.66493967  1
  Al0+  Al57  1  0.50072798  0.49820015  -0.00652243  1
  Al0+  Al58  1  0.49988336  0.49677005  0.33298141  1
  Al0+  Al59  1  0.50126550  0.50047284  0.66800650  1
  Al0+  Al60  1  0.24878918  0.24990056  -0.00008858  1
  Al0+  Al61  1  0.25064011  0.24959606  0.34330308  1
  Al0+  Al62  1  0.25112985  0.25248001  0.66818923  1
  Al0+  Al63  1  0.25141394  0.75030888  -0.00152868  1
  Al0+  Al64  1  0.25174225  0.75273439  0.32909138  1
  Al0+  Al65  1  0.25244694  0.75160773  0.66342398  1
  Al0+  Al66  1  0.75176607  0.25093587  0.00378816  1
  Al0+  Al67  1  0.75032034  0.24842045  0.32513013  1
  Al0+  Al68  1  0.74822826  0.25001942  0.66914965  1
  Al0+  Al69  1  0.75036510  0.75043082  -0.00083927  1
  Al0+  Al70  1  0.74926291  0.74938930  0.33584175  1
  Al0+  Al71  1  0.74956646  0.74949263  0.66615775  1
  Al0+  Al72  1  0.57266902  0.67822448  0.98228166  1
  Al0+  Al73  1  0.92922804  0.32039420  0.31805424  1
  Al0+  Al74  1  0.07099876  0.68103050  0.65425088  1
  Al0+  Al75  1  0.06986026  0.18053570  0.98738245  1
  Al0+  Al76  1  0.17801844  0.43127573  0.34996357  1
  Al0+  Al77  1  0.07107472  0.68012348  0.31836247  1
  Al0+  Al78  1  0.56969552  0.67763246  0.32081610  1
  Al0+  Al79  1  0.17910246  0.92783101  0.68071551  1
  Al0+  Al80  1  0.17763049  0.43172693  0.68146266  1
  Al0+  Al81  1  0.82066759  0.07138445  0.67951996  1
  Al0+  Al82  1  0.42917843  0.31935399  0.98669357  1
  Al0+  Al83  1  0.07413932  0.17704586  0.65054600  1
  Al0+  Al84  1  0.56812810  0.17995533  0.65500592  1
  Al0+  Al85  1  0.32148730  0.07150688  0.68323161  1
  Al0+  Al86  1  0.67939928  0.42939662  0.68018115  1
  Al0+  Al87  1  0.92903326  0.31950896  0.65246428  1
  Al0+  Al88  1  0.17704246  0.42862700  0.01538535  1
  Al0+  Al89  1  0.32098781  0.07009958  0.34874710  1
  Al0+  Al90  1  0.32375652  0.57326095  0.34715305  1
  Al0+  Al91  1  0.81896574  0.57062378  0.34717821  1
  Al0+  Al92  1  0.68140928  0.93038967  0.01381435  1
  Al0+  Al93  1  0.32161324  0.57171444  0.01344184  1
  Al0+  Al94  1  0.42817087  0.82284247  0.98320683  1
  Al0+  Al95  1  0.31955138  0.06913891  0.01309867  1
  Si0+  Si96  1  0.07052383  0.67870313  0.98584020  1
  Si0+  Si97  1  0.82049400  0.07183131  0.34657049  1
  Si0+  Si98  1  0.82158992  0.57280057  0.68467155  1
  Si0+  Si99  1  0.57379524  0.17699723  0.98572470  1
  Si0+  Si100  1  0.67778719  0.92589839  0.68300292  1
  Si0+  Si101  1  0.92904440  0.82065231  0.98568690  1
  Si0+  Si102  1  0.67845199  0.42787688  0.01527312  1
  Si0+  Si103  1  0.42989844  0.82350293  0.31612901  1
  Si0+  Si104  1  0.81892578  0.57182850  0.01480552  1
  Si0+  Si105  1  0.32386652  0.57298310  0.68241028  1
  Si0+  Si106  1  0.82459336  0.07313393  0.01932703  1
  Si0+  Si107  1  0.17551088  0.92631345  0.01767828  1
  Si0+  Si108  1  0.17508676  0.92798565  0.34875068  1
  Si0+  Si109  1  0.68043462  0.92933703  0.35007419  1
  Si0+  Si110  1  0.57173591  0.17713288  0.31764813  1
  Si0+  Si111  1  0.57251736  0.67756475  0.64958820  1
  Si0+  Si112  1  0.67771376  0.42448177  0.34827066  1
  Si0+  Si113  1  0.42817640  0.31786304  0.31977944  1
  Si0+  Si114  1  0.43121814  0.82049059  0.64912731  1
  Si0+  Si115  1  0.92592450  0.32421379  0.98188308  1
  Si0+  Si116  1  0.92477664  0.82236058  0.65033388  1
  Si0+  Si117  1  0.92675748  0.82445770  0.31655378  1
  Si0+  Si118  1  0.07339206  0.17725980  0.31774030  1
  Si0+  Si119  1  0.42728798  0.32521538  0.64755027  1
  O2-  O120  1  0.24600853  -0.00664299  0.06155755  1
  O2-  O121  1  0.24338213  -0.00278278  0.39209565  1
  O2-  O122  1  0.24349332  0.00550641  0.73253952  1
  O2-  O123  1  0.24764972  0.50262102  0.06407776  1
  O2-  O124  1  0.24647556  0.50817925  0.39874463  1
  O2-  O125  1  0.25479828  0.50500230  0.72620248  1
  O2-  O126  1  0.75341551  0.00677942  0.06362679  1
  O2-  O127  1  0.75114614  0.00048653  0.39112036  1
  O2-  O128  1  0.74769663  -0.00602129  0.72556162  1
  O2-  O129  1  0.74802516  0.50038333  0.05689356  1
  O2-  O130  1  0.74543950  0.49414891  0.39222472  1
  O2-  O131  1  0.75308552  0.50425868  0.72895674  1
  O2-  O132  1  0.00680268  0.24787185  0.27283297  1
  O2-  O133  1  0.00269299  0.25002973  0.60065107  1
  O2-  O134  1  -0.00579427  0.25448861  0.94080062  1
  O2-  O135  1  -0.00346594  0.75668316  0.27226834  1
  O2-  O136  1  -0.00370533  0.75644641  0.60717828  1
  O2-  O137  1  0.00399890  0.75421335  0.94334333  1
  O2-  O138  1  0.49867534  0.24580875  0.27656112  1
  O2-  O139  1  0.49315433  0.25239780  0.60463957  1
  O2-  O140  1  0.50525442  0.24485443  0.94139789  1
  O2-  O141  1  0.49134832  0.74778204  0.27321445  1
  O2-  O142  1  0.50146005  0.74808256  0.60744715  1
  O2-  O143  1  0.49775338  0.74780311  0.93300931  1
  O2-  O144  1  0.06825196  0.18090485  0.10104493  1
  O2-  O145  1  0.07002738  0.17373424  0.42266516  1
  O2-  O146  1  0.07181717  0.17859265  0.76427652  1
  O2-  O147  1  0.06735022  0.67878088  0.09085484  1
  O2-  O148  1  0.06850803  0.68177306  0.43135818  1
  O2-  O149  1  0.06816910  0.68173250  0.76788160  1
  O2-  O150  1  0.57381591  0.17909696  0.09200054  1
  O2-  O151  1  0.57558874  0.17793239  0.42253031  1
  O2-  O152  1  0.56851284  0.18119500  0.76803018  1
  O2-  O153  1  0.57543115  0.68015519  0.09615276  1
  O2-  O154  1  0.57109028  0.68192049  0.43432515  1
  O2-  O155  1  0.57431263  0.67817943  0.75424042  1
  O2-  O156  1  0.18145763  0.42950287  0.23649937  1
  O2-  O157  1  0.17661829  0.43477580  0.56852211  1
  O2-  O158  1  0.17587556  0.43038487  0.90173253  1
  O2-  O159  1  0.17277855  0.92911280  0.24313005  1
  O2-  O160  1  0.18472999  0.92432581  0.56697942  1
  O2-  O161  1  0.17328516  0.92719152  0.91247858  1
  O2-  O162  1  0.67793999  0.42388051  0.24240015  1
  O2-  O163  1  0.67927632  0.43178614  0.56690131  1
  O2-  O164  1  0.68064350  0.42588847  0.91036854  1
  O2-  O165  1  0.67974400  0.92961112  0.24506465  1
  O2-  O166  1  0.67900177  0.92465120  0.57689782  1
  O2-  O167  1  0.68517369  0.93054315  0.90091216  1
  O2-  O168  1  0.43063983  0.31809431  0.10061927  1
  O2-  O169  1  0.43057856  0.31790379  0.42461055  1
  O2-  O170  1  0.42995196  0.32726441  0.75314017  1
  O2-  O171  1  0.43313940  0.82514286  0.09682660  1
  O2-  O172  1  0.43515393  0.82693043  0.42195197  1
  O2-  O173  1  0.43219470  0.82129482  0.75381878  1
  O2-  O174  1  0.92324797  0.32414435  0.08761553  1
  O2-  O175  1  0.92421546  0.31667850  0.43041929  1
  O2-  O176  1  0.92866827  0.31740050  0.76613015  1
  O2-  O177  1  0.92744195  0.81880634  0.09085752  1
  O2-  O178  1  0.92556986  0.82769817  0.42175662  1
  O2-  O179  1  0.91899348  0.81831639  0.75600589  1
  O2-  O180  1  0.32225556  0.07048893  0.23540212  1
  O2-  O181  1  0.32408742  0.06506874  0.56946629  1
  O2-  O182  1  0.31960670  0.06947343  0.90084618  1
  O2-  O183  1  0.32581092  0.56852458  0.23396932  1
  O2-  O184  1  0.32571682  0.57202870  0.57670772  1
  O2-  O185  1  0.31775474  0.57092562  0.89967405  1
  O2-  O186  1  0.81820254  0.07000324  0.24154202  1
  O2-  O187  1  0.81694591  0.07026104  0.56562831  1
  O2-  O188  1  0.82422905  0.07231123  0.91392310  1
  O2-  O189  1  0.81682771  0.57038011  0.23348935  1
  O2-  O190  1  0.81966525  0.57488249  0.57924642  1
  O2-  O191  1  0.82005227  0.57279533  0.90976043  1
  O2-  O192  1  0.04597635  0.08447399  0.26963481  1
  O2-  O193  1  0.04541679  0.07678906  0.60083676  1
  O2-  O194  1  0.04041687  0.08277894  0.93410135  1
  O2-  O195  1  0.03602886  0.58576760  0.26312694  1
  O2-  O196  1  0.03636036  0.58652088  0.59927259  1
  O2-  O197  1  0.03650117  0.58849925  0.93884314  1
  O2-  O198  1  0.54475255  0.08343015  0.27327802  1
  O2-  O199  1  0.54223232  0.08225976  0.59880717  1
  O2-  O200  1  0.55122249  0.08253309  0.94218110  1
  O2-  O201  1  0.54644107  0.57820273  0.26842155  1
  O2-  O202  1  0.54516050  0.58568048  0.60231360  1
  O2-  O203  1  0.54877536  0.57898830  0.92977663  1
  O2-  O204  1  0.16869623  0.20319406  0.27530407  1
  O2-  O205  1  0.17380879  0.20449394  0.59999092  1
  O2-  O206  1  0.16509023  0.21134838  0.93271581  1
  O2-  O207  1  0.16781682  0.71077063  0.26334296  1
  O2-  O208  1  0.16774351  0.71079638  0.59924995  1
  O2-  O209  1  0.16306898  0.70243261  0.93885842  1
  O2-  O210  1  0.66133921  0.20419349  0.26557299  1
  O2-  O211  1  0.66334573  0.21355703  0.59951572  1
  O2-  O212  1  0.66888107  0.20269954  0.94240450  1
  O2-  O213  1  0.66582830  0.71298870  0.26791597  1
  O2-  O214  1  0.66453814  0.70595633  0.60197051  1
  O2-  O215  1  0.67045458  0.71101884  0.92948459  1
  O2-  O216  1  0.07703845  0.45560123  0.06681148  1
  O2-  O217  1  0.07800017  0.45800735  0.39912746  1
  O2-  O218  1  0.08199496  0.46479662  0.73616736  1
  O2-  O219  1  0.08169072  0.95166921  0.06442235  1
  O2-  O220  1  0.08045786  0.95063918  0.39477968  1
  O2-  O221  1  0.07675014  0.94185972  0.73058878  1
  O2-  O222  1  0.58586620  0.45336840  0.06131366  1
  O2-  O223  1  0.58448926  0.44792154  0.39508729  1
  O2-  O224  1  0.58347590  0.46126874  0.73518162  1
  O2-  O225  1  0.58651208  0.95938674  0.07215353  1
  O2-  O226  1  0.59004210  0.95756695  0.39978425  1
  O2-  O227  1  0.58514630  0.95354947  0.72802910  1
  O2-  O228  1  0.20854279  0.33173412  0.06859746  1
  O2-  O229  1  0.20929134  0.33460130  0.40447502  1
  O2-  O230  1  0.20802580  0.33482533  0.73395638  1
  O2-  O231  1  0.19945480  0.83172989  0.06225811  1
  O2-  O232  1  0.20241252  0.83461946  0.39382040  1
  O2-  O233  1  0.21561720  0.83165574  0.73464556  1
  O2-  O234  1  0.70627612  0.33687230  0.06567633  1
  O2-  O235  1  0.70578570  0.33036448  0.39227794  1
  O2-  O236  1  0.70929646  0.33443718  0.73688754  1
  O2-  O237  1  0.71654705  0.83481512  0.06844418  1
  O2-  O238  1  0.70821210  0.83841909  0.39871514  1
  O2-  O239  1  0.70292073  0.83229880  0.72941178  1
  O2-  O240  1  0.45763799  0.40822615  0.27043864  1
  O2-  O241  1  0.45879422  0.41713659  0.60081962  1
  O2-  O242  1  0.46074455  0.41332580  0.92902389  1
  O2-  O243  1  0.46553722  0.91453795  0.26984222  1
  O2-  O244  1  0.46180003  0.91060126  0.59971707  1
  O2-  O245  1  0.46404705  0.91974581  0.93085276  1
  O2-  O246  1  0.95573258  0.41743675  0.26336601  1
  O2-  O247  1  0.95373853  0.42019494  0.60223836  1
  O2-  O248  1  0.94877206  0.41853003  0.93613741  1
  O2-  O249  1  0.94984414  0.91804577  0.26763386  1
  O2-  O250  1  0.94588349  0.91719693  0.60603364  1
  O2-  O251  1  0.95071258  0.91441594  0.93959530  1
  O2-  O252  1  0.33629486  0.28827302  0.27369767  1
  O2-  O253  1  0.33343100  0.30244921  0.60209683  1
  O2-  O254  1  0.33362067  0.28786800  0.93279561  1
  O2-  O255  1  0.33361880  0.81089341  0.27200075  1
  O2-  O256  1  0.34052202  0.79342374  0.59939302  1
  O2-  O257  1  0.32834455  0.79852093  0.93022795  1
  O2-  O258  1  0.83416260  0.28700109  0.25992122  1
  O2-  O259  1  0.83049741  0.28945346  0.60054280  1
  O2-  O260  1  0.83128248  0.29819236  0.93746727  1
  O2-  O261  1  0.83351790  0.79565310  0.27096786  1
  O2-  O262  1  0.83214393  0.79485174  0.60145489  1
  O2-  O263  1  0.84034641  0.78807019  0.93576797  1
  O2-  O264  1  0.41703317  0.04138470  0.06827510  1
  O2-  O265  1  0.41755509  0.03750504  0.40302681  1
  O2-  O266  1  0.41914937  0.03679770  0.73451208  1
  O2-  O267  1  0.42153171  0.54103113  0.06212330  1
  O2-  O268  1  0.42057130  0.53939242  0.40154072  1
  O2-  O269  1  0.41755974  0.54860978  0.72864701  1
  O2-  O270  1  0.91634538  0.04300867  0.06668006  1
  O2-  O271  1  0.91296534  0.04583724  0.39329339  1
  O2-  O272  1  0.91618293  0.04174459  0.73560356  1
  O2-  O273  1  0.90999619  0.54327248  0.06356260  1
  O2-  O274  1  0.91519238  0.54039368  0.40019980  1
  O2-  O275  1  0.91442240  0.54812060  0.73175498  1
  O2-  O276  1  0.28573979  0.16439994  0.06803550  1
  O2-  O277  1  0.29416825  0.16555419  0.40559025  1
  O2-  O278  1  0.30219326  0.17328465  0.73147142  1
  O2-  O279  1  0.29784893  0.67205784  0.06508951  1
  O2-  O280  1  0.30435235  0.67653198  0.39386436  1
  O2-  O281  1  0.29965801  0.66758282  0.72578182  1
  O2-  O282  1  0.80157604  0.16781659  0.06498391  1
  O2-  O283  1  0.78922726  0.16296860  0.39247785  1
  O2-  O284  1  0.78482266  0.16427248  0.73624229  1
  O2-  O285  1  0.79203289  0.66306318  0.06337778  1
  O2-  O286  1  0.78868786  0.66675194  0.40281887  1
  O2-  O287  1  0.79408579  0.66633736  0.73109588  1
