# generated using pymatgen
data_Ca2Al2SiO7
_symmetry_space_group_name_H-M   'P 1'
_cell_length_a   15.45833680
_cell_length_b   15.45897464
_cell_length_c   15.28509304
_cell_angle_alpha   90.00127313
_cell_angle_beta   90.01086925
_cell_angle_gamma   90.01228565
_symmetry_Int_Tables_number   1
_chemical_formula_structural   Ca2Al2SiO7
_chemical_formula_sum   'Ca48 Al48 Si24 O168'
_cell_volume   3652.67909259
_cell_formula_units_Z   24
loop_
 _symmetry_equiv_pos_site_id
 _symmetry_equiv_pos_as_xyz
  1  'x, y, z'
loop_
 _atom_type_symbol
 _atom_type_oxidation_number
  Ca2+  2.0
  Al0+  0.0
  Si0+  0.0
  O2-  -2.0
loop_
 _atom_site_type_symbol
 _atom_site_label
 _atom_site_symmetry_multiplicity
 _atom_site_fract_x
 _atom_site_fract_y
 _atom_site_fract_z
 _atom_site_occupancy
  Ca2+  Ca0  1  0.16614340  0.08246315  0.17211782  1
  Ca2+  Ca1  1  0.17038977  0.07982188  0.50910495  1
  Ca2+  Ca2  1  0.16773818  0.07556541  0.83171509  1
  Ca2+  Ca3  1  0.16658864  0.57576820  0.17188279  1
  Ca2+  Ca4  1  0.17497323  0.57900720  0.50801280  1
  Ca2+  Ca5  1  0.16168104  0.57972330  0.83668643  1
  Ca2+  Ca6  1  0.66864051  0.07497950  0.17374796  1
  Ca2+  Ca7  1  0.66890429  0.07168993  0.51021533  1
  Ca2+  Ca8  1  0.66719469  0.07941488  0.82843674  1
  Ca2+  Ca9  1  0.66428650  0.57919306  0.17083582  1
  Ca2+  Ca10  1  0.66293583  0.57954077  0.49965065  1
  Ca2+  Ca11  1  0.67443190  0.58093432  0.84539820  1
  Ca2+  Ca12  1  0.07596714  0.34175232  0.16339523  1
  Ca2+  Ca13  1  0.08294074  0.33085759  0.49090632  1
  Ca2+  Ca14  1  0.07887894  0.34289976  0.83039436  1
  Ca2+  Ca15  1  0.08125579  0.82287133  0.15860457  1
  Ca2+  Ca16  1  0.08315857  0.83435584  0.50136224  1
  Ca2+  Ca17  1  0.08052568  0.82125282  0.82237330  1
  Ca2+  Ca18  1  0.58745093  0.33808941  0.16216905  1
  Ca2+  Ca19  1  0.58563877  0.32660595  0.49520548  1
  Ca2+  Ca20  1  0.58584446  0.32877663  0.82585922  1
  Ca2+  Ca21  1  0.57646209  0.82290750  0.16411998  1
  Ca2+  Ca22  1  0.57998023  0.83057956  0.49009015  1
  Ca2+  Ca23  1  0.58189021  0.82994899  0.83064003  1
  Ca2+  Ca24  1  0.32264440  0.42554209  0.17628456  1
  Ca2+  Ca25  1  0.32398467  0.42740556  0.50543389  1
  Ca2+  Ca26  1  0.32094791  0.42313681  0.83453234  1
  Ca2+  Ca27  1  0.34005971  0.91230524  0.16908121  1
  Ca2+  Ca28  1  0.32996706  0.91936148  0.50822410  1
  Ca2+  Ca29  1  0.33460293  0.91775854  0.83200809  1
  Ca2+  Ca30  1  0.82900114  0.41785840  0.16650925  1
  Ca2+  Ca31  1  0.83081593  0.41169092  0.49754414  1
  Ca2+  Ca32  1  0.82953115  0.42192343  0.84536856  1
  Ca2+  Ca33  1  0.82519404  0.91583616  0.17513774  1
  Ca2+  Ca34  1  0.82411061  0.91887707  0.51206079  1
  Ca2+  Ca35  1  0.83523973  0.91785903  0.83074363  1
  Ca2+  Ca36  1  0.41905941  0.17114035  0.16284281  1
  Ca2+  Ca37  1  0.41999593  0.16126071  0.50040451  1
  Ca2+  Ca38  1  0.42129542  0.16797421  0.82382406  1
  Ca2+  Ca39  1  0.42230539  0.67056309  0.16369700  1
  Ca2+  Ca40  1  0.41677216  0.66854629  0.49065658  1
  Ca2+  Ca41  1  0.42065031  0.66547521  0.83101918  1
  Ca2+  Ca42  1  0.92154253  0.17979949  0.16654088  1
  Ca2+  Ca43  1  0.92235004  0.16922809  0.49188428  1
  Ca2+  Ca44  1  0.91121709  0.17429277  0.82790519  1
  Ca2+  Ca45  1  0.92129865  0.66016698  0.15903525  1
  Ca2+  Ca46  1  0.92270122  0.67084082  0.50330598  1
  Ca2+  Ca47  1  0.92643660  0.66344745  0.82798992  1
  Al0+  Al48  1  0.00174870  0.00144284  0.00293073  1
  Al0+  Al49  1  0.00093749  0.00118847  0.32760392  1
  Al0+  Al50  1  -0.00174696  0.00211738  0.67156419  1
  Al0+  Al51  1  -0.00178572  0.49921400  -0.00072746  1
  Al0+  Al52  1  -0.00244431  0.49993622  0.33451584  1
  Al0+  Al53  1  -0.00152220  0.50079302  0.66160592  1
  Al0+  Al54  1  0.49979704  0.00126766  -0.00267146  1
  Al0+  Al55  1  0.50037691  -0.00065169  0.33269315  1
  Al0+  Al56  1  0.50184958  -0.00018385  0.67005226  1
  Al0+  Al57  1  0.49813257  0.49948352  -0.00188683  1
  Al0+  Al58  1  0.50152500  0.49895448  0.33803283  1
  Al0+  Al59  1  0.49760449  0.49875275  0.66909970  1
  Al0+  Al60  1  0.25027355  0.24800407  0.00357028  1
  Al0+  Al61  1  0.25164144  0.24793676  0.33301463  1
  Al0+  Al62  1  0.24943706  0.25259452  0.67375427  1
  Al0+  Al63  1  0.24964432  0.75165421  -0.00787153  1
  Al0+  Al64  1  0.24972600  0.75201693  0.33196658  1
  Al0+  Al65  1  0.25208177  0.74875196  0.66937351  1
  Al0+  Al66  1  0.75162189  0.24857743  -0.00012990  1
  Al0+  Al67  1  0.75256071  0.25042171  0.33186648  1
  Al0+  Al68  1  0.74838269  0.24770539  0.66333196  1
  Al0+  Al69  1  0.74962138  0.75205734  0.00148460  1
  Al0+  Al70  1  0.74926383  0.74896461  0.33481906  1
  Al0+  Al71  1  0.74975336  0.74878649  0.66654777  1
  Al0+  Al72  1  0.17761944  0.92836457  0.68158276  1
  Al0+  Al73  1  0.82038865  0.57280729  0.01417696  1
  Al0+  Al74  1  0.67721969  0.42789910  0.01310804  1
  Al0+  Al75  1  0.32177792  0.07142499  0.68175864  1
  Al0+  Al76  1  0.57170418  0.67740168  0.98373940  1
  Al0+  Al77  1  0.93090247  0.31820813  0.98470337  1
  Al0+  Al78  1  0.17609321  0.43076769  0.68209686  1
  Al0+  Al79  1  0.43008547  0.82219012  0.98107039  1
  Al0+  Al80  1  0.56966321  0.17933588  0.65147390  1
  Al0+  Al81  1  0.92889062  0.82256608  0.65224996  1
  Al0+  Al82  1  0.17713337  0.42791903  0.34844227  1
  Al0+  Al83  1  0.67911985  0.92595574  0.68361052  1
  Al0+  Al84  1  0.17919715  0.42955530  0.01496484  1
  Al0+  Al85  1  0.06813754  0.67900661  0.98734154  1
  Al0+  Al86  1  0.07417082  0.17823890  0.31818930  1
  Al0+  Al87  1  0.57198200  0.67624302  0.31910825  1
  Al0+  Al88  1  0.42783237  0.82190883  0.31955149  1
  Al0+  Al89  1  0.32028720  0.57277886  0.34684742  1
  Al0+  Al90  1  0.07311233  0.67854046  0.64886346  1
  Al0+  Al91  1  0.82084212  0.07247781  0.68140072  1
  Al0+  Al92  1  0.67920841  0.92872884  0.34643481  1
  Al0+  Al93  1  0.92908692  0.32242763  0.31643349  1
  Al0+  Al94  1  0.32281662  0.57236841  0.68396092  1
  Al0+  Al95  1  0.68013612  0.42811641  0.34831201  1
  Si0+  Si96  1  0.07039645  0.68068780  0.31935397  1
  Si0+  Si97  1  0.67797663  0.93115094  0.01644053  1
  Si0+  Si98  1  0.82285153  0.57368283  0.35317852  1
  Si0+  Si99  1  0.92709742  0.82606762  0.98551600  1
  Si0+  Si100  1  0.07410851  0.17643064  0.98073124  1
  Si0+  Si101  1  0.57131965  0.67626190  0.65139616  1
  Si0+  Si102  1  0.67933645  0.42775608  0.67945737  1
  Si0+  Si103  1  0.07194972  0.18036283  0.65441534  1
  Si0+  Si104  1  0.82240071  0.07020768  0.34852124  1
  Si0+  Si105  1  0.32245766  0.07094184  0.34701648  1
  Si0+  Si106  1  0.92762441  0.32111644  0.65080091  1
  Si0+  Si107  1  0.32210114  0.06961890  0.01698093  1
  Si0+  Si108  1  0.32137334  0.57416841  0.01682173  1
  Si0+  Si109  1  0.43013701  0.32035244  0.31934207  1
  Si0+  Si110  1  0.43118243  0.82066948  0.65168746  1
  Si0+  Si111  1  0.92861467  0.82175471  0.31912503  1
  Si0+  Si112  1  0.82286690  0.07138270  0.01757554  1
  Si0+  Si113  1  0.17963325  0.92869401  0.01597129  1
  Si0+  Si114  1  0.42639930  0.32051005  0.98590458  1
  Si0+  Si115  1  0.57085698  0.18021545  0.98546157  1
  Si0+  Si116  1  0.57123151  0.17888128  0.31805038  1
  Si0+  Si117  1  0.81927548  0.56984893  0.68000101  1
  Si0+  Si118  1  0.17773654  0.92985843  0.34578089  1
  Si0+  Si119  1  0.42683497  0.32220168  0.64893496  1
  O2-  O120  1  0.25152716  -0.00150647  0.05950684  1
  O2-  O121  1  0.24921975  0.00114310  0.38660567  1
  O2-  O122  1  0.25063091  -0.00063498  0.73289689  1
  O2-  O123  1  0.25313324  0.50512552  0.06139777  1
  O2-  O124  1  0.24716811  0.50198082  0.39720746  1
  O2-  O125  1  0.24547252  0.50519521  0.73230636  1
  O2-  O126  1  0.75374606  -0.00220352  0.05881960  1
  O2-  O127  1  0.75514492  0.00148381  0.39353518  1
  O2-  O128  1  0.75288874  -0.00285545  0.73280034  1
  O2-  O129  1  0.74437632  0.50419250  0.06351534  1
  O2-  O130  1  0.75346768  0.50402213  0.39560500  1
  O2-  O131  1  0.74812738  0.49931735  0.72239676  1
  O2-  O132  1  0.00678609  0.25468425  0.26835007  1
  O2-  O133  1  0.00104535  0.25118375  0.61140073  1
  O2-  O134  1  0.00680842  0.24562947  0.93589426  1
  O2-  O135  1  -0.00230493  0.74974156  0.27600354  1
  O2-  O136  1  0.00440969  0.75521476  0.60010342  1
  O2-  O137  1  -0.00771194  0.75403934  0.94278246  1
  O2-  O138  1  0.50296533  0.25164119  0.27468471  1
  O2-  O139  1  0.49382311  0.25212232  0.60346152  1
  O2-  O140  1  0.50384855  0.25553878  0.94451749  1
  O2-  O141  1  0.49821684  0.74768264  0.27098364  1
  O2-  O142  1  0.50054330  0.74786850  0.60980133  1
  O2-  O143  1  0.50034894  0.74865735  0.93116753  1
  O2-  O144  1  0.07263900  0.17395343  0.08618163  1
  O2-  O145  1  0.07186918  0.17395245  0.43198791  1
  O2-  O146  1  0.07143425  0.18129627  0.75949974  1
  O2-  O147  1  0.06857620  0.68169489  0.10134846  1
  O2-  O148  1  0.07110788  0.68378880  0.42394323  1
  O2-  O149  1  0.06736412  0.67569157  0.76235577  1
  O2-  O150  1  0.56845302  0.17700803  0.09106944  1
  O2-  O151  1  0.56909465  0.17769516  0.42283650  1
  O2-  O152  1  0.57057507  0.18369486  0.76506649  1
  O2-  O153  1  0.57059567  0.67859212  0.09705611  1
  O2-  O154  1  0.57160795  0.67870529  0.43321236  1
  O2-  O155  1  0.57193057  0.67523698  0.75630320  1
  O2-  O156  1  0.17907958  0.43062680  0.23453760  1
  O2-  O157  1  0.17787630  0.42846202  0.56872625  1
  O2-  O158  1  0.18049591  0.42956662  0.90225303  1
  O2-  O159  1  0.17669744  0.92981647  0.24038668  1
  O2-  O160  1  0.17922543  0.93199474  0.56713763  1
  O2-  O161  1  0.17724084  0.93178817  0.91165487  1
  O2-  O162  1  0.68077728  0.42660635  0.23571338  1
  O2-  O163  1  0.68080437  0.42769090  0.57428359  1
  O2-  O164  1  0.68090511  0.42458676  0.89904018  1
  O2-  O165  1  0.68062981  0.93232431  0.23266152  1
  O2-  O166  1  0.67830943  0.92746035  0.56988097  1
  O2-  O167  1  0.67686987  0.93343165  0.91177983  1
  O2-  O168  1  0.42489453  0.31613193  0.09135554  1
  O2-  O169  1  0.43007721  0.31625206  0.42414231  1
  O2-  O170  1  0.43047684  0.32196708  0.75487146  1
  O2-  O171  1  0.43288109  0.82432972  0.09458199  1
  O2-  O172  1  0.42833228  0.82548391  0.43305837  1
  O2-  O173  1  0.43401753  0.82162607  0.75661729  1
  O2-  O174  1  0.92969522  0.31640102  0.09723190  1
  O2-  O175  1  0.92664018  0.31692848  0.43040577  1
  O2-  O176  1  0.92538867  0.32132195  0.75594585  1
  O2-  O177  1  0.93073406  0.82933529  0.09172500  1
  O2-  O178  1  0.93082277  0.82434829  0.42368159  1
  O2-  O179  1  0.92829990  0.81769382  0.76590806  1
  O2-  O180  1  0.32487839  0.07139610  0.24163594  1
  O2-  O181  1  0.32053690  0.06978294  0.56760617  1
  O2-  O182  1  0.32294750  0.07088385  0.91254400  1
  O2-  O183  1  0.31800504  0.57171073  0.23284142  1
  O2-  O184  1  0.32571170  0.56926725  0.57044239  1
  O2-  O185  1  0.32113295  0.57150738  0.91146240  1
  O2-  O186  1  0.82026005  0.06806954  0.24229760  1
  O2-  O187  1  0.81834248  0.07432716  0.56776930  1
  O2-  O188  1  0.82239951  0.07259272  0.91287845  1
  O2-  O189  1  0.82457685  0.57555335  0.24789523  1
  O2-  O190  1  0.81839398  0.56938221  0.57483201  1
  O2-  O191  1  0.82107603  0.56890032  0.90006946  1
  O2-  O192  1  0.04158003  0.08196312  0.26047337  1
  O2-  O193  1  0.04502835  0.08837048  0.60729761  1
  O2-  O194  1  0.04670557  0.08248534  0.93598195  1
  O2-  O195  1  0.04292129  0.58815065  0.27368629  1
  O2-  O196  1  0.03708544  0.58295965  0.59355700  1
  O2-  O197  1  0.03640644  0.58378712  0.93231940  1
  O2-  O198  1  0.53994416  0.08895168  0.26856125  1
  O2-  O199  1  0.53978294  0.08174471  0.59879537  1
  O2-  O200  1  0.53783442  0.09130973  0.93625458  1
  O2-  O201  1  0.54590234  0.57641075  0.26801436  1
  O2-  O202  1  0.54293614  0.58367721  0.60512838  1
  O2-  O203  1  0.54530965  0.57770081  0.93093439  1
  O2-  O204  1  0.17511255  0.19855692  0.26613607  1
  O2-  O205  1  0.16448351  0.20772618  0.60769883  1
  O2-  O206  1  0.16962380  0.19892685  0.93784370  1
  O2-  O207  1  0.16026181  0.71092837  0.26978107  1
  O2-  O208  1  0.17384501  0.70362620  0.59944137  1
  O2-  O209  1  0.16332621  0.71032113  0.93203618  1
  O2-  O210  1  0.66394868  0.20374059  0.27127979  1
  O2-  O211  1  0.66466420  0.21188257  0.59498774  1
  O2-  O212  1  0.66386172  0.20298171  0.93888646  1
  O2-  O213  1  0.67059175  0.70576787  0.26645937  1
  O2-  O214  1  0.66332778  0.70228040  0.60403048  1
  O2-  O215  1  0.67127698  0.70757739  0.93275672  1
  O2-  O216  1  0.08255716  0.46118535  0.06700425  1
  O2-  O217  1  0.07680830  0.45186383  0.39846595  1
  O2-  O218  1  0.07571146  0.45803173  0.73201769  1
  O2-  O219  1  0.08849719  0.95756295  0.06583144  1
  O2-  O220  1  0.08587356  0.95831082  0.39275801  1
  O2-  O221  1  0.08078419  0.95807654  0.73623131  1
  O2-  O222  1  0.57575767  0.44931947  0.06351342  1
  O2-  O223  1  0.58361013  0.45444944  0.40472345  1
  O2-  O224  1  0.58639441  0.45156686  0.72557700  1
  O2-  O225  1  0.58827546  0.96652584  0.06346974  1
  O2-  O226  1  0.58354326  0.96272572  0.39981285  1
  O2-  O227  1  0.58357902  0.95965516  0.73806770  1
  O2-  O228  1  0.20968646  0.33154388  0.06733149  1
  O2-  O229  1  0.20798391  0.32860983  0.39826595  1
  O2-  O230  1  0.20565521  0.33417840  0.73810979  1
  O2-  O231  1  0.20666043  0.83615555  0.06233565  1
  O2-  O232  1  0.20447297  0.83896860  0.39433589  1
  O2-  O233  1  0.20511257  0.83005929  0.73328474  1
  O2-  O234  1  0.70844156  0.32943946  0.06577049  1
  O2-  O235  1  0.71273899  0.33095846  0.40199103  1
  O2-  O236  1  0.70806911  0.33633392  0.72606753  1
  O2-  O237  1  0.70168626  0.83855724  0.06377745  1
  O2-  O238  1  0.70762489  0.83189192  0.39982538  1
  O2-  O239  1  0.70632307  0.82709305  0.73608638  1
  O2-  O240  1  0.45663791  0.41225729  0.27262604  1
  O2-  O241  1  0.45566048  0.41463691  0.60219903  1
  O2-  O242  1  0.44614266  0.41370200  0.93880679  1
  O2-  O243  1  0.45889785  0.91968340  0.26475240  1
  O2-  O244  1  0.45974699  0.91265306  0.60522646  1
  O2-  O245  1  0.46090413  0.92109516  0.92939278  1
  O2-  O246  1  0.95140651  0.42318321  0.26519451  1
  O2-  O247  1  0.95252016  0.41247517  0.60170591  1
  O2-  O248  1  0.95945106  0.41498940  0.93079049  1
  O2-  O249  1  0.95652520  0.91228154  0.26853542  1
  O2-  O250  1  0.95206847  0.92398252  0.60227157  1
  O2-  O251  1  0.95635127  0.91880483  0.93932850  1
  O2-  O252  1  0.34019824  0.28951941  0.26954352  1
  O2-  O253  1  0.33207878  0.29740609  0.60540981  1
  O2-  O254  1  0.33788695  0.28448836  0.93723260  1
  O2-  O255  1  0.32861900  0.79740112  0.26480823  1
  O2-  O256  1  0.33806360  0.79643347  0.60558780  1
  O2-  O257  1  0.33039001  0.79917013  0.92929321  1
  O2-  O258  1  0.83276421  0.28783221  0.26156139  1
  O2-  O259  1  0.83702581  0.29053473  0.60258517  1
  O2-  O260  1  0.83447140  0.28452278  0.93054948  1
  O2-  O261  1  0.83631453  0.79517848  0.27235387  1
  O2-  O262  1  0.83150384  0.78892917  0.59851321  1
  O2-  O263  1  0.83134183  0.80770086  0.94244201  1
  O2-  O264  1  0.41438458  0.04249653  0.06500963  1
  O2-  O265  1  0.41323256  0.04202195  0.39560199  1
  O2-  O266  1  0.41963512  0.04334399  0.73538023  1
  O2-  O267  1  0.41495270  0.54752398  0.06201697  1
  O2-  O268  1  0.41803822  0.54349077  0.39982446  1
  O2-  O269  1  0.41892760  0.53722681  0.73938595  1
  O2-  O270  1  0.91555658  0.04626125  0.06521909  1
  O2-  O271  1  0.91723041  0.04522919  0.39199467  1
  O2-  O272  1  0.91905136  0.05087306  0.73719446  1
  O2-  O273  1  0.91627705  0.53896169  0.06844642  1
  O2-  O274  1  0.91540085  0.54710913  0.40088200  1
  O2-  O275  1  0.91080874  0.54069439  0.72602097  1
  O2-  O276  1  0.29415094  0.16047009  0.06680109  1
  O2-  O277  1  0.29804171  0.16233548  0.39620128  1
  O2-  O278  1  0.29546523  0.16969476  0.73566811  1
  O2-  O279  1  0.29584639  0.66938641  0.05911711  1
  O2-  O280  1  0.29253725  0.67216030  0.39862397  1
  O2-  O281  1  0.30287016  0.67224377  0.73537557  1
  O2-  O282  1  0.79081752  0.16099154  0.06624349  1
  O2-  O283  1  0.79739539  0.16393584  0.39279568  1
  O2-  O284  1  0.78528646  0.16895945  0.73582851  1
  O2-  O285  1  0.80055310  0.67425805  0.06597207  1
  O2-  O286  1  0.79688108  0.66659597  0.40044856  1
  O2-  O287  1  0.79244144  0.66073115  0.72839602  1
