# generated using pymatgen
data_Ca2Al2SiO7
_symmetry_space_group_name_H-M   'P 1'
_cell_length_a   15.45603542
_cell_length_b   15.45713092
_cell_length_c   15.28242487
_cell_angle_alpha   90.01243210
_cell_angle_beta   89.99626688
_cell_angle_gamma   90.01390161
_symmetry_Int_Tables_number   1
_chemical_formula_structural   Ca2Al2SiO7
_chemical_formula_sum   'Ca48 Al48 Si24 O168'
_cell_volume   3651.06222807
_cell_formula_units_Z   24
loop_
 _symmetry_equiv_pos_site_id
 _symmetry_equiv_pos_as_xyz
  1  'x, y, z'
loop_
 _atom_type_symbol
 _atom_type_oxidation_number
  Ca2+  2.0
  Al0+  0.0
  Si0+  0.0
  O2-  -2.0
loop_
 _atom_site_type_symbol
 _atom_site_label
 _atom_site_symmetry_multiplicity
 _atom_site_fract_x
 _atom_site_fract_y
 _atom_site_fract_z
 _atom_site_occupancy
  Ca2+  Ca0  1  0.16578419  0.07289719  0.16862470  1
  Ca2+  Ca1  1  0.17210644  0.07805464  0.50349082  1
  Ca2+  Ca2  1  0.17368384  0.07788256  0.83522839  1
  Ca2+  Ca3  1  0.17930417  0.57276526  0.17042461  1
  Ca2+  Ca4  1  0.17656721  0.57618799  0.50800622  1
  Ca2+  Ca5  1  0.17519607  0.57717373  0.83570534  1
  Ca2+  Ca6  1  0.67269029  0.08017232  0.16981024  1
  Ca2+  Ca7  1  0.65705768  0.07138917  0.50610098  1
  Ca2+  Ca8  1  0.66588661  0.08415169  0.83409368  1
  Ca2+  Ca9  1  0.66248560  0.56999440  0.16875937  1
  Ca2+  Ca10  1  0.67016629  0.58167465  0.50557300  1
  Ca2+  Ca11  1  0.66873729  0.58234722  0.83310388  1
  Ca2+  Ca12  1  0.08122164  0.33778217  0.15984869  1
  Ca2+  Ca13  1  0.08866071  0.33735500  0.49660203  1
  Ca2+  Ca14  1  0.07970569  0.34699971  0.83078777  1
  Ca2+  Ca15  1  0.08385878  0.83709076  0.16171079  1
  Ca2+  Ca16  1  0.08186158  0.82584066  0.49205694  1
  Ca2+  Ca17  1  0.08437128  0.82658647  0.82805147  1
  Ca2+  Ca18  1  0.57495694  0.34195468  0.16092905  1
  Ca2+  Ca19  1  0.56971738  0.33692867  0.49557881  1
  Ca2+  Ca20  1  0.57220716  0.33292320  0.82719366  1
  Ca2+  Ca21  1  0.57654624  0.83175621  0.16189498  1
  Ca2+  Ca22  1  0.58821671  0.82939943  0.49855538  1
  Ca2+  Ca23  1  0.57832292  0.82966102  0.82524858  1
  Ca2+  Ca24  1  0.33470899  0.42304159  0.17371600  1
  Ca2+  Ca25  1  0.32857820  0.41925436  0.50559674  1
  Ca2+  Ca26  1  0.33286189  0.42347818  0.83975203  1
  Ca2+  Ca27  1  0.32250969  0.90982944  0.16855577  1
  Ca2+  Ca28  1  0.33050982  0.92357977  0.50561897  1
  Ca2+  Ca29  1  0.33469672  0.92144887  0.83927272  1
  Ca2+  Ca30  1  0.82124393  0.40891279  0.16736432  1
  Ca2+  Ca31  1  0.82519506  0.42082114  0.50619351  1
  Ca2+  Ca32  1  0.82873097  0.42023062  0.84013192  1
  Ca2+  Ca33  1  0.83232298  0.92272571  0.17471967  1
  Ca2+  Ca34  1  0.82323701  0.90827438  0.50219152  1
  Ca2+  Ca35  1  0.82427820  0.92224899  0.83658385  1
  Ca2+  Ca36  1  0.41628608  0.18151133  0.16126934  1
  Ca2+  Ca37  1  0.41381525  0.17609723  0.50127420  1
  Ca2+  Ca38  1  0.41634230  0.17768754  0.82282947  1
  Ca2+  Ca39  1  0.41117152  0.66700723  0.16067657  1
  Ca2+  Ca40  1  0.42008699  0.65570585  0.49982605  1
  Ca2+  Ca41  1  0.41571161  0.66775633  0.82923380  1
  Ca2+  Ca42  1  0.91793287  0.17024497  0.15670172  1
  Ca2+  Ca43  1  0.92076480  0.16793700  0.49663740  1
  Ca2+  Ca44  1  0.91518606  0.17093209  0.83578682  1
  Ca2+  Ca45  1  0.91806453  0.67420993  0.16503163  1
  Ca2+  Ca46  1  0.92223582  0.66632585  0.49831696  1
  Ca2+  Ca47  1  0.92489840  0.66157426  0.82197518  1
  Al0+  Al48  1  -0.00096422  0.00072770  0.00427681  1
  Al0+  Al49  1  0.00054259  0.00015114  0.33397828  1
  Al0+  Al50  1  -0.00316021  0.00186789  0.66560886  1
  Al0+  Al51  1  0.00057382  0.50178802  0.00058694  1
  Al0+  Al52  1  0.00120447  0.50054453  0.33171549  1
  Al0+  Al53  1  -0.00150868  0.50191441  0.66581559  1
  Al0+  Al54  1  0.50007773  -0.00028601  -0.00225342  1
  Al0+  Al55  1  0.50180292  -0.00012723  0.33424883  1
  Al0+  Al56  1  0.49886167  0.00033806  0.67231592  1
  Al0+  Al57  1  0.50216662  0.50114913  0.00118675  1
  Al0+  Al58  1  0.50223243  0.49983812  0.33587858  1
  Al0+  Al59  1  0.49945523  0.50152772  0.66190275  1
  Al0+  Al60  1  0.24887260  0.24791208  -0.00180549  1
  Al0+  Al61  1  0.25032416  0.25006225  0.32893151  1
  Al0+  Al62  1  0.24653600  0.24778707  0.67050367  1
  Al0+  Al63  1  0.25014689  0.75040187  0.00184588  1
  Al0+  Al64  1  0.25098377  0.74894240  0.34115934  1
  Al0+  Al65  1  0.24814554  0.74817857  0.66337285  1
  Al0+  Al66  1  0.75228402  0.24941808  0.00308856  1
  Al0+  Al67  1  0.74999444  0.24898061  0.33904463  1
  Al0+  Al68  1  0.74972578  0.24733091  0.66123194  1
  Al0+  Al69  1  0.75025516  0.75076637  -0.00031499  1
  Al0+  Al70  1  0.75114206  0.75092184  0.32890177  1
  Al0+  Al71  1  0.74838859  0.75083804  0.67295363  1
  Al0+  Al72  1  0.17829933  0.92918895  0.34830111  1
  Al0+  Al73  1  0.18095317  0.92989192  0.01150745  1
  Al0+  Al74  1  0.68011960  0.42804632  0.34882469  1
  Al0+  Al75  1  0.57123311  0.17748927  0.65107046  1
  Al0+  Al76  1  0.07115304  0.67881655  0.65172805  1
  Al0+  Al77  1  0.67964356  0.92903245  0.34600489  1
  Al0+  Al78  1  0.81910560  0.06926410  0.01356231  1
  Al0+  Al79  1  0.93037619  0.82009573  0.31891877  1
  Al0+  Al80  1  0.42857947  0.32195038  0.98609628  1
  Al0+  Al81  1  0.32246091  0.57069700  0.35056317  1
  Al0+  Al82  1  0.32199593  0.56981591  0.01486439  1
  Al0+  Al83  1  0.93025635  0.32123592  0.98686817  1
  Al0+  Al84  1  0.81919181  0.57011207  0.67898225  1
  Al0+  Al85  1  0.42824994  0.82024756  0.98713726  1
  Al0+  Al86  1  0.67916276  0.92986214  0.68187694  1
  Al0+  Al87  1  0.42669113  0.32152009  0.65120968  1
  Al0+  Al88  1  0.68134815  0.43052775  0.01075557  1
  Al0+  Al89  1  0.17848190  0.42824735  0.68233000  1
  Al0+  Al90  1  0.32337236  0.57125518  0.68351908  1
  Al0+  Al91  1  0.17775987  0.42713591  0.01534745  1
  Al0+  Al92  1  0.31948424  0.06945811  0.68022416  1
  Al0+  Al93  1  0.57118463  0.68076654  0.65285359  1
  Al0+  Al94  1  0.17811937  0.42723350  0.34788643  1
  Al0+  Al95  1  0.43088949  0.32045469  0.31789880  1
  Si0+  Si96  1  0.92765442  0.32144453  0.31916154  1
  Si0+  Si97  1  0.67810425  0.42605990  0.68172334  1
  Si0+  Si98  1  0.57376738  0.67837828  0.98310295  1
  Si0+  Si99  1  0.42718202  0.82256744  0.64960287  1
  Si0+  Si100  1  0.07070293  0.17906120  0.31736147  1
  Si0+  Si101  1  0.57325551  0.17596269  0.31561451  1
  Si0+  Si102  1  0.67656415  0.92649253  0.01772354  1
  Si0+  Si103  1  0.57287924  0.17834543  0.98494520  1
  Si0+  Si104  1  0.07111929  0.17534637  0.98227779  1
  Si0+  Si105  1  0.82185377  0.57280240  0.34756267  1
  Si0+  Si106  1  0.42865862  0.82275012  0.32020591  1
  Si0+  Si107  1  0.57176973  0.67998097  0.31756983  1
  Si0+  Si108  1  0.32210267  0.07197837  0.34768192  1
  Si0+  Si109  1  0.32457828  0.07256143  0.01756459  1
  Si0+  Si110  1  0.06927014  0.68151513  0.98550531  1
  Si0+  Si111  1  0.92776281  0.82358779  0.98387311  1
  Si0+  Si112  1  0.92882538  0.32159917  0.65099143  1
  Si0+  Si113  1  0.82258424  0.07171287  0.35213043  1
  Si0+  Si114  1  0.82375683  0.07425383  0.68417311  1
  Si0+  Si115  1  0.07443225  0.67813759  0.31421578  1
  Si0+  Si116  1  0.17533444  0.92738485  0.68111163  1
  Si0+  Si117  1  0.92803396  0.82308126  0.65166391  1
  Si0+  Si118  1  0.82436506  0.57471353  0.01743145  1
  Si0+  Si119  1  0.06943218  0.17694386  0.65122387  1
  O2-  O120  1  0.25639668  0.00274558  0.06092351  1
  O2-  O121  1  0.25506808  0.00198403  0.39310975  1
  O2-  O122  1  0.24688443  -0.00821112  0.72621218  1
  O2-  O123  1  0.25579664  0.49232010  0.06502549  1
  O2-  O124  1  0.24969777  0.49839011  0.39817427  1
  O2-  O125  1  0.25394410  0.49628136  0.73231227  1
  O2-  O126  1  0.74581708  -0.00578481  0.06179912  1
  O2-  O127  1  0.75342387  0.00346685  0.39511935  1
  O2-  O128  1  0.75230837  0.00754787  0.72611631  1
  O2-  O129  1  0.75564252  0.50567351  0.05999510  1
  O2-  O130  1  0.75722911  0.50134058  0.39302713  1
  O2-  O131  1  0.74608426  0.49479028  0.72679741  1
  O2-  O132  1  0.00021075  0.25176366  0.27684225  1
  O2-  O133  1  0.00065394  0.25070424  0.60940419  1
  O2-  O134  1  0.00886775  0.25078511  0.93878691  1
  O2-  O135  1  0.00699321  0.74863892  0.26935323  1
  O2-  O136  1  -0.00088290  0.75766803  0.60677424  1
  O2-  O137  1  -0.00473171  0.74991979  0.94176324  1
  O2-  O138  1  0.50717548  0.24634576  0.27078578  1
  O2-  O139  1  0.50169337  0.25151830  0.60100475  1
  O2-  O140  1  0.50165817  0.24423370  0.94125401  1
  O2-  O141  1  0.49798715  0.74972429  0.27789773  1
  O2-  O142  1  0.49369971  0.75218185  0.60438604  1
  O2-  O143  1  0.50528734  0.74816078  0.94072882  1
  O2-  O144  1  0.06697426  0.17092558  0.08805081  1
  O2-  O145  1  0.06931293  0.17719156  0.42269431  1
  O2-  O146  1  0.06607063  0.17019810  0.75564417  1
  O2-  O147  1  0.06725308  0.68438357  0.09064475  1
  O2-  O148  1  0.07107288  0.67830022  0.41968003  1
  O2-  O149  1  0.06897354  0.68051675  0.76539536  1
  O2-  O150  1  0.57256045  0.17773330  0.09083114  1
  O2-  O151  1  0.57096622  0.17357214  0.42066259  1
  O2-  O152  1  0.57175454  0.18059991  0.76503659  1
  O2-  O153  1  0.57653265  0.67964791  0.08903068  1
  O2-  O154  1  0.57532812  0.68161568  0.42252231  1
  O2-  O155  1  0.57366174  0.68394679  0.76583898  1
  O2-  O156  1  0.17731047  0.42794563  0.23459424  1
  O2-  O157  1  0.17762537  0.42922808  0.56871109  1
  O2-  O158  1  0.17474301  0.43383764  0.90246817  1
  O2-  O159  1  0.17844537  0.93096917  0.23496171  1
  O2-  O160  1  0.17414387  0.93148875  0.57545529  1
  O2-  O161  1  0.18014190  0.93111082  0.89842867  1
  O2-  O162  1  0.68080419  0.42890081  0.23540196  1
  O2-  O163  1  0.68189366  0.42724641  0.57592269  1
  O2-  O164  1  0.68300573  0.43162597  0.89776346  1
  O2-  O165  1  0.68060143  0.93064473  0.23282581  1
  O2-  O166  1  0.68216486  0.92816121  0.56857129  1
  O2-  O167  1  0.67794340  0.92573902  0.91234463  1
  O2-  O168  1  0.43130619  0.32173734  0.09957614  1
  O2-  O169  1  0.42902331  0.31797511  0.43048819  1
  O2-  O170  1  0.42830072  0.32057983  0.76508025  1
  O2-  O171  1  0.42928126  0.81924843  0.10099344  1
  O2-  O172  1  0.43075864  0.82695953  0.42490292  1
  O2-  O173  1  0.42883306  0.82277334  0.75540564  1
  O2-  O174  1  0.92853676  0.31701544  0.10031054  1
  O2-  O175  1  0.92692133  0.31973375  0.42445359  1
  O2-  O176  1  0.92713592  0.32064728  0.75604090  1
  O2-  O177  1  0.92786157  0.82347969  0.08909187  1
  O2-  O178  1  0.92927305  0.81672628  0.43193760  1
  O2-  O179  1  0.93032656  0.82436497  0.75760630  1
  O2-  O180  1  0.32046369  0.07092961  0.24199017  1
  O2-  O181  1  0.31629312  0.06854764  0.56662014  1
  O2-  O182  1  0.32377555  0.07119617  0.91202749  1
  O2-  O183  1  0.32198414  0.57174339  0.23684109  1
  O2-  O184  1  0.32114608  0.57079272  0.57025551  1
  O2-  O185  1  0.32064710  0.57257213  0.90183430  1
  O2-  O186  1  0.82249349  0.07217681  0.24636265  1
  O2-  O187  1  0.82977282  0.07354897  0.57901310  1
  O2-  O188  1  0.81850951  0.06759848  0.90053603  1
  O2-  O189  1  0.81984304  0.57323338  0.24181377  1
  O2-  O190  1  0.81902119  0.56835932  0.56556292  1
  O2-  O191  1  0.82476635  0.57562030  0.91188561  1
  O2-  O192  1  0.04025654  0.08814765  0.26896327  1
  O2-  O193  1  0.03780958  0.08730374  0.59931346  1
  O2-  O194  1  0.03637655  0.08501576  0.93414202  1
  O2-  O195  1  0.04651093  0.58524777  0.26702805  1
  O2-  O196  1  0.03380856  0.58514090  0.59588935  1
  O2-  O197  1  0.04249431  0.58980110  0.93783028  1
  O2-  O198  1  0.54744023  0.08254885  0.26772371  1
  O2-  O199  1  0.53902980  0.07881632  0.60038553  1
  O2-  O200  1  0.55149638  0.08328305  0.93938005  1
  O2-  O201  1  0.54485800  0.58791089  0.27052589  1
  O2-  O202  1  0.54617599  0.58368968  0.59683171  1
  O2-  O203  1  0.54904536  0.58549861  0.93657220  1
  O2-  O204  1  0.16214665  0.20311240  0.26780072  1
  O2-  O205  1  0.16113203  0.20149742  0.60297851  1
  O2-  O206  1  0.16727441  0.19112662  0.93860301  1
  O2-  O207  1  0.16901931  0.70471495  0.27130983  1
  O2-  O208  1  0.16684533  0.70745545  0.59479921  1
  O2-  O209  1  0.15950417  0.71326561  0.93826952  1
  O2-  O210  1  0.66944882  0.19975450  0.27320898  1
  O2-  O211  1  0.67206800  0.19713147  0.59764158  1
  O2-  O212  1  0.66624652  0.20533349  0.93969342  1
  O2-  O213  1  0.66153798  0.70989130  0.26702564  1
  O2-  O214  1  0.66754842  0.71577713  0.59938607  1
  O2-  O215  1  0.66806459  0.70384063  0.93667562  1
  O2-  O216  1  0.08045222  0.46092089  0.06883158  1
  O2-  O217  1  0.07774966  0.45364845  0.39891240  1
  O2-  O218  1  0.08027009  0.46188815  0.73255122  1
  O2-  O219  1  0.08507015  0.96168459  0.06693734  1
  O2-  O220  1  0.08270668  0.96240172  0.40250243  1
  O2-  O221  1  0.08222881  0.95682719  0.72679798  1
  O2-  O222  1  0.58714033  0.46335949  0.06812038  1
  O2-  O223  1  0.58626760  0.46258038  0.40342240  1
  O2-  O224  1  0.58433604  0.45230786  0.72496069  1
  O2-  O225  1  0.58296135  0.95296203  0.06337110  1
  O2-  O226  1  0.58298808  0.95785107  0.40117005  1
  O2-  O227  1  0.58313860  0.95845267  0.73707273  1
  O2-  O228  1  0.19455644  0.32346864  0.06166464  1
  O2-  O229  1  0.20412744  0.32672996  0.39773434  1
  O2-  O230  1  0.19515610  0.32668546  0.73286545  1
  O2-  O231  1  0.21081559  0.83483722  0.06861644  1
  O2-  O232  1  0.20661786  0.83320884  0.40297551  1
  O2-  O233  1  0.19627490  0.83215235  0.72414068  1
  O2-  O234  1  0.71345365  0.33540105  0.06698574  1
  O2-  O235  1  0.70899817  0.33153713  0.40379073  1
  O2-  O236  1  0.70530761  0.33182669  0.72516073  1
  O2-  O237  1  0.70171081  0.83242145  0.06324966  1
  O2-  O238  1  0.71297213  0.83240226  0.39855659  1
  O2-  O239  1  0.71346930  0.83678437  0.73983739  1
  O2-  O240  1  0.46535658  0.41733321  0.26596495  1
  O2-  O241  1  0.45440092  0.41952618  0.59761436  1
  O2-  O242  1  0.46344644  0.41791678  0.93366382  1
  O2-  O243  1  0.45789192  0.91345419  0.27035033  1
  O2-  O244  1  0.45564513  0.91566580  0.60466161  1
  O2-  O245  1  0.45737007  0.91768206  0.93282528  1
  O2-  O246  1  0.95138384  0.41424641  0.27157430  1
  O2-  O247  1  0.95551392  0.41274078  0.60246469  1
  O2-  O248  1  0.95562281  0.42034257  0.93409590  1
  O2-  O249  1  0.95898008  0.91862211  0.26641220  1
  O2-  O250  1  0.94857973  0.91797919  0.60502498  1
  O2-  O251  1  0.95823084  0.91446665  0.93688082  1
  O2-  O252  1  0.33466661  0.28827687  0.26273808  1
  O2-  O253  1  0.32813377  0.28693498  0.60137075  1
  O2-  O254  1  0.33083273  0.29238661  0.93375549  1
  O2-  O255  1  0.33556058  0.79517337  0.27480795  1
  O2-  O256  1  0.33189303  0.80212735  0.60480259  1
  O2-  O257  1  0.33183500  0.79055633  0.93244748  1
  O2-  O258  1  0.83579714  0.29065296  0.27261595  1
  O2-  O259  1  0.83834875  0.29224320  0.60099991  1
  O2-  O260  1  0.83533962  0.28538968  0.93204367  1
  O2-  O261  1  0.83511930  0.78834446  0.26113956  1
  O2-  O262  1  0.83524752  0.79287585  0.60765373  1
  O2-  O263  1  0.83405311  0.79952820  0.93777050  1
  O2-  O264  1  0.41886285  0.04861343  0.06293548  1
  O2-  O265  1  0.41587448  0.04721418  0.39323905  1
  O2-  O266  1  0.41458525  0.04090656  0.73729099  1
  O2-  O267  1  0.42261545  0.54862035  0.06639975  1
  O2-  O268  1  0.42133196  0.54279535  0.40109191  1
  O2-  O269  1  0.42435959  0.54796425  0.73349870  1
  O2-  O270  1  0.91447811  0.03846395  0.07016331  1
  O2-  O271  1  0.91619167  0.04608332  0.39760507  1
  O2-  O272  1  0.91564963  0.04607198  0.73327897  1
  O2-  O273  1  0.91727529  0.55074371  0.06444029  1
  O2-  O274  1  0.91713213  0.55090097  0.39135588  1
  O2-  O275  1  0.91448121  0.53851239  0.73410891  1
  O2-  O276  1  0.29656841  0.16501187  0.06420901  1
  O2-  O277  1  0.29262554  0.16400009  0.39354082  1
  O2-  O278  1  0.28412269  0.16261343  0.73711954  1
  O2-  O279  1  0.28758811  0.66650969  0.06825226  1
  O2-  O280  1  0.29703444  0.66903087  0.40478087  1
  O2-  O281  1  0.29221581  0.67106127  0.73311354  1
  O2-  O282  1  0.78970679  0.16459241  0.07058676  1
  O2-  O283  1  0.79942198  0.16504185  0.39951230  1
  O2-  O284  1  0.79916565  0.16852670  0.72965182  1
  O2-  O285  1  0.79856876  0.66907945  0.06320550  1
  O2-  O286  1  0.79256073  0.66504085  0.39355203  1
  O2-  O287  1  0.79009489  0.66542684  0.73591923  1
