# generated using pymatgen
data_Ca2Al2SiO7
_symmetry_space_group_name_H-M   'P 1'
_cell_length_a   15.46240591
_cell_length_b   15.46140505
_cell_length_c   15.28521639
_cell_angle_alpha   89.99281926
_cell_angle_beta   90.00471572
_cell_angle_gamma   90.00592702
_symmetry_Int_Tables_number   1
_chemical_formula_structural   Ca2Al2SiO7
_chemical_formula_sum   'Ca48 Al48 Si24 O168'
_cell_volume   3654.24458210
_cell_formula_units_Z   24
loop_
 _symmetry_equiv_pos_site_id
 _symmetry_equiv_pos_as_xyz
  1  'x, y, z'
loop_
 _atom_type_symbol
 _atom_type_oxidation_number
  Ca2+  2.0
  Al0+  0.0
  Si0+  0.0
  O2-  -2.0
loop_
 _atom_site_type_symbol
 _atom_site_label
 _atom_site_symmetry_multiplicity
 _atom_site_fract_x
 _atom_site_fract_y
 _atom_site_fract_z
 _atom_site_occupancy
  Ca2+  Ca0  1  0.16080723  0.07787956  0.17137084  1
  Ca2+  Ca1  1  0.16271144  0.07984148  0.50445399  1
  Ca2+  Ca2  1  0.16227341  0.07013178  0.83733324  1
  Ca2+  Ca3  1  0.17455395  0.58957507  0.17115033  1
  Ca2+  Ca4  1  0.17481853  0.57950646  0.50386154  1
  Ca2+  Ca5  1  0.17519900  0.58149589  0.83812235  1
  Ca2+  Ca6  1  0.66442042  0.07912554  0.17529019  1
  Ca2+  Ca7  1  0.67072550  0.07941642  0.50203684  1
  Ca2+  Ca8  1  0.66858743  0.07594357  0.83851011  1
  Ca2+  Ca9  1  0.67311731  0.58835374  0.16701726  1
  Ca2+  Ca10  1  0.67466009  0.57916222  0.50684360  1
  Ca2+  Ca11  1  0.67985933  0.58631023  0.84197588  1
  Ca2+  Ca12  1  0.07304578  0.32824152  0.16468024  1
  Ca2+  Ca13  1  0.07499626  0.33222692  0.49359164  1
  Ca2+  Ca14  1  0.07466971  0.33876507  0.82723976  1
  Ca2+  Ca15  1  0.08559846  0.82274387  0.16046782  1
  Ca2+  Ca16  1  0.08448025  0.82768990  0.49329561  1
  Ca2+  Ca17  1  0.09112322  0.82906212  0.83152731  1
  Ca2+  Ca18  1  0.58274429  0.32226431  0.16522965  1
  Ca2+  Ca19  1  0.57706771  0.32717098  0.48923883  1
  Ca2+  Ca20  1  0.58525000  0.32713453  0.83269032  1
  Ca2+  Ca21  1  0.57942819  0.83571222  0.16059829  1
  Ca2+  Ca22  1  0.58008020  0.83685675  0.49422468  1
  Ca2+  Ca23  1  0.59236269  0.82963745  0.83206529  1
  Ca2+  Ca24  1  0.33920265  0.42831053  0.17448897  1
  Ca2+  Ca25  1  0.33047694  0.42516067  0.50692168  1
  Ca2+  Ca26  1  0.32736962  0.42480594  0.83804944  1
  Ca2+  Ca27  1  0.32944812  0.91143540  0.16878890  1
  Ca2+  Ca28  1  0.32905129  0.91566076  0.50211728  1
  Ca2+  Ca29  1  0.32198660  0.91374361  0.83582203  1
  Ca2+  Ca30  1  0.84045912  0.41675976  0.16579978  1
  Ca2+  Ca31  1  0.83937687  0.41726460  0.50444669  1
  Ca2+  Ca32  1  0.84282288  0.42391235  0.83626124  1
  Ca2+  Ca33  1  0.81801062  0.92167152  0.17649897  1
  Ca2+  Ca34  1  0.82434164  0.93029867  0.50560634  1
  Ca2+  Ca35  1  0.82475735  0.92213344  0.83793379  1
  Ca2+  Ca36  1  0.42812168  0.16726859  0.16384387  1
  Ca2+  Ca37  1  0.42151085  0.17482317  0.48748524  1
  Ca2+  Ca38  1  0.42501221  0.16047847  0.83204961  1
  Ca2+  Ca39  1  0.41903208  0.66860586  0.16218619  1
  Ca2+  Ca40  1  0.41117798  0.67127851  0.49226485  1
  Ca2+  Ca41  1  0.41926368  0.66031615  0.83366482  1
  Ca2+  Ca42  1  0.90910511  0.17597953  0.16659850  1
  Ca2+  Ca43  1  0.91513777  0.17242849  0.49205019  1
  Ca2+  Ca44  1  0.91100519  0.17811104  0.82664093  1
  Ca2+  Ca45  1  0.92978117  0.66240591  0.15822829  1
  Ca2+  Ca46  1  0.92364614  0.66596227  0.49483316  1
  Ca2+  Ca47  1  0.92046533  0.66110547  0.83028423  1
  Al0+  Al48  1  -0.00139675  0.00021341  0.00630231  1
  Al0+  Al49  1  -0.00263764  -0.00127035  0.33479775  1
  Al0+  Al50  1  -0.00127117  -0.00068108  0.67484054  1
  Al0+  Al51  1  0.00188418  0.50041326  -0.00412784  1
  Al0+  Al52  1  0.00270094  0.50000794  0.32591422  1
  Al0+  Al53  1  0.00191357  0.49946003  0.66712974  1
  Al0+  Al54  1  0.49793369  0.00020934  -0.00279910  1
  Al0+  Al55  1  0.49597904  -0.00163226  0.32995375  1
  Al0+  Al56  1  0.49959394  -0.00288876  0.66806276  1
  Al0+  Al57  1  0.50085443  0.50037364  -0.00063243  1
  Al0+  Al58  1  0.50161435  0.50279887  0.33596046  1
  Al0+  Al59  1  0.50227077  0.50017692  0.66886001  1
  Al0+  Al60  1  0.24883952  0.24960183  -0.00091492  1
  Al0+  Al61  1  0.24717186  0.25127570  0.32515009  1
  Al0+  Al62  1  0.25076416  0.24981566  0.67103205  1
  Al0+  Al63  1  0.24990828  0.74964109  0.00267469  1
  Al0+  Al64  1  0.25148593  0.74927215  0.33007860  1
  Al0+  Al65  1  0.25222988  0.74995209  0.67204977  1
  Al0+  Al66  1  0.74895347  0.25135089  -0.01028570  1
  Al0+  Al67  1  0.74934778  0.25152285  0.32972894  1
  Al0+  Al68  1  0.74983161  0.24987565  0.66364780  1
  Al0+  Al69  1  0.75049111  0.75062211  0.00626020  1
  Al0+  Al70  1  0.74985403  0.74978985  0.33994923  1
  Al0+  Al71  1  0.75154283  0.74939594  0.66982263  1
  Al0+  Al72  1  0.67863172  0.93002310  0.01520033  1
  Al0+  Al73  1  0.07092074  0.17489734  0.31901515  1
  Al0+  Al74  1  0.17875291  0.92976442  0.01640894  1
  Al0+  Al75  1  0.42956547  0.81966177  0.32013110  1
  Al0+  Al76  1  0.82142318  0.56928022  0.67850605  1
  Al0+  Al77  1  0.67438294  0.92837515  0.34963542  1
  Al0+  Al78  1  0.67771410  0.92934504  0.68302730  1
  Al0+  Al79  1  0.57231174  0.67977009  0.98684453  1
  Al0+  Al80  1  0.93085625  0.32101464  0.65119401  1
  Al0+  Al81  1  0.17880237  0.92956912  0.67796183  1
  Al0+  Al82  1  0.82227185  0.56967832  0.01490704  1
  Al0+  Al83  1  0.56888439  0.17855043  0.98369767  1
  Al0+  Al84  1  0.07173651  0.68139818  0.98316389  1
  Al0+  Al85  1  0.92849063  0.32135142  0.31733410  1
  Al0+  Al86  1  0.32139754  0.57079519  0.34738162  1
  Al0+  Al87  1  0.07015410  0.68125398  0.32075720  1
  Al0+  Al88  1  0.32296924  0.57157377  0.68285760  1
  Al0+  Al89  1  0.93131430  0.31923449  0.98299945  1
  Al0+  Al90  1  0.42711888  0.32541218  0.31962883  1
  Al0+  Al91  1  0.17958293  0.42762693  0.68096850  1
  Al0+  Al92  1  0.82044033  0.07346505  0.68326343  1
  Al0+  Al93  1  0.32144387  0.56851929  0.01627404  1
  Al0+  Al94  1  0.82002200  0.07301541  0.34822065  1
  Al0+  Al95  1  0.56897289  0.17921824  0.31979799  1
  Si0+  Si96  1  0.56874988  0.17765867  0.65070678  1
  Si0+  Si97  1  0.81956480  0.07522158  0.01699460  1
  Si0+  Si98  1  0.57508212  0.67818183  0.31877357  1
  Si0+  Si99  1  0.92807444  0.82181713  0.65224849  1
  Si0+  Si100  1  0.92778562  0.82264541  0.98428883  1
  Si0+  Si101  1  0.07257475  0.68092697  0.65167457  1
  Si0+  Si102  1  0.67746047  0.42712067  0.68285093  1
  Si0+  Si103  1  0.67857512  0.42690440  0.01650629  1
  Si0+  Si104  1  0.32282818  0.07261330  0.68172744  1
  Si0+  Si105  1  0.42683278  0.32314291  0.98197392  1
  Si0+  Si106  1  0.17757566  0.42665062  0.01874220  1
  Si0+  Si107  1  0.32148289  0.07291241  0.01750327  1
  Si0+  Si108  1  0.42871539  0.32190278  0.65303577  1
  Si0+  Si109  1  0.07283408  0.17527041  0.65271637  1
  Si0+  Si110  1  0.92567197  0.82143981  0.31830983  1
  Si0+  Si111  1  0.17915928  0.92855412  0.34715371  1
  Si0+  Si112  1  0.67974499  0.43046788  0.34729560  1
  Si0+  Si113  1  0.17726894  0.42754218  0.34815143  1
  Si0+  Si114  1  0.57397493  0.67874388  0.65171169  1
  Si0+  Si115  1  0.82458000  0.57006668  0.34744106  1
  Si0+  Si116  1  0.31880854  0.07305510  0.34585957  1
  Si0+  Si117  1  0.42879795  0.81868440  0.65178086  1
  Si0+  Si118  1  0.42804418  0.82098379  0.98081638  1
  Si0+  Si119  1  0.07298130  0.17508320  0.98160907  1
  O2-  O120  1  0.25051968  0.00731115  0.06264602  1
  O2-  O121  1  0.24474758  0.00503870  0.38905274  1
  O2-  O122  1  0.24997686  0.00773819  0.72455336  1
  O2-  O123  1  0.24915354  0.49183082  0.06347574  1
  O2-  O124  1  0.25013738  0.49215109  0.39258370  1
  O2-  O125  1  0.25207513  0.49855056  0.73185847  1
  O2-  O126  1  0.75171134  0.00611926  0.06138255  1
  O2-  O127  1  0.74661205  0.00139240  0.39737837  1
  O2-  O128  1  0.74831463  0.00188191  0.73342489  1
  O2-  O129  1  0.74646375  0.49597725  0.06174885  1
  O2-  O130  1  0.75326504  0.49937695  0.38953491  1
  O2-  O131  1  0.74745996  0.49453454  0.72613742  1
  O2-  O132  1  -0.00258100  0.24537109  0.26913897  1
  O2-  O133  1  0.00503442  0.24406152  0.60748341  1
  O2-  O134  1  0.00557047  0.24377777  0.93624819  1
  O2-  O135  1  -0.00661503  0.75300146  0.27283524  1
  O2-  O136  1  0.00109462  0.75204223  0.60970500  1
  O2-  O137  1  -0.00284198  0.75643106  0.93623366  1
  O2-  O138  1  0.49650805  0.25110972  0.26959890  1
  O2-  O139  1  0.49806861  0.24975652  0.60968063  1
  O2-  O140  1  0.49282098  0.25230988  0.93637617  1
  O2-  O141  1  0.50882946  0.74926591  0.27547178  1
  O2-  O142  1  0.50082117  0.74806288  0.61001214  1
  O2-  O143  1  0.49910355  0.75464126  0.93675080  1
  O2-  O144  1  0.07303334  0.17584120  0.08687546  1
  O2-  O145  1  0.07282574  0.17578783  0.43300992  1
  O2-  O146  1  0.07252945  0.17500024  0.75816786  1
  O2-  O147  1  0.07170867  0.68237099  0.09637209  1
  O2-  O148  1  0.06980181  0.68234516  0.43465849  1
  O2-  O149  1  0.07293389  0.68230222  0.75664344  1
  O2-  O150  1  0.56852130  0.17928252  0.09638161  1
  O2-  O151  1  0.56668463  0.18139325  0.43403253  1
  O2-  O152  1  0.56665620  0.17773319  0.75590393  1
  O2-  O153  1  0.57117870  0.68111675  0.09992764  1
  O2-  O154  1  0.57523280  0.67630557  0.42474096  1
  O2-  O155  1  0.57519505  0.67937482  0.75660354  1
  O2-  O156  1  0.17514234  0.43091399  0.24287326  1
  O2-  O157  1  0.18107413  0.42841905  0.56711501  1
  O2-  O158  1  0.17916277  0.42812891  0.91290771  1
  O2-  O159  1  0.18179006  0.92713876  0.24236740  1
  O2-  O160  1  0.18179176  0.92775664  0.56451910  1
  O2-  O161  1  0.18172279  0.92996222  0.90296895  1
  O2-  O162  1  0.67759406  0.43210791  0.24249749  1
  O2-  O163  1  0.67428654  0.42956394  0.57694325  1
  O2-  O164  1  0.67906611  0.42764356  0.91064769  1
  O2-  O165  1  0.67574167  0.92783053  0.23601613  1
  O2-  O166  1  0.67559732  0.93136487  0.56977118  1
  O2-  O167  1  0.68133900  0.93062778  0.90213556  1
  O2-  O168  1  0.42895337  0.32276121  0.08726010  1
  O2-  O169  1  0.42980883  0.32322935  0.43416822  1
  O2-  O170  1  0.43083403  0.32120413  0.75799796  1
  O2-  O171  1  0.42811807  0.82031454  0.08652207  1
  O2-  O172  1  0.42593695  0.81793282  0.43380222  1
  O2-  O173  1  0.42687605  0.81956258  0.75644271  1
  O2-  O174  1  0.93109561  0.31786484  0.09583183  1
  O2-  O175  1  0.93145958  0.32460039  0.43095347  1
  O2-  O176  1  0.93217241  0.32173366  0.76408372  1
  O2-  O177  1  0.93007101  0.81981460  0.08990692  1
  O2-  O178  1  0.92821038  0.81954345  0.42440209  1
  O2-  O179  1  0.92723620  0.81999306  0.75718524  1
  O2-  O180  1  0.32011748  0.07044366  0.24109533  1
  O2-  O181  1  0.32482131  0.07249542  0.57598290  1
  O2-  O182  1  0.32177463  0.07101386  0.91147276  1
  O2-  O183  1  0.32016781  0.57223768  0.23455084  1
  O2-  O184  1  0.32094665  0.57262949  0.56905957  1
  O2-  O185  1  0.32065051  0.56703185  0.90316322  1
  O2-  O186  1  0.81795527  0.07112535  0.23451941  1
  O2-  O187  1  0.81924815  0.07296800  0.56988599  1
  O2-  O188  1  0.81866256  0.07396941  0.91131829  1
  O2-  O189  1  0.82363802  0.57100064  0.24260141  1
  O2-  O190  1  0.82019985  0.56957900  0.56479141  1
  O2-  O191  1  0.82170475  0.56861118  0.90164533  1
  O2-  O192  1  0.04567375  0.07489902  0.26738011  1
  O2-  O193  1  0.04796329  0.08036695  0.60818820  1
  O2-  O194  1  0.04669595  0.08018408  0.93811873  1
  O2-  O195  1  0.04215479  0.58597729  0.26414543  1
  O2-  O196  1  0.04423973  0.58943327  0.60458596  1
  O2-  O197  1  0.04138019  0.58494939  0.92955654  1
  O2-  O198  1  0.53832877  0.08210667  0.26659709  1
  O2-  O199  1  0.53934006  0.08569123  0.60474630  1
  O2-  O200  1  0.53542370  0.08300470  0.92788651  1
  O2-  O201  1  0.54802029  0.58608024  0.27159731  1
  O2-  O202  1  0.54915277  0.58523228  0.60524868  1
  O2-  O203  1  0.54300968  0.58257131  0.93230708  1
  O2-  O204  1  0.16780260  0.20197705  0.26193281  1
  O2-  O205  1  0.16872724  0.19803353  0.60882396  1
  O2-  O206  1  0.16812566  0.19732092  0.93613520  1
  O2-  O207  1  0.16439466  0.71569391  0.26565719  1
  O2-  O208  1  0.16470406  0.71082649  0.60560216  1
  O2-  O209  1  0.16830937  0.71434703  0.93020048  1
  O2-  O210  1  0.66565241  0.20929314  0.26580961  1
  O2-  O211  1  0.66023986  0.20554993  0.60373433  1
  O2-  O212  1  0.66301987  0.21118002  0.92625983  1
  O2-  O213  1  0.67034879  0.70010816  0.27428711  1
  O2-  O214  1  0.66510875  0.70734071  0.60281251  1
  O2-  O215  1  0.67000539  0.71094575  0.93423377  1
  O2-  O216  1  0.08519671  0.45628453  0.06328929  1
  O2-  O217  1  0.08567324  0.45966675  0.39542927  1
  O2-  O218  1  0.08315257  0.45939531  0.73462393  1
  O2-  O219  1  0.08116689  0.95631508  0.07085434  1
  O2-  O220  1  0.08549986  0.94917108  0.39419123  1
  O2-  O221  1  0.08313125  0.95423670  0.73615917  1
  O2-  O222  1  0.58457101  0.45052618  0.06167397  1
  O2-  O223  1  0.59033864  0.46072014  0.39894098  1
  O2-  O224  1  0.58525874  0.45249320  0.73154679  1
  O2-  O225  1  0.57921044  0.95888399  0.06406620  1
  O2-  O226  1  0.57447315  0.95577635  0.40032548  1
  O2-  O227  1  0.57834612  0.95485667  0.73578324  1
  O2-  O228  1  0.19784631  0.33034301  0.06182753  1
  O2-  O229  1  0.19670383  0.33152960  0.39196660  1
  O2-  O230  1  0.20544452  0.32922947  0.73632910  1
  O2-  O231  1  0.21356761  0.83473151  0.07012285  1
  O2-  O232  1  0.21385041  0.83938423  0.39542425  1
  O2-  O233  1  0.21478989  0.83635708  0.73479640  1
  O2-  O234  1  0.70670590  0.33314130  0.06051816  1
  O2-  O235  1  0.70487741  0.33839481  0.39522558  1
  O2-  O236  1  0.70081415  0.33278463  0.72702439  1
  O2-  O237  1  0.70928257  0.83470984  0.07105237  1
  O2-  O238  1  0.70300774  0.82970526  0.40361517  1
  O2-  O239  1  0.70845585  0.83106982  0.73408601  1
  O2-  O240  1  0.46079698  0.42257206  0.26794836  1
  O2-  O241  1  0.45798362  0.41371654  0.60571253  1
  O2-  O242  1  0.45567693  0.41513372  0.93458625  1
  O2-  O243  1  0.45287246  0.91644950  0.26353450  1
  O2-  O244  1  0.45501587  0.91130465  0.60394470  1
  O2-  O245  1  0.44871365  0.91579635  0.93532539  1
  O2-  O246  1  0.96051246  0.41756118  0.26188701  1
  O2-  O247  1  0.96298796  0.41786132  0.59717920  1
  O2-  O248  1  0.96424518  0.41549531  0.92972631  1
  O2-  O249  1  0.94959278  0.91469619  0.27234129  1
  O2-  O250  1  0.95598824  0.91445221  0.60650450  1
  O2-  O251  1  0.95088377  0.91833524  0.94090086  1
  O2-  O252  1  0.32828568  0.30314684  0.26657305  1
  O2-  O253  1  0.33601926  0.29568375  0.60645380  1
  O2-  O254  1  0.33166054  0.29988346  0.93723018  1
  O2-  O255  1  0.33598863  0.78523973  0.26304132  1
  O2-  O256  1  0.33745643  0.78965332  0.60305335  1
  O2-  O257  1  0.33544222  0.79129448  0.93546215  1
  O2-  O258  1  0.82938843  0.29783373  0.26380142  1
  O2-  O259  1  0.83198515  0.29412256  0.59862427  1
  O2-  O260  1  0.83450840  0.29204971  0.92730379  1
  O2-  O261  1  0.83129098  0.79601824  0.27420913  1
  O2-  O262  1  0.83760237  0.79139239  0.60331772  1
  O2-  O263  1  0.83442040  0.79550393  0.93941971  1
  O2-  O264  1  0.41376186  0.04374113  0.06356885  1
  O2-  O265  1  0.40830853  0.04169341  0.39569027  1
  O2-  O266  1  0.41318469  0.04021958  0.73034699  1
  O2-  O267  1  0.41977291  0.54017894  0.06851940  1
  O2-  O268  1  0.41955410  0.54567357  0.40198472  1
  O2-  O269  1  0.42255997  0.54445802  0.73385621  1
  O2-  O270  1  0.91394003  0.05291622  0.06248011  1
  O2-  O271  1  0.91807150  0.04262789  0.40249058  1
  O2-  O272  1  0.91785730  0.04573163  0.73797286  1
  O2-  O273  1  0.91940515  0.53720915  0.06670456  1
  O2-  O274  1  0.91672267  0.54143342  0.39372237  1
  O2-  O275  1  0.91798517  0.54037300  0.73213708  1
  O2-  O276  1  0.30068141  0.16852437  0.06136325  1
  O2-  O277  1  0.29479247  0.16676865  0.39195156  1
  O2-  O278  1  0.30408543  0.16645765  0.72974671  1
  O2-  O279  1  0.28932707  0.66530735  0.06808991  1
  O2-  O280  1  0.28518171  0.66633861  0.40107412  1
  O2-  O281  1  0.29399891  0.66851987  0.73712331  1
  O2-  O282  1  0.79118106  0.16947449  0.05924346  1
  O2-  O283  1  0.79302682  0.17296096  0.39910136  1
  O2-  O284  1  0.79014762  0.17197917  0.73460528  1
  O2-  O285  1  0.79246144  0.66552271  0.07037714  1
  O2-  O286  1  0.79838537  0.66144732  0.39707169  1
  O2-  O287  1  0.79124989  0.66487165  0.73375805  1
