# generated using pymatgen
data_Ca2Al2SiO7
_symmetry_space_group_name_H-M   'P 1'
_cell_length_a   15.45605828
_cell_length_b   15.45648515
_cell_length_c   15.28228099
_cell_angle_alpha   89.99557018
_cell_angle_beta   90.00162221
_cell_angle_gamma   89.99177877
_symmetry_Int_Tables_number   1
_chemical_formula_structural   Ca2Al2SiO7
_chemical_formula_sum   'Ca48 Al48 Si24 O168'
_cell_volume   3650.88087400
_cell_formula_units_Z   24
loop_
 _symmetry_equiv_pos_site_id
 _symmetry_equiv_pos_as_xyz
  1  'x, y, z'
loop_
 _atom_type_symbol
 _atom_type_oxidation_number
  Ca2+  2.0
  Al0+  0.0
  Si0+  0.0
  O2-  -2.0
loop_
 _atom_site_type_symbol
 _atom_site_label
 _atom_site_symmetry_multiplicity
 _atom_site_fract_x
 _atom_site_fract_y
 _atom_site_fract_z
 _atom_site_occupancy
  Ca2+  Ca0  1  0.18045813  0.09607037  0.16636326  1
  Ca2+  Ca1  1  0.17699619  0.08800595  0.50726354  1
  Ca2+  Ca2  1  0.17501592  0.09150749  0.83831391  1
  Ca2+  Ca3  1  0.16545385  0.57280513  0.16829890  1
  Ca2+  Ca4  1  0.17110743  0.57683871  0.50780910  1
  Ca2+  Ca5  1  0.16677275  0.58117111  0.83839608  1
  Ca2+  Ca6  1  0.65198058  0.07574972  0.16879924  1
  Ca2+  Ca7  1  0.66576160  0.08029751  0.50365342  1
  Ca2+  Ca8  1  0.67160526  0.08296861  0.84046287  1
  Ca2+  Ca9  1  0.66280172  0.57255447  0.16698986  1
  Ca2+  Ca10  1  0.67213082  0.58060001  0.51206902  1
  Ca2+  Ca11  1  0.66938039  0.58115970  0.83601332  1
  Ca2+  Ca12  1  0.08258663  0.33524594  0.16181541  1
  Ca2+  Ca13  1  0.07407741  0.33417004  0.49824895  1
  Ca2+  Ca14  1  0.08396807  0.32475318  0.82986772  1
  Ca2+  Ca15  1  0.08406509  0.82516941  0.15777106  1
  Ca2+  Ca16  1  0.08566954  0.82635596  0.50186761  1
  Ca2+  Ca17  1  0.08761825  0.82030424  0.82762582  1
  Ca2+  Ca18  1  0.57297281  0.32250404  0.15703333  1
  Ca2+  Ca19  1  0.57404609  0.32410940  0.48863507  1
  Ca2+  Ca20  1  0.58116351  0.33354317  0.83478386  1
  Ca2+  Ca21  1  0.58223986  0.83767751  0.15940519  1
  Ca2+  Ca22  1  0.58284507  0.83115356  0.50075147  1
  Ca2+  Ca23  1  0.57446128  0.83486216  0.82973634  1
  Ca2+  Ca24  1  0.32326531  0.40284034  0.16889900  1
  Ca2+  Ca25  1  0.32754395  0.41532091  0.50430766  1
  Ca2+  Ca26  1  0.33013267  0.42267948  0.84148447  1
  Ca2+  Ca27  1  0.34203516  0.93083127  0.16660863  1
  Ca2+  Ca28  1  0.33694672  0.92829962  0.50692734  1
  Ca2+  Ca29  1  0.34179101  0.92495477  0.83701817  1
  Ca2+  Ca30  1  0.82883451  0.41182560  0.16760399  1
  Ca2+  Ca31  1  0.83502171  0.41503275  0.50787213  1
  Ca2+  Ca32  1  0.83145629  0.41785494  0.83447138  1
  Ca2+  Ca33  1  0.82052015  0.91970103  0.17159510  1
  Ca2+  Ca34  1  0.82656794  0.92440347  0.50721656  1
  Ca2+  Ca35  1  0.82834827  0.92243554  0.83793151  1
  Ca2+  Ca36  1  0.41935637  0.17022704  0.16127504  1
  Ca2+  Ca37  1  0.41658435  0.16652988  0.49221068  1
  Ca2+  Ca38  1  0.41641093  0.16704330  0.83464703  1
  Ca2+  Ca39  1  0.41532613  0.67860353  0.15772608  1
  Ca2+  Ca40  1  0.41605646  0.66943222  0.50407845  1
  Ca2+  Ca41  1  0.41834569  0.67841025  0.82121034  1
  Ca2+  Ca42  1  0.92479315  0.17258917  0.16094691  1
  Ca2+  Ca43  1  0.91662935  0.17465192  0.49865813  1
  Ca2+  Ca44  1  0.92763526  0.16897699  0.82192198  1
  Ca2+  Ca45  1  0.92385766  0.66802835  0.16057317  1
  Ca2+  Ca46  1  0.92203294  0.65847225  0.50118358  1
  Ca2+  Ca47  1  0.92655357  0.66086836  0.82747470  1
  Al0+  Al48  1  0.00047240  -0.00001858  -0.00226050  1
  Al0+  Al49  1  -0.00037000  -0.00158349  0.33265604  1
  Al0+  Al50  1  0.00123651  -0.00125186  0.66592319  1
  Al0+  Al51  1  0.00091020  0.50120117  0.00051208  1
  Al0+  Al52  1  0.00097935  0.49910146  0.33229948  1
  Al0+  Al53  1  -0.00180105  0.49899129  0.66402626  1
  Al0+  Al54  1  0.50137711  0.00073112  -0.00098014  1
  Al0+  Al55  1  0.49996645  -0.00239766  0.34100616  1
  Al0+  Al56  1  0.49850564  0.00005175  0.66715347  1
  Al0+  Al57  1  0.50114202  0.50127615  0.00256381  1
  Al0+  Al58  1  0.49947622  0.50121690  0.33042057  1
  Al0+  Al59  1  0.49837444  0.50028067  0.66651939  1
  Al0+  Al60  1  0.24966608  0.25236654  -0.00038693  1
  Al0+  Al61  1  0.24826868  0.25084832  0.34214632  1
  Al0+  Al62  1  0.24967526  0.24897191  0.66781837  1
  Al0+  Al63  1  0.25009236  0.75138848  -0.00739280  1
  Al0+  Al64  1  0.25032183  0.74950778  0.33215331  1
  Al0+  Al65  1  0.25035147  0.75027540  0.65939660  1
  Al0+  Al66  1  0.75023845  0.25149444  0.00186348  1
  Al0+  Al67  1  0.75078854  0.24867755  0.32462907  1
  Al0+  Al68  1  0.74923980  0.24833913  0.66779603  1
  Al0+  Al69  1  0.75160639  0.75167066  0.00490156  1
  Al0+  Al70  1  0.75024340  0.75029839  0.33689040  1
  Al0+  Al71  1  0.74966863  0.74815597  0.66941996  1
  Al0+  Al72  1  0.31944957  0.07017028  0.01311480  1
  Al0+  Al73  1  0.32058188  0.07127044  0.68329196  1
  Al0+  Al74  1  0.92973268  0.32193546  0.31732890  1
  Al0+  Al75  1  0.82173382  0.07156988  0.67970170  1
  Al0+  Al76  1  0.17918488  0.43053456  0.34918720  1
  Al0+  Al77  1  0.06960007  0.67941482  0.98638496  1
  Al0+  Al78  1  0.42976713  0.82269699  0.64838431  1
  Al0+  Al79  1  0.57123048  0.17886884  0.98300805  1
  Al0+  Al80  1  0.56952703  0.17645734  0.31892469  1
  Al0+  Al81  1  0.82119900  0.57024875  0.68055452  1
  Al0+  Al82  1  0.32070713  0.57139391  0.67992275  1
  Al0+  Al83  1  0.67969123  0.92898594  0.34995716  1
  Al0+  Al84  1  0.57192148  0.67745368  0.65226458  1
  Al0+  Al85  1  0.31816113  0.06883418  0.34758137  1
  Al0+  Al86  1  0.42794133  0.32239916  0.98351782  1
  Al0+  Al87  1  0.92793423  0.31909589  0.65272861  1
  Al0+  Al88  1  0.18037346  0.43114797  0.01283607  1
  Al0+  Al89  1  0.07324226  0.17701636  0.64993454  1
  Al0+  Al90  1  0.07030086  0.67830788  0.65122319  1
  Al0+  Al91  1  0.68093329  0.93146739  0.01285499  1
  Al0+  Al92  1  0.43109514  0.82126843  0.98682019  1
  Al0+  Al93  1  0.07087075  0.17955225  0.98735811  1
  Al0+  Al94  1  0.42616000  0.32244599  0.31910906  1
  Al0+  Al95  1  0.67795013  0.42857353  0.01507557  1
  Si0+  Si96  1  0.82243912  0.57161208  0.01814017  1
  Si0+  Si97  1  0.67859331  0.42774127  0.34713370  1
  Si0+  Si98  1  0.57467151  0.67905446  0.31752501  1
  Si0+  Si99  1  0.92674578  0.82203231  0.65006133  1
  Si0+  Si100  1  0.67861240  0.92837194  0.68457499  1
  Si0+  Si101  1  0.67615793  0.42663005  0.68172558  1
  Si0+  Si102  1  0.43011790  0.81881750  0.31847488  1
  Si0+  Si103  1  0.81996103  0.56943944  0.34765462  1
  Si0+  Si104  1  0.92725131  0.82106912  0.31882013  1
  Si0+  Si105  1  0.17677143  0.92596846  0.01522984  1
  Si0+  Si106  1  0.07161057  0.17667625  0.31758648  1
  Si0+  Si107  1  0.17534228  0.92396043  0.34965021  1
  Si0+  Si108  1  0.92771032  0.32284620  0.98310586  1
  Si0+  Si109  1  0.32298654  0.57606163  0.34969907  1
  Si0+  Si110  1  0.17788823  0.92676667  0.68296768  1
  Si0+  Si111  1  0.42856363  0.32164534  0.65263664  1
  Si0+  Si112  1  0.57456743  0.67754496  0.98524689  1
  Si0+  Si113  1  0.32234533  0.57530008  0.01574470  1
  Si0+  Si114  1  0.17780086  0.42926628  0.68423803  1
  Si0+  Si115  1  0.82522385  0.07330427  0.01769438  1
  Si0+  Si116  1  0.07042949  0.67996392  0.31774757  1
  Si0+  Si117  1  0.57057632  0.17926240  0.65258722  1
  Si0+  Si118  1  0.92649132  0.82243438  0.98350066  1
  Si0+  Si119  1  0.82478961  0.07273309  0.34932052  1
  O2-  O120  1  0.24302049  -0.00355788  0.06045619  1
  O2-  O121  1  0.24114436  -0.00476287  0.39304713  1
  O2-  O122  1  0.24411832  -0.00285060  0.72782630  1
  O2-  O123  1  0.25727214  0.50380475  0.06116632  1
  O2-  O124  1  0.25830266  0.50263860  0.39232703  1
  O2-  O125  1  0.24580712  0.49859451  0.72839275  1
  O2-  O126  1  0.75373560  0.00727833  0.06212602  1
  O2-  O127  1  0.75336493  0.00625749  0.39321637  1
  O2-  O128  1  0.74857499  -0.00381580  0.72777367  1
  O2-  O129  1  0.75274522  0.50395220  0.06248396  1
  O2-  O130  1  0.74954440  0.49813782  0.39070566  1
  O2-  O131  1  0.74478276  0.49648451  0.72502673  1
  O2-  O132  1  0.00306837  0.24515969  0.27255599  1
  O2-  O133  1  -0.00096825  0.24716267  0.60087587  1
  O2-  O134  1  -0.00690849  0.25075840  0.94025688  1
  O2-  O135  1  0.00149704  0.75341472  0.27588073  1
  O2-  O136  1  -0.00585871  0.75226121  0.60443665  1
  O2-  O137  1  -0.00360564  0.75527888  0.93943441  1
  O2-  O138  1  0.49881912  0.25050426  0.27013600  1
  O2-  O139  1  0.49910392  0.24989905  0.61093300  1
  O2-  O140  1  0.50102733  0.25217830  0.93211992  1
  O2-  O141  1  0.50070621  0.74734838  0.27583023  1
  O2-  O142  1  0.50160923  0.74944825  0.59921843  1
  O2-  O143  1  0.50394311  0.74395605  0.94176481  1
  O2-  O144  1  0.07000081  0.18147003  0.10094577  1
  O2-  O145  1  0.06918405  0.17559468  0.42280749  1
  O2-  O146  1  0.07335130  0.18059479  0.76369972  1
  O2-  O147  1  0.06750789  0.68029667  0.10032902  1
  O2-  O148  1  0.06920479  0.67984518  0.42263358  1
  O2-  O149  1  0.06910934  0.67870605  0.76417355  1
  O2-  O150  1  0.56736464  0.17759463  0.09649789  1
  O2-  O151  1  0.56951926  0.17863235  0.43333377  1
  O2-  O152  1  0.57221748  0.17980281  0.75730797  1
  O2-  O153  1  0.57413905  0.67917664  0.09166969  1
  O2-  O154  1  0.57757841  0.67889608  0.42212852  1
  O2-  O155  1  0.57154265  0.67864703  0.76579504  1
  O2-  O156  1  0.17678969  0.43354458  0.23591060  1
  O2-  O157  1  0.17914558  0.43052575  0.57826010  1
  O2-  O158  1  0.17860796  0.43371609  0.90005735  1
  O2-  O159  1  0.17557215  0.91844045  0.24434923  1
  O2-  O160  1  0.17919932  0.92691561  0.57680581  1
  O2-  O161  1  0.17686248  0.92367027  0.91005902  1
  O2-  O162  1  0.67944127  0.43155805  0.24223062  1
  O2-  O163  1  0.67632626  0.42625476  0.57567844  1
  O2-  O164  1  0.67972404  0.43096727  0.90194144  1
  O2-  O165  1  0.68097827  0.92655062  0.23680567  1
  O2-  O166  1  0.67972560  0.92969696  0.57857477  1
  O2-  O167  1  0.68410373  0.92998046  0.90010430  1
  O2-  O168  1  0.42722785  0.31916871  0.09705826  1
  O2-  O169  1  0.42938100  0.32300864  0.43339711  1
  O2-  O170  1  0.42946767  0.32329604  0.75737226  1
  O2-  O171  1  0.43214603  0.82075177  0.10087127  1
  O2-  O172  1  0.42957267  0.81716961  0.42306011  1
  O2-  O173  1  0.43248550  0.82341908  0.76192557  1
  O2-  O174  1  0.93017624  0.32343153  0.08913215  1
  O2-  O175  1  0.92941370  0.32347798  0.42999181  1
  O2-  O176  1  0.92791560  0.31901457  0.76621209  1
  O2-  O177  1  0.92659703  0.82017484  0.08974619  1
  O2-  O178  1  0.92652531  0.81936949  0.42355344  1
  O2-  O179  1  0.92800457  0.82163037  0.75563123  1
  O2-  O180  1  0.31867097  0.06771567  0.23430255  1
  O2-  O181  1  0.32172936  0.07085162  0.56987438  1
  O2-  O182  1  0.31880463  0.06851825  0.90037246  1
  O2-  O183  1  0.31929817  0.58498030  0.24456316  1
  O2-  O184  1  0.31969174  0.56700877  0.56641000  1
  O2-  O185  1  0.31974901  0.57601429  0.91032366  1
  O2-  O186  1  0.83038404  0.06837614  0.24399385  1
  O2-  O187  1  0.81716995  0.07105993  0.56626403  1
  O2-  O188  1  0.82604216  0.07023288  0.91212228  1
  O2-  O189  1  0.81890938  0.57109493  0.24243458  1
  O2-  O190  1  0.82049825  0.56833638  0.56675003  1
  O2-  O191  1  0.82316023  0.57156366  0.91282926  1
  O2-  O192  1  0.04857449  0.08199003  0.27128645  1
  O2-  O193  1  0.04913281  0.07664990  0.59921777  1
  O2-  O194  1  0.04553345  0.08111387  0.93400414  1
  O2-  O195  1  0.03853236  0.59003739  0.26957991  1
  O2-  O196  1  0.03776385  0.58292047  0.59620971  1
  O2-  O197  1  0.03626587  0.58430458  0.93179105  1
  O2-  O198  1  0.53868369  0.07682222  0.26986643  1
  O2-  O199  1  0.54284908  0.08749842  0.60555152  1
  O2-  O200  1  0.54301660  0.08118300  0.92980783  1
  O2-  O201  1  0.54957274  0.58650118  0.26995464  1
  O2-  O202  1  0.54325846  0.57901963  0.59800210  1
  O2-  O203  1  0.55340197  0.58318752  0.94058231  1
  O2-  O204  1  0.16517943  0.20566740  0.27453476  1
  O2-  O205  1  0.17091901  0.20888651  0.59729926  1
  O2-  O206  1  0.16503283  0.21425910  0.93270672  1
  O2-  O207  1  0.16275590  0.70610759  0.27036283  1
  O2-  O208  1  0.16477011  0.71000398  0.59386395  1
  O2-  O209  1  0.16526062  0.70868027  0.93078454  1
  O2-  O210  1  0.66863774  0.19969603  0.26554893  1
  O2-  O211  1  0.66168583  0.20655958  0.60371890  1
  O2-  O212  1  0.67201642  0.20614158  0.93390810  1
  O2-  O213  1  0.66542911  0.70952759  0.26917875  1
  O2-  O214  1  0.67139989  0.70479732  0.59958927  1
  O2-  O215  1  0.66886874  0.70440981  0.94170237  1
  O2-  O216  1  0.08448522  0.46471782  0.06828926  1
  O2-  O217  1  0.08377775  0.46671369  0.40298143  1
  O2-  O218  1  0.08379731  0.45475148  0.72802841  1
  O2-  O219  1  0.08146349  0.94726799  0.06074803  1
  O2-  O220  1  0.08001474  0.94522191  0.39473117  1
  O2-  O221  1  0.08280263  0.94605363  0.72818487  1
  O2-  O222  1  0.58253156  0.46078789  0.07214470  1
  O2-  O223  1  0.58622518  0.45573067  0.39387890  1
  O2-  O224  1  0.58330341  0.45277289  0.72839114  1
  O2-  O225  1  0.58464552  0.96117891  0.06809569  1
  O2-  O226  1  0.58421432  0.95697072  0.40657774  1
  O2-  O227  1  0.58559762  0.95668805  0.72892115  1
  O2-  O228  1  0.20916349  0.33500721  0.06869638  1
  O2-  O229  1  0.20513540  0.33472146  0.40644114  1
  O2-  O230  1  0.20525538  0.33598688  0.72883829  1
  O2-  O231  1  0.20464975  0.83267757  0.06196918  1
  O2-  O232  1  0.20405902  0.83141778  0.39726717  1
  O2-  O233  1  0.20533959  0.83288880  0.72702020  1
  O2-  O234  1  0.70939370  0.33280100  0.07095851  1
  O2-  O235  1  0.70596719  0.33438585  0.39140446  1
  O2-  O236  1  0.70272108  0.33419881  0.72908564  1
  O2-  O237  1  0.71175978  0.83523935  0.07015973  1
  O2-  O238  1  0.71403228  0.83329198  0.40461058  1
  O2-  O239  1  0.70263777  0.83448067  0.72988498  1
  O2-  O240  1  0.45065431  0.42260864  0.26705073  1
  O2-  O241  1  0.45561728  0.41261199  0.60342702  1
  O2-  O242  1  0.45583375  0.42317981  0.93446804  1
  O2-  O243  1  0.46024090  0.91048947  0.27321229  1
  O2-  O244  1  0.46133075  0.92048854  0.59529990  1
  O2-  O245  1  0.46549070  0.91526835  0.93193732  1
  O2-  O246  1  0.96193381  0.41827554  0.26273524  1
  O2-  O247  1  0.95646870  0.41675073  0.59812453  1
  O2-  O248  1  0.95573026  0.41597126  0.93839796  1
  O2-  O249  1  0.95076836  0.91359691  0.27048754  1
  O2-  O250  1  0.95342517  0.91431033  0.60161444  1
  O2-  O251  1  0.94904473  0.91643596  0.93799671  1
  O2-  O252  1  0.32627241  0.29245501  0.27087762  1
  O2-  O253  1  0.33682985  0.29343701  0.60580635  1
  O2-  O254  1  0.33006484  0.29457841  0.93053181  1
  O2-  O255  1  0.33792828  0.79202264  0.27038460  1
  O2-  O256  1  0.33208979  0.79494992  0.59405911  1
  O2-  O257  1  0.33459370  0.79443069  0.93154133  1
  O2-  O258  1  0.83378201  0.29314905  0.26099109  1
  O2-  O259  1  0.82870554  0.29111292  0.59937935  1
  O2-  O260  1  0.83273195  0.30220234  0.93937530  1
  O2-  O261  1  0.83724489  0.78837912  0.26991795  1
  O2-  O262  1  0.83254455  0.79752461  0.60515867  1
  O2-  O263  1  0.83360807  0.79514724  0.93728397  1
  O2-  O264  1  0.41524773  0.03636416  0.06658722  1
  O2-  O265  1  0.41273783  0.03485813  0.40355814  1
  O2-  O266  1  0.41737184  0.03909068  0.73625832  1
  O2-  O267  1  0.41789743  0.55692870  0.06065152  1
  O2-  O268  1  0.41926737  0.55548197  0.39261169  1
  O2-  O269  1  0.41727771  0.54186279  0.73438007  1
  O2-  O270  1  0.91764335  0.04411950  0.06533268  1
  O2-  O271  1  0.91686931  0.04383565  0.39766329  1
  O2-  O272  1  0.91910190  0.04118943  0.73254308  1
  O2-  O273  1  0.91493631  0.54407235  0.06595598  1
  O2-  O274  1  0.91239101  0.54202666  0.39364004  1
  O2-  O275  1  0.91702598  0.53769932  0.73503733  1
  O2-  O276  1  0.28778186  0.16665957  0.06659300  1
  O2-  O277  1  0.28938604  0.16464276  0.40405448  1
  O2-  O278  1  0.29090358  0.16851477  0.73667194  1
  O2-  O279  1  0.29192247  0.66810894  0.06205815  1
  O2-  O280  1  0.29193056  0.66690501  0.39924513  1
  O2-  O281  1  0.29138519  0.67010623  0.72962326  1
  O2-  O282  1  0.80440299  0.16857788  0.06145364  1
  O2-  O283  1  0.80046238  0.16825104  0.39161852  1
  O2-  O284  1  0.78974001  0.16659005  0.73568319  1
  O2-  O285  1  0.79947953  0.66571276  0.06514158  1
  O2-  O286  1  0.79297689  0.66096862  0.39574690  1
  O2-  O287  1  0.79375822  0.66706812  0.73616591  1
