# generated using pymatgen
data_Ca2Al2SiO7
_symmetry_space_group_name_H-M   'P 1'
_cell_length_a   15.46446960
_cell_length_b   15.46445908
_cell_length_c   15.28928429
_cell_angle_alpha   89.99846260
_cell_angle_beta   89.99571190
_cell_angle_gamma   90.01877392
_symmetry_Int_Tables_number   1
_chemical_formula_structural   Ca2Al2SiO7
_chemical_formula_sum   'Ca48 Al48 Si24 O168'
_cell_volume   3656.42689117
_cell_formula_units_Z   24
loop_
 _symmetry_equiv_pos_site_id
 _symmetry_equiv_pos_as_xyz
  1  'x, y, z'
loop_
 _atom_type_symbol
 _atom_type_oxidation_number
  Ca2+  2.0
  Al0+  0.0
  Si0+  0.0
  O2-  -2.0
loop_
 _atom_site_type_symbol
 _atom_site_label
 _atom_site_symmetry_multiplicity
 _atom_site_fract_x
 _atom_site_fract_y
 _atom_site_fract_z
 _atom_site_occupancy
  Ca2+  Ca0  1  0.18091085  0.08883274  0.17150060  1
  Ca2+  Ca1  1  0.17424138  0.07546442  0.50334042  1
  Ca2+  Ca2  1  0.17160826  0.07148624  0.83634261  1
  Ca2+  Ca3  1  0.16787672  0.58415106  0.16785861  1
  Ca2+  Ca4  1  0.16110215  0.58210200  0.50337938  1
  Ca2+  Ca5  1  0.16746841  0.59307793  0.84029970  1
  Ca2+  Ca6  1  0.67133623  0.07466922  0.17134424  1
  Ca2+  Ca7  1  0.67417581  0.07496423  0.50186915  1
  Ca2+  Ca8  1  0.67549297  0.07227517  0.83913157  1
  Ca2+  Ca9  1  0.67723046  0.58389040  0.17690581  1
  Ca2+  Ca10  1  0.66577612  0.58039327  0.49841090  1
  Ca2+  Ca11  1  0.67056359  0.57744393  0.83970814  1
  Ca2+  Ca12  1  0.08461124  0.33448776  0.16525386  1
  Ca2+  Ca13  1  0.08215130  0.33162580  0.49237575  1
  Ca2+  Ca14  1  0.08077165  0.32774148  0.83026729  1
  Ca2+  Ca15  1  0.06567739  0.83060876  0.15892510  1
  Ca2+  Ca16  1  0.07275245  0.83585891  0.49995312  1
  Ca2+  Ca17  1  0.07320389  0.82868804  0.82398520  1
  Ca2+  Ca18  1  0.59591527  0.31837809  0.16519100  1
  Ca2+  Ca19  1  0.59060967  0.32921432  0.49085699  1
  Ca2+  Ca20  1  0.58909489  0.32533204  0.82943079  1
  Ca2+  Ca21  1  0.59160576  0.83232409  0.16608339  1
  Ca2+  Ca22  1  0.58383203  0.83755119  0.49390937  1
  Ca2+  Ca23  1  0.57930330  0.84142533  0.82927310  1
  Ca2+  Ca24  1  0.32751606  0.42171924  0.17000905  1
  Ca2+  Ca25  1  0.32737204  0.41706276  0.49953173  1
  Ca2+  Ca26  1  0.33014833  0.42722632  0.84029178  1
  Ca2+  Ca27  1  0.33332633  0.92789582  0.16933881  1
  Ca2+  Ca28  1  0.33341509  0.91896390  0.50642662  1
  Ca2+  Ca29  1  0.32673648  0.91066384  0.83685496  1
  Ca2+  Ca30  1  0.83200305  0.43189804  0.17361149  1
  Ca2+  Ca31  1  0.82133068  0.42269140  0.50082702  1
  Ca2+  Ca32  1  0.82907153  0.42367391  0.83633646  1
  Ca2+  Ca33  1  0.82654829  0.91688501  0.17323021  1
  Ca2+  Ca34  1  0.82750991  0.91793093  0.50513126  1
  Ca2+  Ca35  1  0.82722154  0.91433746  0.83922463  1
  Ca2+  Ca36  1  0.42820371  0.15887850  0.16165014  1
  Ca2+  Ca37  1  0.42585638  0.16638508  0.48806032  1
  Ca2+  Ca38  1  0.42373870  0.15876324  0.83555222  1
  Ca2+  Ca39  1  0.42497596  0.66201807  0.16407741  1
  Ca2+  Ca40  1  0.42465218  0.67633618  0.49617525  1
  Ca2+  Ca41  1  0.41671118  0.67186633  0.82616091  1
  Ca2+  Ca42  1  0.90700860  0.16787514  0.16234257  1
  Ca2+  Ca43  1  0.91052085  0.16257102  0.49442812  1
  Ca2+  Ca44  1  0.90699801  0.16390285  0.82923905  1
  Ca2+  Ca45  1  0.91125459  0.67548243  0.15962455  1
  Ca2+  Ca46  1  0.91189831  0.67975797  0.49465789  1
  Ca2+  Ca47  1  0.92116164  0.67623865  0.83160125  1
  Al0+  Al48  1  -0.00069675  0.00121629  -0.00187141  1
  Al0+  Al49  1  0.00302598  0.00102146  0.32871880  1
  Al0+  Al50  1  0.00447023  0.00143257  0.66973396  1
  Al0+  Al51  1  -0.00114693  0.49801827  -0.00148014  1
  Al0+  Al52  1  0.00079291  0.50000913  0.34113325  1
  Al0+  Al53  1  -0.00008618  0.49660122  0.66407716  1
  Al0+  Al54  1  0.49996125  -0.00071095  0.00144899  1
  Al0+  Al55  1  0.49963841  0.00236125  0.33575800  1
  Al0+  Al56  1  0.50283592  0.00245854  0.66388547  1
  Al0+  Al57  1  0.49674123  0.49744989  0.00366900  1
  Al0+  Al58  1  0.49732759  0.50111540  0.33206773  1
  Al0+  Al59  1  0.49799425  0.49790195  0.67026299  1
  Al0+  Al60  1  0.25009676  0.25078491  0.00022694  1
  Al0+  Al61  1  0.25076411  0.25172017  0.34083059  1
  Al0+  Al62  1  0.25051065  0.25187283  0.66724165  1
  Al0+  Al63  1  0.25086960  0.74863763  0.00634522  1
  Al0+  Al64  1  0.24927311  0.75066857  0.33162758  1
  Al0+  Al65  1  0.25181857  0.75043517  0.66048662  1
  Al0+  Al66  1  0.74902418  0.24756410  -0.00573428  1
  Al0+  Al67  1  0.75150750  0.25123453  0.33299600  1
  Al0+  Al68  1  0.74976212  0.25163319  0.67240642  1
  Al0+  Al69  1  0.74862344  0.74750382  0.00066754  1
  Al0+  Al70  1  0.74869708  0.75080483  0.33325585  1
  Al0+  Al71  1  0.75022320  0.74797653  0.66772227  1
  Al0+  Al72  1  0.18024631  0.43145208  0.34746698  1
  Al0+  Al73  1  0.82123627  0.57367568  0.34987221  1
  Al0+  Al74  1  0.18259360  0.92825051  0.67959445  1
  Al0+  Al75  1  0.82253863  0.07194467  0.01553575  1
  Al0+  Al76  1  0.07168176  0.67792584  0.65048360  1
  Al0+  Al77  1  0.31911338  0.07003741  0.01194892  1
  Al0+  Al78  1  0.67953766  0.92921334  0.34881938  1
  Al0+  Al79  1  0.82389165  0.07157509  0.34657799  1
  Al0+  Al80  1  0.67762234  0.43053719  0.68176456  1
  Al0+  Al81  1  0.82215233  0.07007799  0.68113410  1
  Al0+  Al82  1  0.07093405  0.67856611  0.98729143  1
  Al0+  Al83  1  0.81994200  0.56843242  0.01204923  1
  Al0+  Al84  1  0.32125162  0.57299205  0.01419839  1
  Al0+  Al85  1  0.57017353  0.17825806  0.98351518  1
  Al0+  Al86  1  0.32106445  0.07019288  0.34784996  1
  Al0+  Al87  1  0.92955022  0.82180468  0.31910886  1
  Al0+  Al88  1  0.67789543  0.42936910  0.34525075  1
  Al0+  Al89  1  0.67840907  0.92632774  0.68216377  1
  Al0+  Al90  1  0.43184478  0.82207606  0.65402271  1
  Al0+  Al91  1  0.57198048  0.18049880  0.31933173  1
  Al0+  Al92  1  0.67890045  0.92784509  0.01601520  1
  Al0+  Al93  1  0.92605311  0.82221624  0.98359610  1
  Al0+  Al94  1  0.92788789  0.82257214  0.65063801  1
  Al0+  Al95  1  0.56891952  0.67983551  0.31968853  1
  Si0+  Si96  1  0.42584583  0.32185445  0.98179593  1
  Si0+  Si97  1  0.92951799  0.31927453  0.98428995  1
  Si0+  Si98  1  0.07359329  0.18085495  0.31848707  1
  Si0+  Si99  1  0.93057351  0.32165171  0.31845785  1
  Si0+  Si100  1  0.07430638  0.18036097  0.65082684  1
  Si0+  Si101  1  0.32332370  0.07439100  0.68292377  1
  Si0+  Si102  1  0.17689138  0.92658870  0.01746318  1
  Si0+  Si103  1  0.67652130  0.42671115  0.01596551  1
  Si0+  Si104  1  0.57127933  0.67407369  0.65278666  1
  Si0+  Si105  1  0.07190898  0.67582362  0.31638256  1
  Si0+  Si106  1  0.92850617  0.31876347  0.65017341  1
  Si0+  Si107  1  0.82385902  0.57089456  0.68419912  1
  Si0+  Si108  1  0.57095079  0.18269742  0.65039082  1
  Si0+  Si109  1  0.17757751  0.42821320  0.01488154  1
  Si0+  Si110  1  0.42542322  0.32202810  0.31586882  1
  Si0+  Si111  1  0.31829258  0.56949676  0.68003477  1
  Si0+  Si112  1  0.32227164  0.57484284  0.35238378  1
  Si0+  Si113  1  0.07487584  0.17940199  0.98480669  1
  Si0+  Si114  1  0.56972897  0.67505776  0.98554846  1
  Si0+  Si115  1  0.42746941  0.32263473  0.65092086  1
  Si0+  Si116  1  0.17733709  0.42734225  0.68341249  1
  Si0+  Si117  1  0.42609209  0.82386057  0.31501521  1
  Si0+  Si118  1  0.17838485  0.92748079  0.34876928  1
  Si0+  Si119  1  0.42993637  0.81958810  0.98750464  1
  O2-  O120  1  0.24224874  -0.00088886  0.06093613  1
  O2-  O121  1  0.25049349  -0.00787810  0.39410717  1
  O2-  O122  1  0.25906035  0.00176048  0.72680629  1
  O2-  O123  1  0.24406082  0.49925886  0.05779460  1
  O2-  O124  1  0.25129027  0.50834474  0.39641861  1
  O2-  O125  1  0.24345447  0.50287972  0.72428638  1
  O2-  O126  1  0.75460707  -0.00330634  0.06470904  1
  O2-  O127  1  0.75440848  -0.00124651  0.39765316  1
  O2-  O128  1  0.75556364  -0.00662812  0.73119827  1
  O2-  O129  1  0.74263388  0.49696674  0.05974665  1
  O2-  O130  1  0.74619354  0.50315808  0.39761594  1
  O2-  O131  1  0.75024966  0.50677467  0.72825667  1
  O2-  O132  1  -0.00057134  0.24831848  0.27561379  1
  O2-  O133  1  -0.00117619  0.24662401  0.60832699  1
  O2-  O134  1  -0.00210893  0.24458216  0.94292585  1
  O2-  O135  1  0.00296587  0.74409409  0.27348476  1
  O2-  O136  1  -0.00210622  0.74764433  0.60063171  1
  O2-  O137  1  0.00246180  0.75265305  0.93613032  1
  O2-  O138  1  0.49767627  0.25716070  0.27231458  1
  O2-  O139  1  0.49747455  0.25170144  0.60839194  1
  O2-  O140  1  0.49565670  0.25477017  0.93691207  1
  O2-  O141  1  0.49456469  0.75487053  0.27130454  1
  O2-  O142  1  0.51094720  0.75080023  0.60936827  1
  O2-  O143  1  0.49941665  0.74721451  0.94424504  1
  O2-  O144  1  0.08114786  0.18520133  0.08950904  1
  O2-  O145  1  0.07548921  0.18341862  0.42367901  1
  O2-  O146  1  0.07969201  0.18546605  0.75586444  1
  O2-  O147  1  0.06940517  0.67843426  0.10080403  1
  O2-  O148  1  0.07309115  0.67672034  0.42177728  1
  O2-  O149  1  0.07217602  0.67890093  0.76405198  1
  O2-  O150  1  0.56961132  0.17998968  0.09638716  1
  O2-  O151  1  0.56992216  0.18272205  0.43282992  1
  O2-  O152  1  0.56860224  0.18364025  0.75556676  1
  O2-  O153  1  0.56822741  0.67310980  0.09036435  1
  O2-  O154  1  0.56494422  0.67808880  0.43296612  1
  O2-  O155  1  0.56496936  0.66822841  0.75843878  1
  O2-  O156  1  0.18161721  0.42989282  0.23428658  1
  O2-  O157  1  0.18003119  0.42347207  0.57872207  1
  O2-  O158  1  0.17896975  0.42503277  0.90913499  1
  O2-  O159  1  0.17933766  0.93054021  0.24319420  1
  O2-  O160  1  0.18395472  0.93223202  0.56651656  1
  O2-  O161  1  0.18082083  0.92567944  0.91163758  1
  O2-  O162  1  0.68334912  0.42826162  0.23178236  1
  O2-  O163  1  0.67829531  0.42942017  0.56912528  1
  O2-  O164  1  0.67750387  0.42882684  0.90981418  1
  O2-  O165  1  0.67915700  0.93009653  0.23555235  1
  O2-  O166  1  0.67467973  0.93111590  0.56922778  1
  O2-  O167  1  0.67589553  0.92943733  0.90245379  1
  O2-  O168  1  0.42213783  0.32197419  0.08681337  1
  O2-  O169  1  0.42300865  0.31919542  0.42196624  1
  O2-  O170  1  0.42541966  0.32377762  0.75580303  1
  O2-  O171  1  0.42973261  0.81966951  0.09233302  1
  O2-  O172  1  0.42469542  0.82188176  0.42081100  1
  O2-  O173  1  0.42830724  0.81789912  0.76758926  1
  O2-  O174  1  0.93140534  0.32183940  0.08929042  1
  O2-  O175  1  0.93218151  0.32130830  0.42369757  1
  O2-  O176  1  0.93106588  0.32024169  0.75565049  1
  O2-  O177  1  0.92626846  0.82028644  0.09725755  1
  O2-  O178  1  0.93222950  0.82394850  0.43197583  1
  O2-  O179  1  0.92931060  0.82136307  0.76400685  1
  O2-  O180  1  0.31913364  0.07169631  0.23460385  1
  O2-  O181  1  0.31999622  0.07741889  0.57746190  1
  O2-  O182  1  0.31759394  0.06763508  0.89869550  1
  O2-  O183  1  0.32188922  0.57303355  0.24680599  1
  O2-  O184  1  0.32013565  0.56496171  0.57533703  1
  O2-  O185  1  0.32264570  0.57140446  0.90065118  1
  O2-  O186  1  0.82179599  0.07244922  0.23352127  1
  O2-  O187  1  0.81827947  0.07396601  0.56798883  1
  O2-  O188  1  0.81869048  0.07460811  0.90226651  1
  O2-  O189  1  0.82270835  0.57037670  0.23602463  1
  O2-  O190  1  0.82474963  0.56782728  0.57896768  1
  O2-  O191  1  0.81871649  0.56483976  0.89878529  1
  O2-  O192  1  0.05400573  0.08852801  0.26951522  1
  O2-  O193  1  0.05399582  0.08693879  0.60484557  1
  O2-  O194  1  0.05483660  0.08549764  0.93870336  1
  O2-  O195  1  0.04879819  0.58019913  0.27329733  1
  O2-  O196  1  0.04821216  0.57571353  0.60145848  1
  O2-  O197  1  0.04424095  0.57895256  0.93432120  1
  O2-  O198  1  0.53691972  0.08494955  0.26608852  1
  O2-  O199  1  0.54558002  0.09098996  0.60234054  1
  O2-  O200  1  0.53375926  0.08296083  0.92996623  1
  O2-  O201  1  0.53658051  0.58351619  0.26401863  1
  O2-  O202  1  0.53569168  0.58406031  0.60449049  1
  O2-  O203  1  0.53974042  0.58309798  0.93840159  1
  O2-  O204  1  0.16377116  0.21609353  0.27141600  1
  O2-  O205  1  0.16390707  0.21457836  0.60144953  1
  O2-  O206  1  0.16284606  0.21393103  0.93289558  1
  O2-  O207  1  0.16693620  0.69977688  0.27107485  1
  O2-  O208  1  0.16988579  0.70533558  0.59652275  1
  O2-  O209  1  0.17274609  0.70377884  0.93858474  1
  O2-  O210  1  0.66829630  0.21253360  0.26477420  1
  O2-  O211  1  0.66199389  0.21584366  0.60560053  1
  O2-  O212  1  0.66522412  0.21047287  0.92649132  1
  O2-  O213  1  0.66548898  0.70853267  0.26524341  1
  O2-  O214  1  0.66817351  0.68880104  0.61114665  1
  O2-  O215  1  0.66138524  0.69985890  0.93746349  1
  O2-  O216  1  0.08377409  0.45044764  0.06109070  1
  O2-  O217  1  0.08439886  0.45679198  0.40523252  1
  O2-  O218  1  0.08333063  0.44781716  0.72939378  1
  O2-  O219  1  0.08223848  0.95055917  0.06040746  1
  O2-  O220  1  0.08761397  0.95937233  0.39574538  1
  O2-  O221  1  0.08913293  0.96265488  0.73697922  1
  O2-  O222  1  0.58139168  0.44616578  0.06004560  1
  O2-  O223  1  0.57683918  0.45234796  0.39568924  1
  O2-  O224  1  0.57977832  0.45658352  0.73664795  1
  O2-  O225  1  0.58111959  0.95850774  0.06843256  1
  O2-  O226  1  0.58118982  0.95934616  0.40052088  1
  O2-  O227  1  0.58055401  0.96117987  0.73446395  1
  O2-  O228  1  0.20648734  0.33655706  0.06302532  1
  O2-  O229  1  0.21354943  0.33738435  0.40575742  1
  O2-  O230  1  0.21061191  0.33796089  0.73314269  1
  O2-  O231  1  0.20637108  0.83599481  0.06636421  1
  O2-  O232  1  0.19916231  0.83223111  0.39335334  1
  O2-  O233  1  0.21481016  0.83156918  0.73258162  1
  O2-  O234  1  0.70619330  0.33328195  0.05778889  1
  O2-  O235  1  0.71169908  0.33371294  0.40025003  1
  O2-  O236  1  0.71305390  0.33685173  0.73837545  1
  O2-  O237  1  0.70221356  0.82722328  0.06582413  1
  O2-  O238  1  0.70317073  0.83011303  0.40076411  1
  O2-  O239  1  0.69738009  0.82432943  0.73250833  1
  O2-  O240  1  0.44370814  0.41796464  0.27234437  1
  O2-  O241  1  0.45407329  0.41441627  0.60293547  1
  O2-  O242  1  0.45059661  0.41632540  0.93570878  1
  O2-  O243  1  0.45101645  0.91826325  0.27131700  1
  O2-  O244  1  0.45664616  0.92059161  0.59997292  1
  O2-  O245  1  0.45729599  0.91029057  0.93801252  1
  O2-  O246  1  0.96305074  0.41279526  0.27190645  1
  O2-  O247  1  0.95787001  0.40904431  0.60116592  1
  O2-  O248  1  0.96130469  0.40818257  0.93312047  1
  O2-  O249  1  0.96427471  0.91689426  0.26307537  1
  O2-  O250  1  0.96232915  0.92130203  0.60100454  1
  O2-  O251  1  0.95182554  0.92260342  0.93272507  1
  O2-  O252  1  0.33252197  0.29265186  0.27019523  1
  O2-  O253  1  0.33499690  0.29568378  0.60316838  1
  O2-  O254  1  0.33270207  0.29574001  0.93358009  1
  O2-  O255  1  0.33190377  0.79932231  0.26868030  1
  O2-  O256  1  0.33874395  0.78743543  0.59590370  1
  O2-  O257  1  0.33733898  0.79161252  0.94130613  1
  O2-  O258  1  0.83947460  0.29650656  0.26908203  1
  O2-  O259  1  0.83581654  0.29201830  0.60452231  1
  O2-  O260  1  0.83790359  0.29436880  0.93460186  1
  O2-  O261  1  0.83257809  0.79158670  0.26680355  1
  O2-  O262  1  0.82783594  0.79458666  0.59942226  1
  O2-  O263  1  0.82893347  0.78777483  0.93115286  1
  O2-  O264  1  0.41366098  0.03661693  0.06672229  1
  O2-  O265  1  0.41673378  0.04247418  0.40362802  1
  O2-  O266  1  0.41876001  0.05303690  0.72518350  1
  O2-  O267  1  0.41524146  0.53758453  0.07107187  1
  O2-  O268  1  0.41396593  0.54624582  0.39975295  1
  O2-  O269  1  0.40739842  0.53733945  0.73057592  1
  O2-  O270  1  0.92594909  0.05630364  0.06337444  1
  O2-  O271  1  0.92603318  0.04978546  0.39511031  1
  O2-  O272  1  0.92505132  0.05477574  0.72972899  1
  O2-  O273  1  0.91510009  0.53326638  0.06593470  1
  O2-  O274  1  0.91776664  0.54246674  0.40384590  1
  O2-  O275  1  0.91516923  0.53642972  0.73025453  1
  O2-  O276  1  0.28961619  0.16758823  0.06500915  1
  O2-  O277  1  0.28749502  0.16486343  0.40343653  1
  O2-  O278  1  0.29322935  0.16673606  0.72987276  1
  O2-  O279  1  0.29445937  0.66762824  0.07332639  1
  O2-  O280  1  0.29899711  0.66988011  0.39645706  1
  O2-  O281  1  0.29474710  0.66262334  0.72577248  1
  O2-  O282  1  0.79084865  0.17129873  0.06549911  1
  O2-  O283  1  0.79619267  0.17065013  0.39824663  1
  O2-  O284  1  0.78887243  0.16725517  0.73507230  1
  O2-  O285  1  0.78964948  0.66395205  0.06625974  1
  O2-  O286  1  0.79105279  0.67042366  0.40266285  1
  O2-  O287  1  0.80332815  0.66544349  0.72916634  1
