# generated using pymatgen
data_Ca2Al2SiO7
_symmetry_space_group_name_H-M   'P 1'
_cell_length_a   15.45969069
_cell_length_b   15.46173574
_cell_length_c   15.28642332
_cell_angle_alpha   90.00796308
_cell_angle_beta   89.99607286
_cell_angle_gamma   89.99766574
_symmetry_Int_Tables_number   1
_chemical_formula_structural   Ca2Al2SiO7
_chemical_formula_sum   'Ca48 Al48 Si24 O168'
_cell_volume   3653.96954782
_cell_formula_units_Z   24
loop_
 _symmetry_equiv_pos_site_id
 _symmetry_equiv_pos_as_xyz
  1  'x, y, z'
loop_
 _atom_type_symbol
 _atom_type_oxidation_number
  Ca2+  2.0
  Al0+  0.0
  Si0+  0.0
  O2-  -2.0
loop_
 _atom_site_type_symbol
 _atom_site_label
 _atom_site_symmetry_multiplicity
 _atom_site_fract_x
 _atom_site_fract_y
 _atom_site_fract_z
 _atom_site_occupancy
  Ca2+  Ca0  1  0.16411765  0.08410200  0.17370895  1
  Ca2+  Ca1  1  0.16062514  0.08038284  0.50573597  1
  Ca2+  Ca2  1  0.16320448  0.07431733  0.83521354  1
  Ca2+  Ca3  1  0.16436734  0.58152468  0.16374854  1
  Ca2+  Ca4  1  0.17180222  0.57830525  0.50749819  1
  Ca2+  Ca5  1  0.17163612  0.57404772  0.83974440  1
  Ca2+  Ca6  1  0.67403662  0.08596481  0.16353357  1
  Ca2+  Ca7  1  0.67291721  0.09024139  0.50167814  1
  Ca2+  Ca8  1  0.66825648  0.08434292  0.84389022  1
  Ca2+  Ca9  1  0.68200621  0.57971902  0.17500098  1
  Ca2+  Ca10  1  0.67232221  0.56948393  0.50177703  1
  Ca2+  Ca11  1  0.67464321  0.57450745  0.83781323  1
  Ca2+  Ca12  1  0.07091315  0.33373800  0.16135443  1
  Ca2+  Ca13  1  0.07418257  0.33552182  0.49340746  1
  Ca2+  Ca14  1  0.07456952  0.34366390  0.83116959  1
  Ca2+  Ca15  1  0.08060514  0.81857778  0.16172247  1
  Ca2+  Ca16  1  0.08134706  0.82895676  0.49785036  1
  Ca2+  Ca17  1  0.07859392  0.82727072  0.82692809  1
  Ca2+  Ca18  1  0.58195603  0.33493659  0.16416613  1
  Ca2+  Ca19  1  0.57661993  0.34203445  0.49956989  1
  Ca2+  Ca20  1  0.58585242  0.32314335  0.82298932  1
  Ca2+  Ca21  1  0.57825123  0.83717715  0.15614211  1
  Ca2+  Ca22  1  0.58091069  0.82894107  0.49739223  1
  Ca2+  Ca23  1  0.58038562  0.83458458  0.83364516  1
  Ca2+  Ca24  1  0.32891722  0.41679371  0.16955611  1
  Ca2+  Ca25  1  0.32913784  0.41640167  0.51253720  1
  Ca2+  Ca26  1  0.32475341  0.42022490  0.83670609  1
  Ca2+  Ca27  1  0.33484912  0.91685372  0.16716318  1
  Ca2+  Ca28  1  0.32384676  0.92200457  0.50809383  1
  Ca2+  Ca29  1  0.32943227  0.91429117  0.83807074  1
  Ca2+  Ca30  1  0.83392566  0.41992238  0.17154641  1
  Ca2+  Ca31  1  0.82859197  0.40990248  0.50220366  1
  Ca2+  Ca32  1  0.83269213  0.41299768  0.83890051  1
  Ca2+  Ca33  1  0.83245213  0.92938463  0.16966332  1
  Ca2+  Ca34  1  0.84117385  0.92450095  0.50439867  1
  Ca2+  Ca35  1  0.82836355  0.92360588  0.84227143  1
  Ca2+  Ca36  1  0.42328371  0.17577889  0.16081220  1
  Ca2+  Ca37  1  0.42056849  0.18112405  0.49764765  1
  Ca2+  Ca38  1  0.43080551  0.17217655  0.82639949  1
  Ca2+  Ca39  1  0.41752963  0.67235249  0.15653539  1
  Ca2+  Ca40  1  0.41637479  0.66124298  0.49879852  1
  Ca2+  Ca41  1  0.40736846  0.66645992  0.83338551  1
  Ca2+  Ca42  1  0.90814913  0.17554755  0.16535030  1
  Ca2+  Ca43  1  0.92024222  0.17751165  0.49308172  1
  Ca2+  Ca44  1  0.91120517  0.17823509  0.83070418  1
  Ca2+  Ca45  1  0.92571994  0.65171809  0.16093845  1
  Ca2+  Ca46  1  0.92065781  0.67030680  0.49277724  1
  Ca2+  Ca47  1  0.92114404  0.66587222  0.83121321  1
  Al0+  Al48  1  -0.00006937  0.00014664  0.00556504  1
  Al0+  Al49  1  -0.00010497  -0.00240097  0.33464461  1
  Al0+  Al50  1  -0.00079529  -0.00074180  0.66930614  1
  Al0+  Al51  1  0.00054906  0.49834678  -0.00288521  1
  Al0+  Al52  1  0.00215749  0.50083129  0.33045964  1
  Al0+  Al53  1  0.00108927  0.50227081  0.66337925  1
  Al0+  Al54  1  0.49821328  -0.00020963  -0.00474631  1
  Al0+  Al55  1  0.49810415  0.00109483  0.33570665  1
  Al0+  Al56  1  0.50152322  -0.00132281  0.65999837  1
  Al0+  Al57  1  0.49800680  0.50154206  0.00209724  1
  Al0+  Al58  1  0.50082109  0.50234874  0.33015224  1
  Al0+  Al59  1  0.50307381  0.50089963  0.67306690  1
  Al0+  Al60  1  0.24788859  0.24834318  0.00279152  1
  Al0+  Al61  1  0.25229371  0.24998802  0.32725183  1
  Al0+  Al62  1  0.25153954  0.24833305  0.67055640  1
  Al0+  Al63  1  0.24931077  0.74900005  -0.00468225  1
  Al0+  Al64  1  0.24912128  0.75085349  0.33045535  1
  Al0+  Al65  1  0.24979478  0.75169527  0.67222792  1
  Al0+  Al66  1  0.74974141  0.24959676  -0.00335424  1
  Al0+  Al67  1  0.74808815  0.24769147  0.33839700  1
  Al0+  Al68  1  0.75225382  0.24937754  0.66223885  1
  Al0+  Al69  1  0.74894148  0.75001120  0.00765394  1
  Al0+  Al70  1  0.74924724  0.75079271  0.33719938  1
  Al0+  Al71  1  0.75007229  0.75206424  0.66112694  1
  Al0+  Al72  1  0.06881105  0.67918343  0.98349896  1
  Al0+  Al73  1  0.68299759  0.42824819  0.68155150  1
  Al0+  Al74  1  0.32021769  0.57186159  0.01771935  1
  Al0+  Al75  1  0.82539068  0.57109436  0.35022562  1
  Al0+  Al76  1  0.57296236  0.17735567  0.64858897  1
  Al0+  Al77  1  0.43009203  0.81961358  0.98519668  1
  Al0+  Al78  1  0.93074281  0.31848449  0.98583311  1
  Al0+  Al79  1  0.32274426  0.57092941  0.68141884  1
  Al0+  Al80  1  0.07104840  0.67992522  0.31967049  1
  Al0+  Al81  1  0.17861160  0.42737850  0.01789079  1
  Al0+  Al82  1  0.17660910  0.42641122  0.68040672  1
  Al0+  Al83  1  0.42974971  0.32256443  0.65453965  1
  Al0+  Al84  1  0.93169724  0.32282398  0.65246154  1
  Al0+  Al85  1  0.67827614  0.42903637  0.34803127  1
  Al0+  Al86  1  0.17845652  0.93122322  0.68116467  1
  Al0+  Al87  1  0.56878300  0.18254454  0.98776377  1
  Al0+  Al88  1  0.67650096  0.92949885  0.01361233  1
  Al0+  Al89  1  0.07127670  0.17707988  0.31963423  1
  Al0+  Al90  1  0.43027718  0.32373833  0.31856226  1
  Al0+  Al91  1  0.82150395  0.07275974  0.01481578  1
  Al0+  Al92  1  0.92851560  0.82168115  0.65397077  1
  Al0+  Al93  1  0.82098432  0.06902370  0.34994994  1
  Al0+  Al94  1  0.82064472  0.57004882  0.01106278  1
  Al0+  Al95  1  0.92731576  0.31992150  0.31761852  1
  Si0+  Si96  1  0.18101139  0.92825922  0.34764049  1
  Si0+  Si97  1  0.17852844  0.92804600  0.01676164  1
  Si0+  Si98  1  0.92681075  0.82421372  0.98572169  1
  Si0+  Si99  1  0.57464100  0.67690257  0.98351596  1
  Si0+  Si100  1  0.82185195  0.57522477  0.68131132  1
  Si0+  Si101  1  0.07423714  0.17463139  0.98259484  1
  Si0+  Si102  1  0.57150360  0.68037850  0.31819813  1
  Si0+  Si103  1  0.42743657  0.82020058  0.65006833  1
  Si0+  Si104  1  0.67769882  0.92701671  0.68045171  1
  Si0+  Si105  1  0.67482371  0.92838925  0.35241950  1
  Si0+  Si106  1  0.18171537  0.42779633  0.34727376  1
  Si0+  Si107  1  0.57241413  0.67964978  0.65143643  1
  Si0+  Si108  1  0.32022354  0.06935934  0.01473358  1
  Si0+  Si109  1  0.92619796  0.82152090  0.31571782  1
  Si0+  Si110  1  0.67746023  0.42685517  0.01450399  1
  Si0+  Si111  1  0.32035434  0.57308254  0.34668740  1
  Si0+  Si112  1  0.81940684  0.06946388  0.68172653  1
  Si0+  Si113  1  0.42960968  0.82124433  0.31988620  1
  Si0+  Si114  1  0.32146834  0.07232579  0.34882788  1
  Si0+  Si115  1  0.07184494  0.17636415  0.65409604  1
  Si0+  Si116  1  0.32515534  0.07066186  0.68373500  1
  Si0+  Si117  1  0.42473285  0.32394388  0.98284128  1
  Si0+  Si118  1  0.07297384  0.68044669  0.64943690  1
  Si0+  Si119  1  0.57018854  0.17583673  0.31554556  1
  O2-  O120  1  0.24690890  0.00146996  0.05929321  1
  O2-  O121  1  0.24648926  0.00462969  0.39019221  1
  O2-  O122  1  0.25406585  0.00464974  0.72872502  1
  O2-  O123  1  0.25254894  0.49727555  0.06932468  1
  O2-  O124  1  0.25300093  0.49932172  0.38915765  1
  O2-  O125  1  0.25137857  0.49705015  0.72858920  1
  O2-  O126  1  0.75086861  -0.00169215  0.06383743  1
  O2-  O127  1  0.74563612  -0.00595549  0.39730180  1
  O2-  O128  1  0.74506705  0.00087069  0.72233836  1
  O2-  O129  1  0.74243317  0.49897308  0.05777089  1
  O2-  O130  1  0.75562479  0.49599487  0.39864766  1
  O2-  O131  1  0.75999675  0.50134757  0.72692781  1
  O2-  O132  1  -0.00141528  0.24653943  0.26769475  1
  O2-  O133  1  0.01200520  0.25187182  0.60917905  1
  O2-  O134  1  0.00560139  0.24296601  0.93927452  1
  O2-  O135  1  -0.01068390  0.74761195  0.27239598  1
  O2-  O136  1  0.00175889  0.74666031  0.60550313  1
  O2-  O137  1  -0.00754654  0.75399997  0.93947063  1
  O2-  O138  1  0.50634171  0.24965374  0.27261883  1
  O2-  O139  1  0.50132181  0.25137129  0.60139717  1
  O2-  O140  1  0.49774976  0.25985968  0.93967259  1
  O2-  O141  1  0.50339409  0.75464988  0.27685969  1
  O2-  O142  1  0.49666637  0.74716866  0.60886550  1
  O2-  O143  1  0.50423217  0.74407560  0.93847895  1
  O2-  O144  1  0.07609260  0.17372812  0.08782940  1
  O2-  O145  1  0.07229587  0.17835041  0.43365353  1
  O2-  O146  1  0.06598360  0.17017168  0.75915683  1
  O2-  O147  1  0.06862058  0.68152651  0.09685854  1
  O2-  O148  1  0.07749362  0.68601632  0.43256097  1
  O2-  O149  1  0.07234419  0.68201446  0.75484086  1
  O2-  O150  1  0.56685899  0.18318692  0.10109065  1
  O2-  O151  1  0.56477387  0.17041972  0.42061178  1
  O2-  O152  1  0.57183260  0.17506547  0.76235019  1
  O2-  O153  1  0.57333821  0.67899604  0.08922537  1
  O2-  O154  1  0.56832189  0.68044107  0.42368377  1
  O2-  O155  1  0.57701861  0.68416596  0.75602269  1
  O2-  O156  1  0.18292887  0.42793319  0.24255878  1
  O2-  O157  1  0.17667205  0.42910874  0.56595589  1
  O2-  O158  1  0.17940402  0.42867315  0.90442038  1
  O2-  O159  1  0.18543512  0.92572011  0.24262358  1
  O2-  O160  1  0.18063927  0.93170621  0.56743294  1
  O2-  O161  1  0.17851613  0.92957478  0.91159857  1
  O2-  O162  1  0.67516040  0.43410931  0.23429649  1
  O2-  O163  1  0.68108835  0.43143868  0.56879850  1
  O2-  O164  1  0.67990840  0.42622736  0.90874172  1
  O2-  O165  1  0.67101113  0.92947821  0.24727170  1
  O2-  O166  1  0.67784595  0.92490947  0.57538503  1
  O2-  O167  1  0.67679643  0.93093376  0.89949704  1
  O2-  O168  1  0.42511416  0.32069616  0.08886096  1
  O2-  O169  1  0.42733074  0.32325288  0.43140304  1
  O2-  O170  1  0.43169770  0.31946004  0.76792374  1
  O2-  O171  1  0.43066771  0.82091260  0.09903051  1
  O2-  O172  1  0.42834735  0.81993281  0.42514350  1
  O2-  O173  1  0.42870593  0.82301081  0.75470456  1
  O2-  O174  1  0.92872489  0.31806519  0.09855715  1
  O2-  O175  1  0.93083949  0.31933618  0.43142368  1
  O2-  O176  1  0.92899010  0.31999132  0.76544285  1
  O2-  O177  1  0.93125526  0.82684095  0.09114413  1
  O2-  O178  1  0.93049222  0.82340317  0.42159084  1
  O2-  O179  1  0.92819743  0.82127945  0.76704160  1
  O2-  O180  1  0.32495411  0.06804294  0.24370046  1
  O2-  O181  1  0.32439853  0.06784996  0.57776809  1
  O2-  O182  1  0.31953317  0.06655738  0.90976071  1
  O2-  O183  1  0.31908794  0.57660397  0.24221922  1
  O2-  O184  1  0.32032616  0.57313165  0.56670746  1
  O2-  O185  1  0.31777285  0.57204492  0.90459759  1
  O2-  O186  1  0.81916626  0.06778224  0.23726046  1
  O2-  O187  1  0.82116751  0.06666385  0.57658183  1
  O2-  O188  1  0.82038418  0.07148946  0.90082774  1
  O2-  O189  1  0.82205037  0.57097229  0.23658474  1
  O2-  O190  1  0.81798706  0.57815206  0.57605956  1
  O2-  O191  1  0.81922893  0.57045773  0.89760030  1
  O2-  O192  1  0.04799886  0.07572564  0.26957063  1
  O2-  O193  1  0.03933240  0.08585160  0.60468834  1
  O2-  O194  1  0.04894331  0.07958579  0.93842743  1
  O2-  O195  1  0.04758638  0.58241582  0.26482941  1
  O2-  O196  1  0.05067449  0.58700735  0.60220435  1
  O2-  O197  1  0.03787886  0.58359719  0.92913669  1
  O2-  O198  1  0.53772902  0.08410601  0.26827325  1
  O2-  O199  1  0.54474400  0.07879403  0.59448997  1
  O2-  O200  1  0.53475718  0.08735074  0.93294906  1
  O2-  O201  1  0.54130469  0.59164457  0.26789188  1
  O2-  O202  1  0.54621000  0.58748347  0.60484573  1
  O2-  O203  1  0.55094280  0.58218360  0.93837331  1
  O2-  O204  1  0.17057416  0.20205511  0.26668100  1
  O2-  O205  1  0.16985897  0.19012583  0.61300730  1
  O2-  O206  1  0.16866889  0.19738487  0.93627015  1
  O2-  O207  1  0.16467031  0.71874305  0.26334229  1
  O2-  O208  1  0.16581520  0.71123436  0.60415239  1
  O2-  O209  1  0.16376979  0.71325547  0.92949002  1
  O2-  O210  1  0.66602689  0.19588891  0.27391732  1
  O2-  O211  1  0.67104126  0.20537730  0.59658532  1
  O2-  O212  1  0.66505655  0.20955909  0.93178864  1
  O2-  O213  1  0.66459658  0.70598075  0.27236172  1
  O2-  O214  1  0.66002162  0.71315324  0.59911818  1
  O2-  O215  1  0.66774251  0.70436434  0.93711531  1
  O2-  O216  1  0.08125048  0.46048904  0.06911102  1
  O2-  O217  1  0.09006286  0.45650706  0.39356018  1
  O2-  O218  1  0.07914030  0.45988514  0.73312599  1
  O2-  O219  1  0.08691131  0.95249504  0.06592959  1
  O2-  O220  1  0.08782715  0.94958961  0.39472961  1
  O2-  O221  1  0.08301585  0.96236852  0.73742100  1
  O2-  O222  1  0.58168771  0.44739623  0.05820958  1
  O2-  O223  1  0.58145912  0.46675563  0.40117835  1
  O2-  O224  1  0.58845475  0.46102051  0.73753250  1
  O2-  O225  1  0.57821141  0.96083063  0.06607785  1
  O2-  O226  1  0.58115592  0.95511459  0.39977619  1
  O2-  O227  1  0.58347993  0.95045522  0.72519675  1
  O2-  O228  1  0.20330554  0.32703819  0.06976426  1
  O2-  O229  1  0.21024721  0.33564152  0.39348520  1
  O2-  O230  1  0.19996824  0.32663946  0.73339483  1
  O2-  O231  1  0.21105180  0.83767607  0.06304943  1
  O2-  O232  1  0.21634321  0.83969945  0.39740393  1
  O2-  O233  1  0.20972889  0.83619450  0.73650468  1
  O2-  O234  1  0.70627574  0.33516696  0.06142479  1
  O2-  O235  1  0.69695945  0.32833702  0.39959177  1
  O2-  O236  1  0.71338392  0.33032911  0.73304031  1
  O2-  O237  1  0.69870351  0.83076104  0.06860562  1
  O2-  O238  1  0.69670212  0.83351537  0.39781952  1
  O2-  O239  1  0.70788672  0.83640524  0.72854566  1
  O2-  O240  1  0.45900180  0.42050932  0.26344290  1
  O2-  O241  1  0.45864401  0.42219387  0.60339027  1
  O2-  O242  1  0.44399957  0.42042613  0.94131777  1
  O2-  O243  1  0.45410113  0.91456254  0.27331096  1
  O2-  O244  1  0.45683176  0.91001113  0.59901784  1
  O2-  O245  1  0.45971961  0.91508897  0.92846215  1
  O2-  O246  1  0.95741353  0.41849581  0.26656732  1
  O2-  O247  1  0.95630915  0.42104318  0.59813966  1
  O2-  O248  1  0.96194639  0.41378109  0.93020221  1
  O2-  O249  1  0.95844075  0.91233166  0.26856699  1
  O2-  O250  1  0.96343568  0.91701002  0.59911821  1
  O2-  O251  1  0.95530258  0.91725468  0.93916202  1
  O2-  O252  1  0.33644559  0.28909526  0.26177165  1
  O2-  O253  1  0.33030251  0.29296688  0.60181945  1
  O2-  O254  1  0.33233293  0.29232309  0.93844928  1
  O2-  O255  1  0.33955983  0.79140087  0.27074428  1
  O2-  O256  1  0.33478571  0.79424181  0.60298656  1
  O2-  O257  1  0.33373819  0.79039146  0.93014891  1
  O2-  O258  1  0.82687125  0.29155426  0.26869289  1
  O2-  O259  1  0.83820681  0.28580957  0.59720813  1
  O2-  O260  1  0.83469205  0.28716262  0.93064655  1
  O2-  O261  1  0.82883474  0.80479377  0.27451340  1
  O2-  O262  1  0.83237643  0.79483686  0.59643630  1
  O2-  O263  1  0.83073445  0.80186843  0.94383851  1
  O2-  O264  1  0.40986546  0.03702415  0.06322449  1
  O2-  O265  1  0.41014741  0.03929395  0.39953134  1
  O2-  O266  1  0.41794502  0.03889951  0.72805920  1
  O2-  O267  1  0.42159055  0.55031847  0.06927500  1
  O2-  O268  1  0.41401179  0.54952247  0.39186157  1
  O2-  O269  1  0.42191434  0.54936395  0.73515803  1
  O2-  O270  1  0.91998384  0.04645239  0.06938084  1
  O2-  O271  1  0.91766312  0.03556703  0.40391270  1
  O2-  O272  1  0.90928394  0.03848786  0.73031696  1
  O2-  O273  1  0.91544729  0.53524235  0.06425161  1
  O2-  O274  1  0.92646476  0.54926061  0.40048522  1
  O2-  O275  1  0.91855531  0.55683804  0.72248482  1
  O2-  O276  1  0.29613252  0.16142004  0.06329192  1
  O2-  O277  1  0.29715623  0.16534223  0.39481209  1
  O2-  O278  1  0.30505757  0.16443138  0.73055369  1
  O2-  O279  1  0.28937893  0.67129088  0.06830452  1
  O2-  O280  1  0.29030381  0.66443002  0.39511820  1
  O2-  O281  1  0.29378728  0.66946077  0.73380146  1
  O2-  O282  1  0.78664046  0.16899709  0.06806009  1
  O2-  O283  1  0.79040891  0.16455930  0.40564213  1
  O2-  O284  1  0.79322770  0.16170162  0.72767763  1
  O2-  O285  1  0.79518023  0.66660822  0.06821828  1
  O2-  O286  1  0.79415777  0.67035493  0.40169153  1
  O2-  O287  1  0.78959871  0.66711849  0.72766484  1
