# generated using pymatgen
data_Ca2Al2SiO7
_symmetry_space_group_name_H-M   'P 1'
_cell_length_a   15.45728835
_cell_length_b   15.45716923
_cell_length_c   15.28365256
_cell_angle_alpha   90.00535961
_cell_angle_beta   89.98562066
_cell_angle_gamma   90.01426442
_symmetry_Int_Tables_number   1
_chemical_formula_structural   Ca2Al2SiO7
_chemical_formula_sum   'Ca48 Al48 Si24 O168'
_cell_volume   3651.66053126
_cell_formula_units_Z   24
loop_
 _symmetry_equiv_pos_site_id
 _symmetry_equiv_pos_as_xyz
  1  'x, y, z'
loop_
 _atom_type_symbol
 _atom_type_oxidation_number
  Ca2+  2.0
  Al0+  0.0
  Si0+  0.0
  O2-  -2.0
loop_
 _atom_site_type_symbol
 _atom_site_label
 _atom_site_symmetry_multiplicity
 _atom_site_fract_x
 _atom_site_fract_y
 _atom_site_fract_z
 _atom_site_occupancy
  Ca2+  Ca0  1  0.16872080  0.08291603  0.17002902  1
  Ca2+  Ca1  1  0.17285587  0.07758897  0.51265529  1
  Ca2+  Ca2  1  0.16504919  0.08292145  0.82840112  1
  Ca2+  Ca3  1  0.17984220  0.58113438  0.16980455  1
  Ca2+  Ca4  1  0.17221158  0.58965800  0.50359265  1
  Ca2+  Ca5  1  0.17148520  0.58577919  0.83685212  1
  Ca2+  Ca6  1  0.67866730  0.08124680  0.17349039  1
  Ca2+  Ca7  1  0.67493943  0.07350732  0.50571118  1
  Ca2+  Ca8  1  0.67516594  0.07868302  0.83227821  1
  Ca2+  Ca9  1  0.66327238  0.57653108  0.16478972  1
  Ca2+  Ca10  1  0.67051897  0.57208093  0.50635032  1
  Ca2+  Ca11  1  0.67638660  0.57694623  0.83931352  1
  Ca2+  Ca12  1  0.07370970  0.33081540  0.15881742  1
  Ca2+  Ca13  1  0.07453288  0.32714970  0.50241992  1
  Ca2+  Ca14  1  0.06747544  0.32992751  0.82307469  1
  Ca2+  Ca15  1  0.07485023  0.83327214  0.16696224  1
  Ca2+  Ca16  1  0.08006582  0.83183139  0.49903513  1
  Ca2+  Ca17  1  0.08380060  0.82626767  0.82320213  1
  Ca2+  Ca18  1  0.57882725  0.34487663  0.16290309  1
  Ca2+  Ca19  1  0.58438106  0.33573293  0.49507774  1
  Ca2+  Ca20  1  0.58200299  0.34190986  0.83241966  1
  Ca2+  Ca21  1  0.58199758  0.82926401  0.16321857  1
  Ca2+  Ca22  1  0.57725726  0.84208760  0.49489858  1
  Ca2+  Ca23  1  0.58284104  0.82808196  0.82581000  1
  Ca2+  Ca24  1  0.34676175  0.42731449  0.17016278  1
  Ca2+  Ca25  1  0.33594402  0.42180400  0.50000815  1
  Ca2+  Ca26  1  0.33137214  0.42112779  0.84294912  1
  Ca2+  Ca27  1  0.33255597  0.91470080  0.17270164  1
  Ca2+  Ca28  1  0.33309259  0.91831704  0.51352174  1
  Ca2+  Ca29  1  0.33172905  0.91672286  0.82671401  1
  Ca2+  Ca30  1  0.82278005  0.41659095  0.16871837  1
  Ca2+  Ca31  1  0.82355746  0.41736103  0.51088418  1
  Ca2+  Ca32  1  0.82898366  0.41901069  0.83921034  1
  Ca2+  Ca33  1  0.82960039  0.92499088  0.17788998  1
  Ca2+  Ca34  1  0.82680443  0.92021340  0.50451348  1
  Ca2+  Ca35  1  0.83578707  0.92800165  0.83595988  1
  Ca2+  Ca36  1  0.42232557  0.18073385  0.16098324  1
  Ca2+  Ca37  1  0.41830959  0.17009249  0.49411958  1
  Ca2+  Ca38  1  0.41688303  0.17105024  0.82675664  1
  Ca2+  Ca39  1  0.42160770  0.66538475  0.16181167  1
  Ca2+  Ca40  1  0.41645265  0.67915746  0.49365880  1
  Ca2+  Ca41  1  0.42522565  0.66638350  0.82993790  1
  Ca2+  Ca42  1  0.91047329  0.16876208  0.15971490  1
  Ca2+  Ca43  1  0.91435400  0.16052847  0.50149175  1
  Ca2+  Ca44  1  0.90991204  0.17464171  0.82642944  1
  Ca2+  Ca45  1  0.90850299  0.67298947  0.16233162  1
  Ca2+  Ca46  1  0.91915442  0.66818310  0.49908627  1
  Ca2+  Ca47  1  0.92071104  0.65886195  0.82351197  1
  Al0+  Al48  1  0.00084419  -0.00114343  0.00414282  1
  Al0+  Al49  1  0.00247927  -0.00098698  0.33181737  1
  Al0+  Al50  1  0.00138862  -0.00096780  0.67099718  1
  Al0+  Al51  1  0.00040076  0.50049770  0.00111427  1
  Al0+  Al52  1  0.00272603  0.49754246  0.33081632  1
  Al0+  Al53  1  0.00192457  0.49916669  0.65731765  1
  Al0+  Al54  1  0.49719237  0.00115137  -0.00010840  1
  Al0+  Al55  1  0.50058614  0.00206205  0.32776473  1
  Al0+  Al56  1  0.49937837  0.00177224  0.67186182  1
  Al0+  Al57  1  0.49968198  0.50272147  -0.00324703  1
  Al0+  Al58  1  0.49943761  0.50209533  0.34066906  1
  Al0+  Al59  1  0.50032184  0.50170793  0.66791082  1
  Al0+  Al60  1  0.24953205  0.24852429  -0.00309771  1
  Al0+  Al61  1  0.24929120  0.25157981  0.32767038  1
  Al0+  Al62  1  0.24865319  0.25139938  0.66583421  1
  Al0+  Al63  1  0.24826357  0.75121588  0.00520282  1
  Al0+  Al64  1  0.25087306  0.74902519  0.33137619  1
  Al0+  Al65  1  0.25089530  0.75090457  0.66321808  1
  Al0+  Al66  1  0.74832885  0.24843663  0.00389053  1
  Al0+  Al67  1  0.75129316  0.24981793  0.34099390  1
  Al0+  Al68  1  0.74542502  0.24980623  0.66916988  1
  Al0+  Al69  1  0.74848369  0.75057950  -0.00317635  1
  Al0+  Al70  1  0.75024708  0.74962831  0.33224802  1
  Al0+  Al71  1  0.75011638  0.74661211  0.67142774  1
  Al0+  Al72  1  0.82430797  0.57310230  0.01597649  1
  Al0+  Al73  1  0.92803325  0.31999893  0.98790134  1
  Al0+  Al74  1  0.82430304  0.56867532  0.67949920  1
  Al0+  Al75  1  0.43304997  0.81989749  0.65458235  1
  Al0+  Al76  1  0.43066585  0.32166618  0.32056857  1
  Al0+  Al77  1  0.43037614  0.32152161  0.98527070  1
  Al0+  Al78  1  0.67728636  0.92721952  0.34666277  1
  Al0+  Al79  1  0.68000574  0.43143861  0.34802527  1
  Al0+  Al80  1  0.07077692  0.17751136  0.65145309  1
  Al0+  Al81  1  0.42877687  0.82333945  0.31888742  1
  Al0+  Al82  1  0.07196939  0.67858310  0.65260058  1
  Al0+  Al83  1  0.31983795  0.57037518  0.01238145  1
  Al0+  Al84  1  0.82148532  0.06952954  0.68240869  1
  Al0+  Al85  1  0.81994123  0.06897981  0.01482116  1
  Al0+  Al86  1  0.32144209  0.07422645  0.68121666  1
  Al0+  Al87  1  0.31964975  0.57045712  0.34910117  1
  Al0+  Al88  1  0.57017537  0.68106294  0.98504424  1
  Al0+  Al89  1  0.67694039  0.92659902  0.68234358  1
  Al0+  Al90  1  0.82368665  0.07027078  0.34995756  1
  Al0+  Al91  1  0.67702617  0.42857934  0.68393666  1
  Al0+  Al92  1  0.67956962  0.43027435  0.01567125  1
  Al0+  Al93  1  0.92522095  0.31920191  0.65019098  1
  Al0+  Al94  1  0.92985189  0.81945522  0.32057502  1
  Al0+  Al95  1  0.17956401  0.92741979  0.68101567  1
  Si0+  Si96  1  0.67557390  0.92744786  0.01631741  1
  Si0+  Si97  1  0.32006104  0.07305804  0.34430171  1
  Si0+  Si98  1  0.31957688  0.57179323  0.68133564  1
  Si0+  Si99  1  0.57099646  0.17606281  0.98202688  1
  Si0+  Si100  1  0.56853573  0.17929756  0.65160666  1
  Si0+  Si101  1  0.18122524  0.92918787  0.34741278  1
  Si0+  Si102  1  0.42464731  0.82371044  0.98246730  1
  Si0+  Si103  1  0.57107901  0.67817893  0.31793000  1
  Si0+  Si104  1  0.42768768  0.32367057  0.65139700  1
  Si0+  Si105  1  0.57356667  0.67677588  0.64808376  1
  Si0+  Si106  1  0.92932869  0.82183271  0.98527575  1
  Si0+  Si107  1  0.92768318  0.32045001  0.31767734  1
  Si0+  Si108  1  0.17650092  0.42595887  0.35109716  1
  Si0+  Si109  1  0.07114238  0.68074262  0.98691675  1
  Si0+  Si110  1  0.17789083  0.42598030  0.01563276  1
  Si0+  Si111  1  0.07100548  0.17897131  0.31701952  1
  Si0+  Si112  1  0.92646361  0.82180993  0.65231685  1
  Si0+  Si113  1  0.17987166  0.42897804  0.68018839  1
  Si0+  Si114  1  0.82580267  0.57233030  0.34917252  1
  Si0+  Si115  1  0.07181342  0.17546866  0.98281356  1
  Si0+  Si116  1  0.07316031  0.67621711  0.31362824  1
  Si0+  Si117  1  0.57409370  0.17923023  0.31646631  1
  Si0+  Si118  1  0.32136976  0.07318759  0.01735826  1
  Si0+  Si119  1  0.18000295  0.92942370  0.01803493  1
  O2-  O120  1  0.25125249  0.00095127  0.05944941  1
  O2-  O121  1  0.25616828  -0.00339673  0.38777139  1
  O2-  O122  1  0.24838465  0.00269782  0.73113221  1
  O2-  O123  1  0.24953945  0.49134451  0.06023918  1
  O2-  O124  1  0.24326831  0.49670459  0.39503630  1
  O2-  O125  1  0.25044636  0.49949980  0.72402125  1
  O2-  O126  1  0.74507914  -0.00551782  0.06139664  1
  O2-  O127  1  0.75098895  -0.00265254  0.39636663  1
  O2-  O128  1  0.75308590  -0.00597713  0.73261772  1
  O2-  O129  1  0.75335787  0.50050264  0.06644027  1
  O2-  O130  1  0.75835949  0.50299451  0.39318534  1
  O2-  O131  1  0.75324189  0.49721279  0.73107879  1
  O2-  O132  1  -0.00262133  0.24752667  0.27542567  1
  O2-  O133  1  -0.00578807  0.24351025  0.59974304  1
  O2-  O134  1  0.00323025  0.24486833  0.94144030  1
  O2-  O135  1  0.00029641  0.74108933  0.27028548  1
  O2-  O136  1  -0.00511561  0.75199968  0.60842802  1
  O2-  O137  1  -0.00478790  0.74570680  0.94387902  1
  O2-  O138  1  0.50717883  0.24991968  0.27209627  1
  O2-  O139  1  0.49835436  0.25232422  0.60995326  1
  O2-  O140  1  0.50349737  0.24626656  0.93755281  1
  O2-  O141  1  0.50579397  0.75075116  0.27346075  1
  O2-  O142  1  0.51030018  0.75035603  0.60392696  1
  O2-  O143  1  0.49634884  0.75832422  0.93973235  1
  O2-  O144  1  0.07319447  0.17552682  0.08911485  1
  O2-  O145  1  0.07474470  0.17929548  0.42135701  1
  O2-  O146  1  0.07361633  0.18406203  0.76482579  1
  O2-  O147  1  0.07467802  0.68522048  0.09182413  1
  O2-  O148  1  0.07496644  0.67816719  0.41899839  1
  O2-  O149  1  0.07438098  0.67955644  0.76629183  1
  O2-  O150  1  0.56734661  0.17272607  0.08767546  1
  O2-  O151  1  0.57036494  0.17735180  0.42199362  1
  O2-  O152  1  0.56676129  0.17853856  0.75669981  1
  O2-  O153  1  0.56756114  0.68168440  0.09864977  1
  O2-  O154  1  0.56823798  0.67688646  0.42333048  1
  O2-  O155  1  0.56872893  0.67434242  0.75357706  1
  O2-  O156  1  0.17431049  0.42582856  0.24543577  1
  O2-  O157  1  0.18301724  0.42829561  0.57502550  1
  O2-  O158  1  0.17788197  0.42818942  0.90998014  1
  O2-  O159  1  0.18025821  0.93175415  0.24165814  1
  O2-  O160  1  0.18343166  0.92628903  0.56704302  1
  O2-  O161  1  0.17908074  0.92662436  0.91367867  1
  O2-  O162  1  0.67923570  0.43278534  0.23518202  1
  O2-  O163  1  0.67430739  0.43121506  0.57001377  1
  O2-  O164  1  0.67982039  0.43207325  0.90282222  1
  O2-  O165  1  0.67850227  0.92934647  0.23265494  1
  O2-  O166  1  0.67523241  0.93071493  0.56885579  1
  O2-  O167  1  0.67631564  0.92921789  0.91103547  1
  O2-  O168  1  0.43134541  0.32058586  0.09859302  1
  O2-  O169  1  0.42866366  0.31791744  0.43377304  1
  O2-  O170  1  0.42690726  0.32450625  0.75655111  1
  O2-  O171  1  0.42388886  0.82347260  0.08831255  1
  O2-  O172  1  0.42578548  0.82319056  0.43169639  1
  O2-  O173  1  0.43097179  0.81491963  0.76776220  1
  O2-  O174  1  0.93056512  0.31782902  0.10178130  1
  O2-  O175  1  0.92964683  0.32227722  0.42211658  1
  O2-  O176  1  0.92836266  0.32088265  0.76397727  1
  O2-  O177  1  0.93298471  0.82368943  0.09059554  1
  O2-  O178  1  0.93405282  0.81992031  0.43325201  1
  O2-  O179  1  0.92912649  0.82145073  0.75831109  1
  O2-  O180  1  0.31507967  0.07394592  0.23889685  1
  O2-  O181  1  0.32181209  0.07386066  0.56685590  1
  O2-  O182  1  0.32144684  0.07486291  0.91294044  1
  O2-  O183  1  0.31960413  0.56920117  0.23577614  1
  O2-  O184  1  0.31879062  0.57077230  0.57617672  1
  O2-  O185  1  0.31583072  0.57146427  0.89906176  1
  O2-  O186  1  0.82304995  0.07022170  0.23587661  1
  O2-  O187  1  0.81945966  0.06703224  0.56904214  1
  O2-  O188  1  0.82164869  0.06761690  0.90237716  1
  O2-  O189  1  0.82586784  0.57108175  0.24362114  1
  O2-  O190  1  0.82241317  0.56844299  0.56539805  1
  O2-  O191  1  0.82677146  0.57134707  0.90303859  1
  O2-  O192  1  0.04734890  0.08640117  0.26846640  1
  O2-  O193  1  0.05008304  0.07571094  0.60168948  1
  O2-  O194  1  0.04702857  0.08077631  0.93903899  1
  O2-  O195  1  0.05410224  0.58011768  0.26933980  1
  O2-  O196  1  0.04648596  0.58323040  0.59352948  1
  O2-  O197  1  0.05129407  0.58663041  0.94094882  1
  O2-  O198  1  0.54673924  0.08806818  0.26596252  1
  O2-  O199  1  0.53803231  0.08881772  0.60320255  1
  O2-  O200  1  0.54189868  0.08350289  0.93458300  1
  O2-  O201  1  0.53796419  0.58696685  0.27148735  1
  O2-  O202  1  0.54046700  0.58559966  0.60047763  1
  O2-  O203  1  0.53530496  0.58740541  0.92870516  1
  O2-  O204  1  0.16055995  0.21008176  0.26537483  1
  O2-  O205  1  0.16796720  0.21137456  0.59685875  1
  O2-  O206  1  0.16614929  0.19830802  0.93732431  1
  O2-  O207  1  0.16457014  0.70737822  0.26592134  1
  O2-  O208  1  0.16641867  0.71321718  0.59620494  1
  O2-  O209  1  0.16100541  0.71490696  0.93853921  1
  O2-  O210  1  0.66925335  0.20382483  0.27334309  1
  O2-  O211  1  0.65947485  0.20583754  0.60250896  1
  O2-  O212  1  0.66538677  0.19974057  0.93840751  1
  O2-  O213  1  0.66605618  0.69799372  0.27182872  1
  O2-  O214  1  0.66992712  0.69467740  0.60524581  1
  O2-  O215  1  0.66687590  0.70950923  0.92929223  1
  O2-  O216  1  0.08676638  0.45538607  0.06455436  1
  O2-  O217  1  0.08243176  0.44930312  0.39763094  1
  O2-  O218  1  0.08806787  0.45783738  0.72560430  1
  O2-  O219  1  0.08938478  0.95848702  0.06795800  1
  O2-  O220  1  0.09144451  0.96036365  0.39513420  1
  O2-  O221  1  0.08150379  0.95069140  0.73640593  1
  O2-  O222  1  0.58133032  0.46387264  0.06656147  1
  O2-  O223  1  0.58528284  0.46372640  0.40426916  1
  O2-  O224  1  0.57899561  0.46111369  0.73622875  1
  O2-  O225  1  0.58045051  0.95243567  0.06072700  1
  O2-  O226  1  0.57811783  0.95889791  0.39705260  1
  O2-  O227  1  0.58157536  0.96007904  0.73797372  1
  O2-  O228  1  0.19880716  0.33019560  0.05990731  1
  O2-  O229  1  0.20596502  0.33306808  0.39623744  1
  O2-  O230  1  0.20717765  0.33872644  0.72999999  1
  O2-  O231  1  0.20791176  0.83926562  0.06917419  1
  O2-  O232  1  0.20393638  0.83543841  0.39175115  1
  O2-  O233  1  0.21401686  0.83095995  0.73562841  1
  O2-  O234  1  0.70297778  0.33048485  0.06843530  1
  O2-  O235  1  0.70741190  0.33418116  0.40199713  1
  O2-  O236  1  0.69763251  0.32862165  0.73504101  1
  O2-  O237  1  0.69984800  0.83338350  0.06092643  1
  O2-  O238  1  0.70215103  0.82752309  0.39843604  1
  O2-  O239  1  0.69884157  0.82598064  0.73264779  1
  O2-  O240  1  0.46167657  0.41993964  0.27014174  1
  O2-  O241  1  0.45597672  0.41576370  0.60408840  1
  O2-  O242  1  0.45817996  0.41807669  0.93071870  1
  O2-  O243  1  0.45441957  0.92082033  0.26248381  1
  O2-  O244  1  0.45756887  0.91987727  0.60383108  1
  O2-  O245  1  0.44527591  0.91959502  0.93868572  1
  O2-  O246  1  0.95770198  0.41144575  0.26864397  1
  O2-  O247  1  0.96131033  0.41398197  0.59392841  1
  O2-  O248  1  0.96074418  0.41695212  0.93528891  1
  O2-  O249  1  0.96706649  0.91399030  0.26405747  1
  O2-  O250  1  0.95379715  0.91466176  0.60659856  1
  O2-  O251  1  0.96494285  0.91134507  0.93801909  1
  O2-  O252  1  0.33442618  0.29099745  0.26449032  1
  O2-  O253  1  0.33587724  0.29737753  0.60367821  1
  O2-  O254  1  0.33216312  0.29129732  0.93288366  1
  O2-  O255  1  0.33257361  0.79017560  0.26400603  1
  O2-  O256  1  0.33796382  0.78623043  0.59912759  1
  O2-  O257  1  0.33082172  0.79504354  0.93874921  1
  O2-  O258  1  0.83505085  0.29322310  0.27203371  1
  O2-  O259  1  0.82472209  0.29420239  0.60024692  1
  O2-  O260  1  0.83103817  0.28860987  0.93613332  1
  O2-  O261  1  0.83239081  0.79301495  0.26483051  1
  O2-  O262  1  0.83274123  0.79596981  0.60657590  1
  O2-  O263  1  0.83548803  0.80278081  0.93980550  1
  O2-  O264  1  0.41308848  0.04631128  0.06581887  1
  O2-  O265  1  0.41489536  0.05303897  0.38738855  1
  O2-  O266  1  0.41701384  0.04480341  0.73789593  1
  O2-  O267  1  0.41618707  0.54120995  0.06635435  1
  O2-  O268  1  0.41365100  0.53939266  0.40652326  1
  O2-  O269  1  0.41159240  0.54468649  0.72786825  1
  O2-  O270  1  0.91749166  0.03860308  0.06868419  1
  O2-  O271  1  0.92330585  0.04116211  0.39942138  1
  O2-  O272  1  0.92101735  0.04657648  0.73544406  1
  O2-  O273  1  0.92432126  0.54945952  0.06900076  1
  O2-  O274  1  0.92138984  0.54816363  0.39218025  1
  O2-  O275  1  0.92523876  0.54232178  0.72839207  1
  O2-  O276  1  0.29140058  0.16435667  0.06598332  1
  O2-  O277  1  0.28734751  0.16320562  0.39177210  1
  O2-  O278  1  0.29273613  0.17279211  0.73436472  1
  O2-  O279  1  0.28561851  0.66541828  0.06838650  1
  O2-  O280  1  0.28727522  0.66751666  0.40178753  1
  O2-  O281  1  0.28919546  0.66193968  0.72869797  1
  O2-  O282  1  0.78849894  0.16433000  0.07049981  1
  O2-  O283  1  0.79676805  0.16809822  0.40332002  1
  O2-  O284  1  0.78682213  0.16630309  0.73416450  1
  O2-  O285  1  0.79344597  0.67279287  0.06597361  1
  O2-  O286  1  0.80125374  0.66632348  0.39394184  1
  O2-  O287  1  0.79966776  0.66709680  0.73380157  1
