# generated using pymatgen
data_Ca2Al2SiO7
_symmetry_space_group_name_H-M   'P 1'
_cell_length_a   15.45536435
_cell_length_b   15.45531884
_cell_length_c   15.28174652
_cell_angle_alpha   89.99591054
_cell_angle_beta   90.00166169
_cell_angle_gamma   89.99691339
_symmetry_Int_Tables_number   1
_chemical_formula_structural   Ca2Al2SiO7
_chemical_formula_sum   'Ca48 Al48 Si24 O168'
_cell_volume   3650.31385172
_cell_formula_units_Z   24
loop_
 _symmetry_equiv_pos_site_id
 _symmetry_equiv_pos_as_xyz
  1  'x, y, z'
loop_
 _atom_type_symbol
 _atom_type_oxidation_number
  Ca2+  2.0
  Al0+  0.0
  Si0+  0.0
  O2-  -2.0
loop_
 _atom_site_type_symbol
 _atom_site_label
 _atom_site_symmetry_multiplicity
 _atom_site_fract_x
 _atom_site_fract_y
 _atom_site_fract_z
 _atom_site_occupancy
  Ca2+  Ca0  1  0.17299495  0.07031959  0.17734692  1
  Ca2+  Ca1  1  0.17727835  0.08652562  0.50446624  1
  Ca2+  Ca2  1  0.17041615  0.08273483  0.83813619  1
  Ca2+  Ca3  1  0.17469614  0.58226225  0.16816370  1
  Ca2+  Ca4  1  0.16919261  0.57649829  0.50753370  1
  Ca2+  Ca5  1  0.17518739  0.59137222  0.83757475  1
  Ca2+  Ca6  1  0.65651449  0.07940234  0.16229915  1
  Ca2+  Ca7  1  0.66231452  0.07806006  0.51140713  1
  Ca2+  Ca8  1  0.65710534  0.07686164  0.83643234  1
  Ca2+  Ca9  1  0.66958248  0.59003757  0.17361253  1
  Ca2+  Ca10  1  0.67646579  0.57853638  0.50867378  1
  Ca2+  Ca11  1  0.66972533  0.57932348  0.83596149  1
  Ca2+  Ca12  1  0.07971200  0.34060856  0.16852863  1
  Ca2+  Ca13  1  0.07649532  0.33568406  0.49653737  1
  Ca2+  Ca14  1  0.07692659  0.32748048  0.82231036  1
  Ca2+  Ca15  1  0.08884062  0.83081473  0.15791385  1
  Ca2+  Ca16  1  0.08742227  0.82674907  0.49798451  1
  Ca2+  Ca17  1  0.09200308  0.82396154  0.83164709  1
  Ca2+  Ca18  1  0.56704539  0.32961817  0.15791524  1
  Ca2+  Ca19  1  0.57974135  0.33196460  0.49702159  1
  Ca2+  Ca20  1  0.58178282  0.32466821  0.82862737  1
  Ca2+  Ca21  1  0.57766993  0.82447280  0.15736626  1
  Ca2+  Ca22  1  0.58429771  0.82787351  0.49506732  1
  Ca2+  Ca23  1  0.58211753  0.83409048  0.83308254  1
  Ca2+  Ca24  1  0.33350511  0.41691563  0.17153448  1
  Ca2+  Ca25  1  0.33083411  0.41784232  0.50280800  1
  Ca2+  Ca26  1  0.33888139  0.42856743  0.83795854  1
  Ca2+  Ca27  1  0.32657756  0.91513064  0.16901992  1
  Ca2+  Ca28  1  0.33143073  0.92815059  0.50272521  1
  Ca2+  Ca29  1  0.33192568  0.92179589  0.84004981  1
  Ca2+  Ca30  1  0.83069707  0.42400461  0.17631769  1
  Ca2+  Ca31  1  0.83397293  0.42205304  0.50748305  1
  Ca2+  Ca32  1  0.83038617  0.41360312  0.82934077  1
  Ca2+  Ca33  1  0.82558842  0.91568822  0.16740367  1
  Ca2+  Ca34  1  0.82448889  0.91851362  0.50686575  1
  Ca2+  Ca35  1  0.81990504  0.91436448  0.83696993  1
  Ca2+  Ca36  1  0.41144926  0.17617545  0.16316004  1
  Ca2+  Ca37  1  0.41715595  0.16594102  0.49667172  1
  Ca2+  Ca38  1  0.42252625  0.16745740  0.82838953  1
  Ca2+  Ca39  1  0.42677833  0.66783085  0.15476996  1
  Ca2+  Ca40  1  0.42403716  0.66268826  0.49612128  1
  Ca2+  Ca41  1  0.41245847  0.67144905  0.83307160  1
  Ca2+  Ca42  1  0.91652832  0.17401545  0.16463168  1
  Ca2+  Ca43  1  0.91901013  0.18015632  0.49802990  1
  Ca2+  Ca44  1  0.92404981  0.17125387  0.82187733  1
  Ca2+  Ca45  1  0.92354727  0.66558519  0.16303869  1
  Ca2+  Ca46  1  0.91745803  0.65925896  0.49893283  1
  Ca2+  Ca47  1  0.92890572  0.66292527  0.82651604  1
  Al0+  Al48  1  -0.00185248  0.00107396  0.00445141  1
  Al0+  Al49  1  -0.00201646  -0.00178008  0.33737160  1
  Al0+  Al50  1  0.00001282  -0.00205937  0.66119697  1
  Al0+  Al51  1  -0.00015531  0.50084333  -0.00428100  1
  Al0+  Al52  1  0.00051890  0.50075794  0.33556645  1
  Al0+  Al53  1  0.00076866  0.50076015  0.66341537  1
  Al0+  Al54  1  0.49958045  0.00003375  0.00107106  1
  Al0+  Al55  1  0.49928904  -0.00226179  0.33574768  1
  Al0+  Al56  1  0.49715054  0.00035353  0.66993518  1
  Al0+  Al57  1  0.50147597  0.50007048  -0.00275265  1
  Al0+  Al58  1  0.50205129  0.49769535  0.32478435  1
  Al0+  Al59  1  0.50044156  0.50060463  0.67403334  1
  Al0+  Al60  1  0.24730180  0.25248756  -0.00351123  1
  Al0+  Al61  1  0.24957516  0.24977464  0.33668999  1
  Al0+  Al62  1  0.25122075  0.25000454  0.66892607  1
  Al0+  Al63  1  0.25151147  0.74896548  0.00189812  1
  Al0+  Al64  1  0.25113636  0.75000793  0.33731686  1
  Al0+  Al65  1  0.25034532  0.75073765  0.66205650  1
  Al0+  Al66  1  0.74953112  0.25115657  -0.00135794  1
  Al0+  Al67  1  0.75061442  0.24932309  0.32701985  1
  Al0+  Al68  1  0.74951217  0.24907427  0.66164287  1
  Al0+  Al69  1  0.75084835  0.75093014  0.00173055  1
  Al0+  Al70  1  0.75261279  0.74976005  0.33359136  1
  Al0+  Al71  1  0.75063909  0.74913149  0.67511493  1
  Al0+  Al72  1  0.42865945  0.81998128  0.98506416  1
  Al0+  Al73  1  0.92928458  0.32056882  0.65021228  1
  Al0+  Al74  1  0.32085118  0.07072867  0.34832119  1
  Al0+  Al75  1  0.31913357  0.07181748  0.68309543  1
  Al0+  Al76  1  0.32061634  0.57221762  0.67953537  1
  Al0+  Al77  1  0.07187324  0.68110182  0.65079137  1
  Al0+  Al78  1  0.42495097  0.32228250  0.98232724  1
  Al0+  Al79  1  0.32168873  0.56943139  0.01454877  1
  Al0+  Al80  1  0.67809995  0.92922541  0.01593289  1
  Al0+  Al81  1  0.57210673  0.67970744  0.32212549  1
  Al0+  Al82  1  0.67828000  0.92940746  0.68037974  1
  Al0+  Al83  1  0.17972194  0.43107910  0.34671941  1
  Al0+  Al84  1  0.07451880  0.17612063  0.65059694  1
  Al0+  Al85  1  0.92994918  0.32226230  0.31769463  1
  Al0+  Al86  1  0.17664127  0.92570846  0.35092236  1
  Al0+  Al87  1  0.82315810  0.57005366  0.68470736  1
  Al0+  Al88  1  0.67868344  0.42648100  0.68188645  1
  Al0+  Al89  1  0.57463345  0.67874729  0.98225151  1
  Al0+  Al90  1  0.56813275  0.17834086  0.65224273  1
  Al0+  Al91  1  0.81970547  0.57056905  0.34650108  1
  Al0+  Al92  1  0.57004060  0.18011231  0.98457892  1
  Al0+  Al93  1  0.07014278  0.68063296  0.98789282  1
  Al0+  Al94  1  0.17925760  0.92987201  0.01212624  1
  Al0+  Al95  1  0.42815416  0.31923171  0.32087448  1
  Si0+  Si96  1  0.68045400  0.42785798  0.01677645  1
  Si0+  Si97  1  0.92870523  0.82227916  0.31775653  1
  Si0+  Si98  1  0.42950120  0.82104293  0.65018378  1
  Si0+  Si99  1  0.92799825  0.82462344  0.98402587  1
  Si0+  Si100  1  0.17841104  0.42865069  0.68349682  1
  Si0+  Si101  1  0.82175828  0.07411989  0.01770111  1
  Si0+  Si102  1  0.67735909  0.42617870  0.34693921  1
  Si0+  Si103  1  0.32576145  0.57083364  0.34829261  1
  Si0+  Si104  1  0.42839266  0.82180294  0.31739859  1
  Si0+  Si105  1  0.17538299  0.42765259  0.01552908  1
  Si0+  Si106  1  0.68108322  0.93015604  0.34748958  1
  Si0+  Si107  1  0.32095524  0.07466430  0.01667877  1
  Si0+  Si108  1  0.82252044  0.56981346  0.01568620  1
  Si0+  Si109  1  0.42917094  0.32505579  0.65009096  1
  Si0+  Si110  1  0.82123719  0.07358831  0.34887359  1
  Si0+  Si111  1  0.07087324  0.17706239  0.31623842  1
  Si0+  Si112  1  0.92473093  0.82039371  0.64960029  1
  Si0+  Si113  1  0.17724550  0.92789283  0.68278684  1
  Si0+  Si114  1  0.82283133  0.07135450  0.68094278  1
  Si0+  Si115  1  0.92918033  0.32177998  0.98500822  1
  Si0+  Si116  1  0.06900995  0.17750396  0.98764921  1
  Si0+  Si117  1  0.07163597  0.68007587  0.31854684  1
  Si0+  Si118  1  0.57204746  0.67871804  0.65323779  1
  Si0+  Si119  1  0.57253248  0.17442029  0.31663594  1
  O2-  O120  1  0.25233888  0.00536919  0.06014600  1
  O2-  O121  1  0.24728844  -0.00017626  0.39870247  1
  O2-  O122  1  0.23959805  0.00127912  0.72811145  1
  O2-  O123  1  0.24845244  0.49193342  0.05939976  1
  O2-  O124  1  0.25621060  0.50397655  0.39346968  1
  O2-  O125  1  0.24646864  0.49756450  0.72749401  1
  O2-  O126  1  0.75215462  0.00584423  0.06194687  1
  O2-  O127  1  0.74671817  0.00570749  0.39027836  1
  O2-  O128  1  0.75384523  0.00405219  0.72645075  1
  O2-  O129  1  0.74856356  0.50237146  0.05897916  1
  O2-  O130  1  0.74562917  0.49476488  0.39160365  1
  O2-  O131  1  0.75120914  0.49763976  0.73376446  1
  O2-  O132  1  0.00331302  0.24628341  0.26973497  1
  O2-  O133  1  0.00299332  0.24912558  0.60128948  1
  O2-  O134  1  -0.00036543  0.24968637  0.94477200  1
  O2-  O135  1  0.00493946  0.75591532  0.27675926  1
  O2-  O136  1  -0.00560253  0.75334073  0.60405135  1
  O2-  O137  1  -0.00211436  0.75752700  0.94025064  1
  O2-  O138  1  0.50297822  0.24338445  0.27509825  1
  O2-  O139  1  0.49636290  0.25526833  0.60489569  1
  O2-  O140  1  0.49606542  0.24897278  0.93352679  1
  O2-  O141  1  0.49419078  0.75016876  0.27443406  1
  O2-  O142  1  0.50142250  0.74957702  0.60946328  1
  O2-  O143  1  0.50174484  0.75011758  0.93258261  1
  O2-  O144  1  0.06716831  0.17663859  0.09274661  1
  O2-  O145  1  0.06824839  0.17794993  0.42137113  1
  O2-  O146  1  0.07107612  0.17688394  0.76528261  1
  O2-  O147  1  0.06766999  0.67922717  0.10156423  1
  O2-  O148  1  0.06976872  0.67972610  0.42350503  1
  O2-  O149  1  0.07336609  0.68423282  0.76396294  1
  O2-  O150  1  0.57048250  0.18359381  0.09872779  1
  O2-  O151  1  0.57410107  0.17324897  0.42216252  1
  O2-  O152  1  0.56594033  0.17674621  0.76475365  1
  O2-  O153  1  0.57518104  0.68140181  0.09653886  1
  O2-  O154  1  0.57235735  0.68189708  0.43577086  1
  O2-  O155  1  0.57180035  0.68005347  0.75776535  1
  O2-  O156  1  0.17842297  0.43477821  0.23333062  1
  O2-  O157  1  0.17967545  0.42991595  0.57756245  1
  O2-  O158  1  0.17069410  0.42813453  0.91048551  1
  O2-  O159  1  0.17753326  0.92562903  0.23694911  1
  O2-  O160  1  0.18130883  0.92616877  0.57736001  1
  O2-  O161  1  0.17829430  0.93323217  0.89914092  1
  O2-  O162  1  0.67937548  0.42729938  0.24108275  1
  O2-  O163  1  0.67637066  0.43037224  0.56774767  1
  O2-  O164  1  0.68477389  0.42470150  0.91215806  1
  O2-  O165  1  0.68296547  0.92974609  0.24258637  1
  O2-  O166  1  0.67971439  0.92886740  0.56634038  1
  O2-  O167  1  0.68097580  0.92967062  0.90313244  1
  O2-  O168  1  0.42432140  0.31981767  0.09651352  1
  O2-  O169  1  0.43124114  0.32179445  0.43382289  1
  O2-  O170  1  0.43021048  0.32479235  0.75531704  1
  O2-  O171  1  0.42912220  0.81755417  0.09917086  1
  O2-  O172  1  0.43174039  0.82381516  0.42328279  1
  O2-  O173  1  0.42786652  0.82092315  0.75494363  1
  O2-  O174  1  0.92983560  0.32307683  0.09040952  1
  O2-  O175  1  0.92976573  0.32124457  0.42981853  1
  O2-  O176  1  0.93101047  0.31763223  0.76472390  1
  O2-  O177  1  0.92780036  0.82330599  0.09018249  1
  O2-  O178  1  0.92365448  0.82123567  0.42245634  1
  O2-  O179  1  0.92442776  0.82110024  0.75499702  1
  O2-  O180  1  0.31966865  0.06956792  0.23450279  1
  O2-  O181  1  0.32191133  0.06880010  0.57015081  1
  O2-  O182  1  0.31850786  0.07449975  0.91110136  1
  O2-  O183  1  0.32408522  0.57113788  0.24281744  1
  O2-  O184  1  0.32148554  0.57054458  0.56590597  1
  O2-  O185  1  0.31714355  0.57139407  0.90155128  1
  O2-  O186  1  0.82358604  0.07213422  0.24375360  1
  O2-  O187  1  0.82052073  0.06887385  0.57490821  1
  O2-  O188  1  0.82592404  0.07406295  0.91259616  1
  O2-  O189  1  0.81987775  0.57108492  0.23273903  1
  O2-  O190  1  0.81968961  0.57130261  0.57075901  1
  O2-  O191  1  0.82565984  0.56663743  0.91130769  1
  O2-  O192  1  0.04218129  0.08276176  0.27185886  1
  O2-  O193  1  0.04800846  0.07722116  0.59740588  1
  O2-  O194  1  0.03947008  0.08670250  0.93915195  1
  O2-  O195  1  0.03900646  0.59053376  0.27038320  1
  O2-  O196  1  0.04355218  0.58384663  0.59756223  1
  O2-  O197  1  0.03759254  0.58555825  0.93177024  1
  O2-  O198  1  0.54667299  0.08012524  0.27143917  1
  O2-  O199  1  0.53438273  0.08192636  0.59834373  1
  O2-  O200  1  0.54584839  0.07973919  0.93544284  1
  O2-  O201  1  0.54740945  0.58292136  0.26581407  1
  O2-  O202  1  0.54311271  0.58677961  0.60664931  1
  O2-  O203  1  0.55025749  0.57904957  0.93253182  1
  O2-  O204  1  0.16479158  0.20171984  0.27142930  1
  O2-  O205  1  0.17353890  0.20530276  0.59975035  1
  O2-  O206  1  0.16032179  0.20330820  0.93897022  1
  O2-  O207  1  0.16597975  0.70373604  0.27343891  1
  O2-  O208  1  0.16674760  0.71391687  0.59375382  1
  O2-  O209  1  0.16621801  0.71154713  0.93459962  1
  O2-  O210  1  0.66616266  0.19759348  0.26927808  1
  O2-  O211  1  0.66610639  0.20332531  0.59818511  1
  O2-  O212  1  0.66924142  0.20914591  0.93263040  1
  O2-  O213  1  0.66755142  0.71477311  0.26776831  1
  O2-  O214  1  0.66463686  0.70747811  0.60760967  1
  O2-  O215  1  0.67386732  0.70782890  0.93167451  1
  O2-  O216  1  0.08314881  0.45863567  0.06306767  1
  O2-  O217  1  0.08527361  0.46496652  0.40246096  1
  O2-  O218  1  0.08445338  0.45355549  0.72811904  1
  O2-  O219  1  0.08155673  0.95802809  0.06723306  1
  O2-  O220  1  0.07587698  0.94899528  0.40138559  1
  O2-  O221  1  0.07999039  0.94465652  0.72482969  1
  O2-  O222  1  0.58709990  0.45237348  0.06203113  1
  O2-  O223  1  0.58344338  0.45107625  0.39200559  1
  O2-  O224  1  0.58211310  0.45567630  0.73746101  1
  O2-  O225  1  0.58166096  0.95919147  0.07153561  1
  O2-  O226  1  0.58777794  0.95157515  0.39472934  1
  O2-  O227  1  0.58256661  0.96081909  0.73405772  1
  O2-  O228  1  0.19535103  0.33234245  0.06164216  1
  O2-  O229  1  0.20607509  0.33377975  0.40036389  1
  O2-  O230  1  0.20215635  0.33491123  0.72973730  1
  O2-  O231  1  0.21098066  0.83426544  0.06734325  1
  O2-  O232  1  0.20665013  0.82793890  0.40491349  1
  O2-  O233  1  0.20998003  0.83632864  0.72841660  1
  O2-  O234  1  0.71200345  0.33779020  0.06608638  1
  O2-  O235  1  0.70206810  0.33119539  0.39066145  1
  O2-  O236  1  0.70832153  0.32736118  0.73342359  1
  O2-  O237  1  0.71308740  0.83377634  0.07140521  1
  O2-  O238  1  0.71514609  0.84074632  0.39571093  1
  O2-  O239  1  0.70939171  0.83469279  0.73689043  1
  O2-  O240  1  0.45925294  0.41373249  0.26192855  1
  O2-  O241  1  0.45591930  0.41885353  0.60431465  1
  O2-  O242  1  0.45671421  0.41966810  0.93148914  1
  O2-  O243  1  0.45688482  0.91395452  0.26990366  1
  O2-  O244  1  0.45957243  0.91184976  0.60254948  1
  O2-  O245  1  0.45419131  0.91990825  0.93473802  1
  O2-  O246  1  0.96341483  0.41859098  0.26368411  1
  O2-  O247  1  0.95762147  0.41896534  0.59793590  1
  O2-  O248  1  0.95749758  0.41214399  0.93602745  1
  O2-  O249  1  0.94994322  0.91598898  0.27030690  1
  O2-  O250  1  0.94706814  0.91436658  0.60199977  1
  O2-  O251  1  0.94991822  0.91962410  0.93948383  1
  O2-  O252  1  0.33085547  0.28974925  0.26664175  1
  O2-  O253  1  0.33436011  0.30047067  0.60664057  1
  O2-  O254  1  0.32479524  0.29923714  0.93005005  1
  O2-  O255  1  0.33285622  0.79938102  0.27384192  1
  O2-  O256  1  0.33933078  0.79269419  0.60017279  1
  O2-  O257  1  0.33140040  0.78978536  0.93123916  1
  O2-  O258  1  0.83350001  0.29156776  0.26151831  1
  O2-  O259  1  0.83190352  0.29156256  0.59557187  1
  O2-  O260  1  0.83785843  0.29375504  0.93793941  1
  O2-  O261  1  0.83990861  0.78899933  0.26702614  1
  O2-  O262  1  0.83125570  0.79273522  0.60321082  1
  O2-  O263  1  0.83530368  0.79727893  0.93845454  1
  O2-  O264  1  0.41475433  0.05094296  0.06213687  1
  O2-  O265  1  0.41919682  0.04005801  0.40212901  1
  O2-  O266  1  0.41270861  0.03497191  0.73823384  1
  O2-  O267  1  0.42035492  0.54189381  0.06670056  1
  O2-  O268  1  0.41962108  0.54286491  0.39266146  1
  O2-  O269  1  0.41624070  0.54442013  0.73587424  1
  O2-  O270  1  0.91360386  0.04746542  0.06799886  1
  O2-  O271  1  0.91077170  0.04305822  0.39841972  1
  O2-  O272  1  0.91708702  0.04534652  0.72626786  1
  O2-  O273  1  0.91337318  0.53812595  0.06407645  1
  O2-  O274  1  0.91581246  0.54015618  0.40010587  1
  O2-  O275  1  0.92273690  0.54187756  0.73530184  1
  O2-  O276  1  0.29239671  0.16855310  0.06124111  1
  O2-  O277  1  0.29365112  0.16848597  0.40260151  1
  O2-  O278  1  0.29383925  0.16975401  0.73734984  1
  O2-  O279  1  0.28781666  0.66402298  0.07070630  1
  O2-  O280  1  0.30348883  0.66533684  0.39386470  1
  O2-  O281  1  0.28772266  0.66926018  0.73148582  1
  O2-  O282  1  0.79569704  0.16790020  0.06446470  1
  O2-  O283  1  0.79613891  0.16688191  0.39440909  1
  O2-  O284  1  0.79977018  0.16545564  0.72554724  1
  O2-  O285  1  0.79940329  0.66353754  0.06192141  1
  O2-  O286  1  0.79024413  0.66729121  0.40128089  1
  O2-  O287  1  0.79588199  0.66787929  0.73878513  1
