# generated using pymatgen
data_Ca2Al2SiO7
_symmetry_space_group_name_H-M   'P 1'
_cell_length_a   15.46389398
_cell_length_b   15.46373487
_cell_length_c   15.28867967
_cell_angle_alpha   89.99601627
_cell_angle_beta   90.01212896
_cell_angle_gamma   89.99926955
_symmetry_Int_Tables_number   1
_chemical_formula_structural   Ca2Al2SiO7
_chemical_formula_sum   'Ca48 Al48 Si24 O168'
_cell_volume   3655.97509862
_cell_formula_units_Z   24
loop_
 _symmetry_equiv_pos_site_id
 _symmetry_equiv_pos_as_xyz
  1  'x, y, z'
loop_
 _atom_type_symbol
 _atom_type_oxidation_number
  Ca2+  2.0
  Al0+  0.0
  Si0+  0.0
  O2-  -2.0
loop_
 _atom_site_type_symbol
 _atom_site_label
 _atom_site_symmetry_multiplicity
 _atom_site_fract_x
 _atom_site_fract_y
 _atom_site_fract_z
 _atom_site_occupancy
  Ca2+  Ca0  1  0.16421437  0.08665232  0.16526118  1
  Ca2+  Ca1  1  0.16096849  0.07917163  0.50766040  1
  Ca2+  Ca2  1  0.16073837  0.07502595  0.84163485  1
  Ca2+  Ca3  1  0.16718041  0.57988743  0.16590057  1
  Ca2+  Ca4  1  0.16485629  0.57378356  0.51281968  1
  Ca2+  Ca5  1  0.17041303  0.58271380  0.83626283  1
  Ca2+  Ca6  1  0.67188770  0.08343446  0.16125850  1
  Ca2+  Ca7  1  0.67533620  0.07903294  0.51563291  1
  Ca2+  Ca8  1  0.67530523  0.08400016  0.83977181  1
  Ca2+  Ca9  1  0.66534184  0.57568819  0.16492440  1
  Ca2+  Ca10  1  0.67168157  0.58091320  0.50517176  1
  Ca2+  Ca11  1  0.66824908  0.57516589  0.84093979  1
  Ca2+  Ca12  1  0.08936086  0.32435654  0.16247526  1
  Ca2+  Ca13  1  0.08636732  0.32799660  0.49951232  1
  Ca2+  Ca14  1  0.08070754  0.32069415  0.82375284  1
  Ca2+  Ca15  1  0.07402645  0.83227837  0.15429118  1
  Ca2+  Ca16  1  0.08216824  0.83044137  0.50028463  1
  Ca2+  Ca17  1  0.09228474  0.82728543  0.83037141  1
  Ca2+  Ca18  1  0.57622808  0.32919358  0.15055114  1
  Ca2+  Ca19  1  0.58360617  0.32506178  0.50151287  1
  Ca2+  Ca20  1  0.58053280  0.32474583  0.83385422  1
  Ca2+  Ca21  1  0.58350714  0.83290047  0.15816748  1
  Ca2+  Ca22  1  0.57665989  0.83941153  0.50322487  1
  Ca2+  Ca23  1  0.57676110  0.84509808  0.82773850  1
  Ca2+  Ca24  1  0.33025236  0.41859112  0.16680593  1
  Ca2+  Ca25  1  0.31862103  0.42264142  0.50811092  1
  Ca2+  Ca26  1  0.33582661  0.42752186  0.83839801  1
  Ca2+  Ca27  1  0.32624189  0.92408106  0.16046445  1
  Ca2+  Ca28  1  0.32655644  0.91729697  0.51191463  1
  Ca2+  Ca29  1  0.32397521  0.92017904  0.83735162  1
  Ca2+  Ca30  1  0.82673736  0.41260193  0.16422026  1
  Ca2+  Ca31  1  0.83661405  0.41468315  0.50839595  1
  Ca2+  Ca32  1  0.83092116  0.41198890  0.83703955  1
  Ca2+  Ca33  1  0.83944627  0.91805919  0.16348661  1
  Ca2+  Ca34  1  0.83021119  0.92117472  0.50983824  1
  Ca2+  Ca35  1  0.82696647  0.92686144  0.84224699  1
  Ca2+  Ca36  1  0.41982770  0.17419213  0.15018347  1
  Ca2+  Ca37  1  0.42547108  0.16125635  0.49961555  1
  Ca2+  Ca38  1  0.42850933  0.15622559  0.83361559  1
  Ca2+  Ca39  1  0.41550355  0.66588351  0.15819590  1
  Ca2+  Ca40  1  0.40905404  0.67093288  0.50698170  1
  Ca2+  Ca41  1  0.41058827  0.67073934  0.82632733  1
  Ca2+  Ca42  1  0.92811115  0.16325587  0.15952670  1
  Ca2+  Ca43  1  0.92746906  0.16426832  0.50515509  1
  Ca2+  Ca44  1  0.92124218  0.16387297  0.82829945  1
  Ca2+  Ca45  1  0.92267463  0.67874867  0.15643039  1
  Ca2+  Ca46  1  0.92473051  0.67243210  0.49702635  1
  Ca2+  Ca47  1  0.92907212  0.67347419  0.83157707  1
  Al0+  Al48  1  -0.00303341  -0.00036713  0.00092459  1
  Al0+  Al49  1  -0.00012690  0.00065022  0.32738218  1
  Al0+  Al50  1  -0.00125006  -0.00021577  0.67090784  1
  Al0+  Al51  1  0.00033385  0.50154254  -0.00165289  1
  Al0+  Al52  1  -0.00147661  0.49918632  0.33586568  1
  Al0+  Al53  1  -0.00044326  0.49996566  0.66409139  1
  Al0+  Al54  1  0.49988349  -0.00007472  0.00521588  1
  Al0+  Al55  1  0.50078649  -0.00131287  0.33137131  1
  Al0+  Al56  1  0.49893815  -0.00117292  0.65807162  1
  Al0+  Al57  1  0.49939349  0.50064437  0.00470143  1
  Al0+  Al58  1  0.50047575  0.50038640  0.33690448  1
  Al0+  Al59  1  0.50041248  0.50066531  0.66603534  1
  Al0+  Al60  1  0.25009976  0.25286220  -0.00719908  1
  Al0+  Al61  1  0.25301455  0.25069326  0.33510809  1
  Al0+  Al62  1  0.25180617  0.25018107  0.66606513  1
  Al0+  Al63  1  0.25109337  0.74945739  0.00728249  1
  Al0+  Al64  1  0.25133492  0.75118469  0.33162942  1
  Al0+  Al65  1  0.25042270  0.75068052  0.66293501  1
  Al0+  Al66  1  0.74898745  0.24942350  0.00742503  1
  Al0+  Al67  1  0.75146537  0.24814125  0.33512844  1
  Al0+  Al68  1  0.75006502  0.24995228  0.66125635  1
  Al0+  Al69  1  0.75050633  0.74934139  -0.00079698  1
  Al0+  Al70  1  0.74825202  0.74944181  0.33038861  1
  Al0+  Al71  1  0.74790977  0.74838770  0.66993823  1
  Al0+  Al72  1  0.17883472  0.93085570  0.67795996  1
  Al0+  Al73  1  0.32013222  0.57067998  0.01460527  1
  Al0+  Al74  1  0.92713966  0.82201629  0.98172910  1
  Al0+  Al75  1  0.67663937  0.92781297  0.68052299  1
  Al0+  Al76  1  0.31995994  0.07360997  0.01269783  1
  Al0+  Al77  1  0.07114326  0.68074177  0.65248581  1
  Al0+  Al78  1  0.17966294  0.42883190  0.34683796  1
  Al0+  Al79  1  0.92932288  0.32071830  0.65247016  1
  Al0+  Al80  1  0.07151525  0.18170965  0.31922946  1
  Al0+  Al81  1  0.67995354  0.42979924  0.01237738  1
  Al0+  Al82  1  0.07367169  0.17634369  0.65257357  1
  Al0+  Al83  1  0.07365010  0.67975975  0.98473741  1
  Al0+  Al84  1  0.17814006  0.92940546  0.01578934  1
  Al0+  Al85  1  0.82003483  0.07150448  0.68180570  1
  Al0+  Al86  1  0.31956883  0.57012239  0.68132689  1
  Al0+  Al87  1  0.42786117  0.32442954  0.98373148  1
  Al0+  Al88  1  0.07086920  0.17990461  0.98637343  1
  Al0+  Al89  1  0.82134818  0.07178150  0.01830374  1
  Al0+  Al90  1  0.57073731  0.17804051  0.98542599  1
  Al0+  Al91  1  0.67839325  0.92748929  0.01639922  1
  Al0+  Al92  1  0.17600044  0.42671266  0.68421129  1
  Al0+  Al93  1  0.92904953  0.81950986  0.32051584  1
  Al0+  Al94  1  0.42987725  0.81975545  0.65421851  1
  Al0+  Al95  1  0.56909893  0.17995950  0.65257569  1
  Si0+  Si96  1  0.56986390  0.67846846  0.31771737  1
  Si0+  Si97  1  0.92710043  0.32261049  0.98648796  1
  Si0+  Si98  1  0.67887910  0.42780614  0.34996211  1
  Si0+  Si99  1  0.67946864  0.42904971  0.68004566  1
  Si0+  Si100  1  0.67811927  0.92780762  0.34969572  1
  Si0+  Si101  1  0.32375399  0.07286009  0.68016378  1
  Si0+  Si102  1  0.07264660  0.67603801  0.31706245  1
  Si0+  Si103  1  0.82178131  0.57192521  0.68165398  1
  Si0+  Si104  1  0.42839693  0.82160490  0.31543665  1
  Si0+  Si105  1  0.57370959  0.67502055  0.64942573  1
  Si0+  Si106  1  0.81829946  0.57149406  0.34774310  1
  Si0+  Si107  1  0.43066183  0.82014408  0.98692720  1
  Si0+  Si108  1  0.42891647  0.32637562  0.64752612  1
  Si0+  Si109  1  0.17571129  0.42831422  0.01558301  1
  Si0+  Si110  1  0.57278594  0.17811108  0.31745116  1
  Si0+  Si111  1  0.82352741  0.57191807  0.01708232  1
  Si0+  Si112  1  0.32308489  0.57376429  0.35183008  1
  Si0+  Si113  1  0.17882006  0.93045760  0.34765272  1
  Si0+  Si114  1  0.92619097  0.32404506  0.31522929  1
  Si0+  Si115  1  0.82190891  0.06965051  0.35040612  1
  Si0+  Si116  1  0.57111860  0.67793400  0.98622170  1
  Si0+  Si117  1  0.92540005  0.82092846  0.65159907  1
  Si0+  Si118  1  0.32299987  0.07018751  0.34839656  1
  Si0+  Si119  1  0.43261947  0.32045615  0.31948287  1
  O2-  O120  1  0.24454429  0.00708724  0.06633263  1
  O2-  O121  1  0.25109263  0.00010479  0.39071912  1
  O2-  O122  1  0.24765846  0.01206229  0.72222035  1
  O2-  O123  1  0.24510754  0.49640632  0.06070447  1
  O2-  O124  1  0.24932033  0.50943967  0.39301814  1
  O2-  O125  1  0.25009672  0.49733278  0.73279065  1
  O2-  O126  1  0.75115540  -0.00285821  0.06862324  1
  O2-  O127  1  0.74898194  -0.00089367  0.39134616  1
  O2-  O128  1  0.74859956  -0.00156042  0.73032756  1
  O2-  O129  1  0.75528454  0.50274556  0.06191043  1
  O2-  O130  1  0.75225909  0.49620727  0.39213861  1
  O2-  O131  1  0.75112038  0.49936160  0.72175345  1
  O2-  O132  1  -0.00202255  0.25838655  0.27257439  1
  O2-  O133  1  0.00451799  0.25173805  0.60241617  1
  O2-  O134  1  -0.00447681  0.25492677  0.94217824  1
  O2-  O135  1  0.00551706  0.74623646  0.27397150  1
  O2-  O136  1  -0.00451178  0.75460395  0.60533252  1
  O2-  O137  1  0.00470922  0.75454859  0.93435026  1
  O2-  O138  1  0.50402202  0.25088730  0.27568510  1
  O2-  O139  1  0.49333151  0.25295393  0.60315450  1
  O2-  O140  1  0.49579721  0.24744325  0.93583616  1
  O2-  O141  1  0.49749502  0.74767594  0.27503660  1
  O2-  O142  1  0.50603509  0.74565333  0.60660939  1
  O2-  O143  1  0.50474946  0.75249594  0.94467106  1
  O2-  O144  1  0.07104509  0.18385096  0.10028280  1
  O2-  O145  1  0.06980843  0.17890998  0.43177506  1
  O2-  O146  1  0.07004987  0.17508423  0.76542417  1
  O2-  O147  1  0.07029560  0.67808805  0.09920046  1
  O2-  O148  1  0.07158142  0.67637593  0.42276377  1
  O2-  O149  1  0.07154623  0.68167638  0.76478631  1
  O2-  O150  1  0.56964033  0.18161331  0.10007057  1
  O2-  O151  1  0.57172693  0.17822350  0.42269985  1
  O2-  O152  1  0.56964768  0.18076483  0.76474642  1
  O2-  O153  1  0.56877988  0.67679190  0.09220371  1
  O2-  O154  1  0.57239869  0.67783976  0.42253908  1
  O2-  O155  1  0.57478189  0.66947429  0.75425524  1
  O2-  O156  1  0.18401884  0.42831280  0.23384078  1
  O2-  O157  1  0.17775339  0.43001558  0.56963285  1
  O2-  O158  1  0.17338272  0.43090096  0.91089781  1
  O2-  O159  1  0.18040052  0.93017761  0.24317022  1
  O2-  O160  1  0.18073742  0.92984447  0.56357699  1
  O2-  O161  1  0.18366031  0.92631554  0.90255613  1
  O2-  O162  1  0.67665982  0.42951104  0.24533103  1
  O2-  O163  1  0.67970884  0.43147935  0.57392504  1
  O2-  O164  1  0.68098438  0.43170761  0.89923511  1
  O2-  O165  1  0.67511161  0.92746013  0.24536209  1
  O2-  O166  1  0.67901822  0.92911925  0.56561112  1
  O2-  O167  1  0.67706329  0.92838925  0.90354496  1
  O2-  O168  1  0.43133929  0.32499589  0.09877046  1
  O2-  O169  1  0.43523191  0.31933767  0.42447413  1
  O2-  O170  1  0.43440008  0.33248383  0.75192650  1
  O2-  O171  1  0.43184557  0.81743233  0.09286098  1
  O2-  O172  1  0.42838966  0.82305120  0.42028984  1
  O2-  O173  1  0.43033828  0.81943472  0.76702912  1
  O2-  O174  1  0.92869223  0.32355558  0.09265018  1
  O2-  O175  1  0.92261975  0.32371958  0.42016038  1
  O2-  O176  1  0.92553490  0.32016619  0.76574525  1
  O2-  O177  1  0.92771212  0.81672420  0.09622087  1
  O2-  O178  1  0.92841738  0.81735588  0.43389026  1
  O2-  O179  1  0.92297029  0.81694075  0.75608411  1
  O2-  O180  1  0.32519585  0.06986641  0.24396293  1
  O2-  O181  1  0.32656574  0.06787583  0.57354199  1
  O2-  O182  1  0.32389251  0.06681437  0.89971322  1
  O2-  O183  1  0.32750174  0.57269347  0.24660826  1
  O2-  O184  1  0.31850555  0.56889391  0.56696071  1
  O2-  O185  1  0.32310933  0.57189824  0.90240058  1
  O2-  O186  1  0.82070110  0.07124261  0.24599434  1
  O2-  O187  1  0.81937348  0.06913620  0.56690455  1
  O2-  O188  1  0.81843138  0.07539056  0.90538994  1
  O2-  O189  1  0.81449376  0.57144132  0.24318755  1
  O2-  O190  1  0.81863877  0.57364842  0.57564724  1
  O2-  O191  1  0.82185441  0.57082476  0.91157386  1
  O2-  O192  1  0.03911887  0.08620762  0.26435473  1
  O2-  O193  1  0.03957145  0.07876398  0.59840570  1
  O2-  O194  1  0.04047077  0.08257336  0.93621507  1
  O2-  O195  1  0.04522853  0.58253749  0.27185927  1
  O2-  O196  1  0.03742082  0.58543178  0.59741715  1
  O2-  O197  1  0.04218755  0.58208039  0.93208736  1
  O2-  O198  1  0.54443191  0.08592292  0.27183244  1
  O2-  O199  1  0.53800141  0.08523944  0.59351201  1
  O2-  O200  1  0.54276276  0.07853681  0.93515261  1
  O2-  O201  1  0.54303382  0.58526814  0.27137629  1
  O2-  O202  1  0.54628231  0.58344480  0.59852413  1
  O2-  O203  1  0.53981512  0.58800003  0.93879418  1
  O2-  O204  1  0.17036266  0.21106903  0.26810157  1
  O2-  O205  1  0.17455652  0.19907393  0.60005948  1
  O2-  O206  1  0.16667228  0.20749371  0.93098962  1
  O2-  O207  1  0.16807732  0.69933914  0.27362723  1
  O2-  O208  1  0.16551728  0.71262221  0.59494470  1
  O2-  O209  1  0.17391123  0.70693902  0.93591447  1
  O2-  O210  1  0.66600326  0.20438724  0.27276239  1
  O2-  O211  1  0.66313779  0.21400167  0.59461880  1
  O2-  O212  1  0.66877993  0.21166069  0.93627222  1
  O2-  O213  1  0.66019850  0.70689950  0.26804411  1
  O2-  O214  1  0.66731790  0.69995428  0.60154921  1
  O2-  O215  1  0.66479263  0.69788058  0.94026251  1
  O2-  O216  1  0.08281417  0.45491006  0.06433048  1
  O2-  O217  1  0.08005264  0.45318705  0.39879295  1
  O2-  O218  1  0.07724165  0.45654422  0.73388634  1
  O2-  O219  1  0.07821099  0.95269810  0.06648773  1
  O2-  O220  1  0.08676210  0.95917714  0.39379832  1
  O2-  O221  1  0.08156491  0.95299314  0.73255489  1
  O2-  O222  1  0.58657067  0.46531261  0.07065047  1
  O2-  O223  1  0.58870495  0.45895549  0.39925932  1
  O2-  O224  1  0.58868517  0.45835130  0.72673588  1
  O2-  O225  1  0.58083389  0.95574142  0.07229977  1
  O2-  O226  1  0.58536936  0.95597092  0.39640929  1
  O2-  O227  1  0.57683889  0.95712957  0.72781084  1
  O2-  O228  1  0.20271458  0.33507246  0.06116153  1
  O2-  O229  1  0.21667308  0.33464279  0.40249485  1
  O2-  O230  1  0.20157817  0.32604855  0.73243843  1
  O2-  O231  1  0.21350886  0.83465223  0.07293406  1
  O2-  O232  1  0.20620634  0.83701091  0.39343575  1
  O2-  O233  1  0.21667539  0.83653467  0.72997894  1
  O2-  O234  1  0.70893541  0.33589305  0.07230439  1
  O2-  O235  1  0.70472076  0.33475246  0.39651811  1
  O2-  O236  1  0.70679549  0.33741220  0.72553291  1
  O2-  O237  1  0.70417024  0.82665912  0.06804065  1
  O2-  O238  1  0.70457570  0.83463493  0.39545970  1
  O2-  O239  1  0.69677456  0.82672863  0.73079838  1
  O2-  O240  1  0.45977079  0.41386188  0.27418966  1
  O2-  O241  1  0.46062604  0.41681951  0.59695970  1
  O2-  O242  1  0.46471801  0.42084288  0.93265560  1
  O2-  O243  1  0.45957597  0.91227569  0.26763973  1
  O2-  O244  1  0.46001320  0.91326300  0.59223435  1
  O2-  O245  1  0.45615531  0.91248329  0.94109537  1
  O2-  O246  1  0.94637045  0.41972546  0.27062578  1
  O2-  O247  1  0.95332894  0.42004067  0.59774498  1
  O2-  O248  1  0.94880168  0.41711794  0.94088348  1
  O2-  O249  1  0.95888368  0.91535788  0.26567239  1
  O2-  O250  1  0.95039776  0.91488528  0.60652795  1
  O2-  O251  1  0.94724207  0.92286278  0.93389799  1
  O2-  O252  1  0.34133335  0.29251335  0.27223911  1
  O2-  O253  1  0.33383664  0.30411829  0.60340141  1
  O2-  O254  1  0.32847935  0.30624318  0.93139060  1
  O2-  O255  1  0.33608563  0.79625646  0.26753531  1
  O2-  O256  1  0.33646474  0.78677930  0.59430824  1
  O2-  O257  1  0.33980371  0.78868822  0.94192069  1
  O2-  O258  1  0.83252313  0.29507709  0.26960769  1
  O2-  O259  1  0.83214759  0.29229903  0.59505031  1
  O2-  O260  1  0.83239740  0.29783008  0.94375657  1
  O2-  O261  1  0.83260009  0.78704585  0.26661184  1
  O2-  O262  1  0.83207948  0.79243010  0.60440392  1
  O2-  O263  1  0.83000399  0.78821348  0.92972643  1
  O2-  O264  1  0.41555093  0.04071722  0.07032086  1
  O2-  O265  1  0.41475961  0.03912334  0.39607558  1
  O2-  O266  1  0.41403398  0.03749463  0.72549565  1
  O2-  O267  1  0.41561942  0.53939402  0.07201258  1
  O2-  O268  1  0.41562741  0.54473645  0.39920374  1
  O2-  O269  1  0.42072808  0.54549468  0.73086955  1
  O2-  O270  1  0.91875301  0.04262818  0.07307525  1
  O2-  O271  1  0.91375194  0.03947659  0.39615516  1
  O2-  O272  1  0.91749684  0.04470610  0.73476491  1
  O2-  O273  1  0.91637040  0.54639996  0.06502242  1
  O2-  O274  1  0.91149169  0.54881782  0.39509539  1
  O2-  O275  1  0.91267851  0.54456122  0.72871383  1
  O2-  O276  1  0.29660279  0.17506774  0.06286106  1
  O2-  O277  1  0.29958200  0.16279392  0.39592571  1
  O2-  O278  1  0.31242469  0.17001154  0.72169369  1
  O2-  O279  1  0.29114390  0.66522009  0.07398182  1
  O2-  O280  1  0.30230347  0.67028282  0.39460514  1
  O2-  O281  1  0.29167101  0.66925003  0.73080367  1
  O2-  O282  1  0.79072349  0.16822939  0.07544518  1
  O2-  O283  1  0.79455235  0.16213747  0.39760027  1
  O2-  O284  1  0.78887152  0.17026423  0.73093508  1
  O2-  O285  1  0.79483255  0.66378164  0.06451371  1
  O2-  O286  1  0.78399487  0.66077070  0.39681187  1
  O2-  O287  1  0.79199823  0.66142603  0.73117849  1
