# generated using pymatgen
data_Ca2Al2SiO7
_symmetry_space_group_name_H-M   'P 1'
_cell_length_a   15.46058875
_cell_length_b   15.46209987
_cell_length_c   15.28607961
_cell_angle_alpha   90.01765367
_cell_angle_beta   90.01851577
_cell_angle_gamma   89.98641862
_symmetry_Int_Tables_number   1
_chemical_formula_structural   Ca2Al2SiO7
_chemical_formula_sum   'Ca48 Al48 Si24 O168'
_cell_volume   3654.18527819
_cell_formula_units_Z   24
loop_
 _symmetry_equiv_pos_site_id
 _symmetry_equiv_pos_as_xyz
  1  'x, y, z'
loop_
 _atom_type_symbol
 _atom_type_oxidation_number
  Ca2+  2.0
  Al0+  0.0
  Si0+  0.0
  O2-  -2.0
loop_
 _atom_site_type_symbol
 _atom_site_label
 _atom_site_symmetry_multiplicity
 _atom_site_fract_x
 _atom_site_fract_y
 _atom_site_fract_z
 _atom_site_occupancy
  Ca2+  Ca0  1  0.16892222  0.08568633  0.17240397  1
  Ca2+  Ca1  1  0.17062002  0.08711244  0.50531561  1
  Ca2+  Ca2  1  0.15404847  0.07691239  0.83583498  1
  Ca2+  Ca3  1  0.17009055  0.57254521  0.17447605  1
  Ca2+  Ca4  1  0.16611863  0.57114478  0.50707137  1
  Ca2+  Ca5  1  0.16387139  0.57883913  0.83027841  1
  Ca2+  Ca6  1  0.66088753  0.08028417  0.17164456  1
  Ca2+  Ca7  1  0.66217873  0.08860086  0.50514956  1
  Ca2+  Ca8  1  0.66659787  0.08071965  0.83735041  1
  Ca2+  Ca9  1  0.66908503  0.57381817  0.17137034  1
  Ca2+  Ca10  1  0.67069746  0.57036242  0.50177780  1
  Ca2+  Ca11  1  0.66672656  0.57263270  0.83989482  1
  Ca2+  Ca12  1  0.08415775  0.32348425  0.16001044  1
  Ca2+  Ca13  1  0.08953850  0.32837628  0.49475421  1
  Ca2+  Ca14  1  0.07349925  0.32528958  0.82316205  1
  Ca2+  Ca15  1  0.08410265  0.83186764  0.16086522  1
  Ca2+  Ca16  1  0.08529989  0.83006181  0.50377131  1
  Ca2+  Ca17  1  0.08400143  0.83162904  0.82116001  1
  Ca2+  Ca18  1  0.57630119  0.33981126  0.16188108  1
  Ca2+  Ca19  1  0.57728675  0.33046610  0.49521224  1
  Ca2+  Ca20  1  0.57659727  0.33687221  0.82466962  1
  Ca2+  Ca21  1  0.57825677  0.82961963  0.16055123  1
  Ca2+  Ca22  1  0.57520099  0.83138075  0.49065895  1
  Ca2+  Ca23  1  0.59151551  0.82605499  0.83268633  1
  Ca2+  Ca24  1  0.33122346  0.40862053  0.17325471  1
  Ca2+  Ca25  1  0.32583000  0.40426478  0.50205017  1
  Ca2+  Ca26  1  0.33016675  0.40639508  0.83238314  1
  Ca2+  Ca27  1  0.32976500  0.92442322  0.17469725  1
  Ca2+  Ca28  1  0.33331440  0.92626602  0.50458356  1
  Ca2+  Ca29  1  0.32006763  0.92153014  0.83911128  1
  Ca2+  Ca30  1  0.82314435  0.41519693  0.17381859  1
  Ca2+  Ca31  1  0.82276979  0.40897903  0.50557352  1
  Ca2+  Ca32  1  0.82448723  0.40427814  0.83640974  1
  Ca2+  Ca33  1  0.82557774  0.91815590  0.16798251  1
  Ca2+  Ca34  1  0.83530496  0.91972425  0.50597846  1
  Ca2+  Ca35  1  0.83309222  0.91860520  0.83861442  1
  Ca2+  Ca36  1  0.41733894  0.17570363  0.16967364  1
  Ca2+  Ca37  1  0.42395152  0.17358804  0.49326625  1
  Ca2+  Ca38  1  0.42402144  0.17730599  0.82842844  1
  Ca2+  Ca39  1  0.42192853  0.67134538  0.16165836  1
  Ca2+  Ca40  1  0.41333689  0.67536687  0.49558320  1
  Ca2+  Ca41  1  0.42349696  0.66622381  0.83227546  1
  Ca2+  Ca42  1  0.92768014  0.17372624  0.16077869  1
  Ca2+  Ca43  1  0.92867531  0.17342484  0.50188645  1
  Ca2+  Ca44  1  0.92293911  0.17444912  0.83025308  1
  Ca2+  Ca45  1  0.91261129  0.66345178  0.16637897  1
  Ca2+  Ca46  1  0.91658918  0.66753197  0.50064022  1
  Ca2+  Ca47  1  0.92271072  0.67628184  0.82376701  1
  Al0+  Al48  1  -0.00087166  -0.00144259  0.00418698  1
  Al0+  Al49  1  -0.00197943  -0.00205705  0.32886757  1
  Al0+  Al50  1  -0.00152574  0.00088045  0.66306341  1
  Al0+  Al51  1  -0.00006707  0.50095739  -0.00335159  1
  Al0+  Al52  1  -0.00015899  0.50183740  0.33961997  1
  Al0+  Al53  1  -0.00088284  0.50204681  0.66500360  1
  Al0+  Al54  1  0.49702718  0.00042875  0.00373135  1
  Al0+  Al55  1  0.49718401  -0.00027468  0.32970182  1
  Al0+  Al56  1  0.50001906  -0.00070052  0.66845839  1
  Al0+  Al57  1  0.50022039  0.50273627  -0.00464341  1
  Al0+  Al58  1  0.50023157  0.50220395  0.33481455  1
  Al0+  Al59  1  0.50032204  0.50155455  0.66550891  1
  Al0+  Al60  1  0.25142919  0.24755455  -0.00874463  1
  Al0+  Al61  1  0.25209055  0.24666959  0.33356449  1
  Al0+  Al62  1  0.25227662  0.25001342  0.66837185  1
  Al0+  Al63  1  0.25015325  0.75066048  0.00435374  1
  Al0+  Al64  1  0.24741264  0.74970508  0.32775858  1
  Al0+  Al65  1  0.25023343  0.75066012  0.66767632  1
  Al0+  Al66  1  0.74988025  0.24881287  0.00432312  1
  Al0+  Al67  1  0.75138623  0.24645975  0.33442730  1
  Al0+  Al68  1  0.75129306  0.24735100  0.66627617  1
  Al0+  Al69  1  0.74950133  0.74994275  0.00071912  1
  Al0+  Al70  1  0.75018160  0.75023139  0.33689698  1
  Al0+  Al71  1  0.75017921  0.74904699  0.66194108  1
  Al0+  Al72  1  0.57354476  0.17864472  0.31703543  1
  Al0+  Al73  1  0.57071903  0.68176553  0.98623673  1
  Al0+  Al74  1  0.67847264  0.92832962  0.01355933  1
  Al0+  Al75  1  0.67812662  0.42644834  0.34954801  1
  Al0+  Al76  1  0.07304330  0.67924825  0.65064629  1
  Al0+  Al77  1  0.92802133  0.82184586  0.65116957  1
  Al0+  Al78  1  0.67841425  0.42881234  0.01296358  1
  Al0+  Al79  1  0.42672351  0.82093762  0.31924159  1
  Al0+  Al80  1  0.07124015  0.17922478  0.31959999  1
  Al0+  Al81  1  0.18006910  0.93182507  0.67844488  1
  Al0+  Al82  1  0.07106753  0.17764262  0.98437364  1
  Al0+  Al83  1  0.17799398  0.92914882  0.01521314  1
  Al0+  Al84  1  0.43103238  0.32223438  0.31828894  1
  Al0+  Al85  1  0.43001769  0.32311958  0.65026761  1
  Al0+  Al86  1  0.17865931  0.42780878  0.68146884  1
  Al0+  Al87  1  0.18204021  0.42819956  0.34420633  1
  Al0+  Al88  1  0.82110821  0.57243297  0.35034199  1
  Al0+  Al89  1  0.92750517  0.32297391  0.98666822  1
  Al0+  Al90  1  0.07134631  0.17989737  0.65153682  1
  Al0+  Al91  1  0.57105564  0.17711379  0.65407377  1
  Al0+  Al92  1  0.43104330  0.32220492  0.98492082  1
  Al0+  Al93  1  0.31982048  0.06849444  0.34795163  1
  Al0+  Al94  1  0.68070314  0.42883312  0.68171676  1
  Al0+  Al95  1  0.92802783  0.32263136  0.65138956  1
  Si0+  Si96  1  0.32188249  0.57420229  0.68407812  1
  Si0+  Si97  1  0.32100880  0.57167668  0.01463949  1
  Si0+  Si98  1  0.82045317  0.06889714  0.68202041  1
  Si0+  Si99  1  0.92939463  0.81890387  0.98755680  1
  Si0+  Si100  1  0.06973157  0.67777003  0.31632045  1
  Si0+  Si101  1  0.82142820  0.07111083  0.01932472  1
  Si0+  Si102  1  0.42962994  0.82018646  0.65420226  1
  Si0+  Si103  1  0.67730788  0.92663931  0.68034888  1
  Si0+  Si104  1  0.17526276  0.92607715  0.35039729  1
  Si0+  Si105  1  0.67879630  0.93079714  0.34826527  1
  Si0+  Si106  1  0.42653315  0.82323850  0.98226077  1
  Si0+  Si107  1  0.17986812  0.42885010  0.01183902  1
  Si0+  Si108  1  0.07371984  0.67903074  0.98563099  1
  Si0+  Si109  1  0.57270977  0.68038901  0.31684014  1
  Si0+  Si110  1  0.92884871  0.32372737  0.31813184  1
  Si0+  Si111  1  0.82329825  0.06914761  0.34950412  1
  Si0+  Si112  1  0.82102109  0.57443338  0.68543380  1
  Si0+  Si113  1  0.57236946  0.17598524  0.98484743  1
  Si0+  Si114  1  0.92750585  0.82014915  0.31553817  1
  Si0+  Si115  1  0.57186282  0.67906165  0.64973877  1
  Si0+  Si116  1  0.82282130  0.57261185  0.01461459  1
  Si0+  Si117  1  0.32134810  0.07336503  0.01845724  1
  Si0+  Si118  1  0.32469867  0.07207706  0.68626539  1
  Si0+  Si119  1  0.32176615  0.57516445  0.34834730  1
  O2-  O120  1  0.25092538  0.00502753  0.06132298  1
  O2-  O121  1  0.24366774  -0.00561393  0.39419987  1
  O2-  O122  1  0.25055066  0.00818259  0.72933347  1
  O2-  O123  1  0.25178951  0.49842879  0.05589032  1
  O2-  O124  1  0.25809857  0.50206580  0.39146886  1
  O2-  O125  1  0.25506446  0.50289277  0.72740328  1
  O2-  O126  1  0.74848481  0.00579934  0.06297826  1
  O2-  O127  1  0.74691100  0.00321628  0.39186306  1
  O2-  O128  1  0.74808508  -0.00257774  0.72260612  1
  O2-  O129  1  0.75829234  0.49965060  0.05773689  1
  O2-  O130  1  0.75337805  0.49614052  0.39909401  1
  O2-  O131  1  0.75723729  0.50178201  0.73014173  1
  O2-  O132  1  -0.00047006  0.25727368  0.27336691  1
  O2-  O133  1  0.00794628  0.25950542  0.60117394  1
  O2-  O134  1  0.00081367  0.25228384  0.93691318  1
  O2-  O135  1  -0.00179844  0.74859191  0.27355712  1
  O2-  O136  1  -0.00050305  0.74988688  0.60050518  1
  O2-  O137  1  0.00285037  0.75102098  0.94520850  1
  O2-  O138  1  0.50820006  0.25643246  0.26680734  1
  O2-  O139  1  0.50204870  0.25027340  0.60281732  1
  O2-  O140  1  0.50959614  0.24971306  0.94079159  1
  O2-  O141  1  0.50080722  0.74573785  0.27255334  1
  O2-  O142  1  0.50093835  0.75098062  0.60952157  1
  O2-  O143  1  0.49838601  0.75851655  0.93712414  1
  O2-  O144  1  0.07110416  0.17963596  0.09839146  1
  O2-  O145  1  0.06972198  0.17790570  0.43220031  1
  O2-  O146  1  0.06479915  0.17620290  0.76481669  1
  O2-  O147  1  0.07341499  0.67780811  0.09095029  1
  O2-  O148  1  0.07301523  0.68015339  0.42054083  1
  O2-  O149  1  0.07320343  0.68334524  0.76511841  1
  O2-  O150  1  0.56972692  0.17386580  0.09005814  1
  O2-  O151  1  0.57013720  0.17531525  0.43013110  1
  O2-  O152  1  0.56938112  0.17334018  0.76797695  1
  O2-  O153  1  0.56814270  0.68312080  0.09920636  1
  O2-  O154  1  0.57290745  0.68423997  0.42268930  1
  O2-  O155  1  0.57280772  0.68077284  0.75503522  1
  O2-  O156  1  0.18154630  0.43083120  0.23012420  1
  O2-  O157  1  0.18158422  0.42901398  0.56831831  1
  O2-  O158  1  0.17970984  0.43267609  0.90714793  1
  O2-  O159  1  0.17596564  0.92593225  0.24446793  1
  O2-  O160  1  0.18472414  0.93011046  0.56558442  1
  O2-  O161  1  0.17845483  0.92644441  0.90213923  1
  O2-  O162  1  0.67819389  0.43041967  0.23541847  1
  O2-  O163  1  0.67998236  0.43075262  0.56904262  1
  O2-  O164  1  0.67762110  0.43135464  0.89988325  1
  O2-  O165  1  0.68185429  0.92884756  0.24303367  1
  O2-  O166  1  0.67536330  0.92612506  0.57521010  1
  O2-  O167  1  0.68336215  0.92721609  0.90019509  1
  O2-  O168  1  0.42895594  0.32242877  0.09771161  1
  O2-  O169  1  0.42947388  0.31889376  0.43108922  1
  O2-  O170  1  0.43300017  0.32233120  0.76433289  1
  O2-  O171  1  0.42604830  0.81964744  0.08778633  1
  O2-  O172  1  0.42929742  0.81962274  0.43306690  1
  O2-  O173  1  0.43082075  0.81891165  0.75928210  1
  O2-  O174  1  0.93035879  0.32347884  0.10067557  1
  O2-  O175  1  0.92908996  0.32110478  0.42338157  1
  O2-  O176  1  0.92591943  0.31624092  0.76487408  1
  O2-  O177  1  0.92860930  0.81632934  0.09293363  1
  O2-  O178  1  0.92672890  0.82209890  0.41996655  1
  O2-  O179  1  0.92657497  0.82093108  0.76541859  1
  O2-  O180  1  0.31806879  0.06758525  0.23466483  1
  O2-  O181  1  0.32864413  0.06698870  0.58088765  1
  O2-  O182  1  0.32504998  0.07013178  0.91309012  1
  O2-  O183  1  0.31831092  0.57857677  0.24242611  1
  O2-  O184  1  0.32076749  0.58001131  0.57874540  1
  O2-  O185  1  0.31914084  0.57642204  0.90990411  1
  O2-  O186  1  0.82567312  0.06445667  0.24447540  1
  O2-  O187  1  0.82097059  0.06684496  0.57678142  1
  O2-  O188  1  0.82287359  0.06794429  0.91366877  1
  O2-  O189  1  0.81824207  0.57446610  0.23608924  1
  O2-  O190  1  0.81476574  0.57969770  0.58043584  1
  O2-  O191  1  0.82146882  0.57843748  0.90963207  1
  O2-  O192  1  0.03733511  0.08270843  0.26572600  1
  O2-  O193  1  0.03622079  0.08467754  0.59684344  1
  O2-  O194  1  0.03807599  0.07841672  0.93530993  1
  O2-  O195  1  0.04190951  0.58599734  0.26801485  1
  O2-  O196  1  0.04648518  0.58113392  0.59797766  1
  O2-  O197  1  0.04646250  0.58823591  0.93650276  1
  O2-  O198  1  0.53936868  0.08165846  0.26380815  1
  O2-  O199  1  0.54287539  0.07768097  0.60126428  1
  O2-  O200  1  0.54247239  0.08317104  0.93815501  1
  O2-  O201  1  0.54959940  0.58624246  0.27180002  1
  O2-  O202  1  0.54222472  0.58922486  0.60120152  1
  O2-  O203  1  0.53673059  0.58850824  0.92850294  1
  O2-  O204  1  0.16776983  0.20808897  0.26552137  1
  O2-  O205  1  0.17341910  0.19996559  0.60445865  1
  O2-  O206  1  0.16947291  0.20031907  0.93050796  1
  O2-  O207  1  0.16017599  0.70571712  0.26526107  1
  O2-  O208  1  0.17071690  0.71090724  0.59773009  1
  O2-  O209  1  0.16546422  0.70744664  0.93910627  1
  O2-  O210  1  0.67618243  0.19517985  0.26738566  1
  O2-  O211  1  0.67070246  0.19986552  0.60306781  1
  O2-  O212  1  0.66910121  0.19371166  0.94312272  1
  O2-  O213  1  0.66481110  0.71107102  0.27070234  1
  O2-  O214  1  0.66190621  0.70785631  0.60065941  1
  O2-  O215  1  0.66703236  0.71327225  0.93140342  1
  O2-  O216  1  0.08837391  0.45846335  0.05948868  1
  O2-  O217  1  0.08661110  0.46018348  0.39876321  1
  O2-  O218  1  0.08133867  0.46047639  0.73434987  1
  O2-  O219  1  0.08036528  0.95466888  0.07032557  1
  O2-  O220  1  0.08008403  0.94980312  0.39322040  1
  O2-  O221  1  0.08101288  0.95884980  0.73039501  1
  O2-  O222  1  0.58324639  0.46737150  0.06528659  1
  O2-  O223  1  0.58039511  0.45943883  0.40205706  1
  O2-  O224  1  0.58404995  0.46488238  0.73358143  1
  O2-  O225  1  0.57951107  0.95342890  0.06598596  1
  O2-  O226  1  0.58550868  0.95501246  0.39363482  1
  O2-  O227  1  0.58618662  0.95240462  0.73057104  1
  O2-  O228  1  0.20760603  0.33537118  0.05553505  1
  O2-  O229  1  0.21253150  0.33235704  0.39832166  1
  O2-  O230  1  0.20950592  0.33159968  0.73720021  1
  O2-  O231  1  0.20976553  0.83271305  0.07066299  1
  O2-  O232  1  0.20067947  0.83120461  0.39347708  1
  O2-  O233  1  0.21316371  0.83575518  0.73358076  1
  O2-  O234  1  0.70310762  0.33081805  0.06739412  1
  O2-  O235  1  0.70525211  0.32633247  0.39987514  1
  O2-  O236  1  0.71002097  0.33050633  0.73375969  1
  O2-  O237  1  0.71358922  0.83373912  0.06955963  1
  O2-  O238  1  0.70850682  0.84008798  0.39672218  1
  O2-  O239  1  0.70647799  0.83459161  0.72702284  1
  O2-  O240  1  0.45070978  0.42489009  0.26846503  1
  O2-  O241  1  0.45503678  0.42297852  0.59910047  1
  O2-  O242  1  0.45732581  0.41967661  0.93106298  1
  O2-  O243  1  0.45960229  0.91478544  0.26280664  1
  O2-  O244  1  0.45750695  0.91155438  0.60665515  1
  O2-  O245  1  0.44756889  0.91853776  0.93877558  1
  O2-  O246  1  0.95060647  0.41956141  0.27519833  1
  O2-  O247  1  0.94298155  0.42520971  0.60409079  1
  O2-  O248  1  0.95234473  0.42216603  0.93302806  1
  O2-  O249  1  0.95525849  0.91035950  0.26492749  1
  O2-  O250  1  0.95604959  0.91875160  0.59656154  1
  O2-  O251  1  0.95331757  0.91202633  0.94213197  1
  O2-  O252  1  0.33472030  0.28643443  0.26477136  1
  O2-  O253  1  0.33126270  0.29404619  0.60067571  1
  O2-  O254  1  0.33655373  0.28836452  0.92876878  1
  O2-  O255  1  0.33035359  0.79161955  0.26353689  1
  O2-  O256  1  0.33946033  0.79123069  0.60533844  1
  O2-  O257  1  0.33407275  0.79183815  0.93678480  1
  O2-  O258  1  0.83637827  0.29402488  0.27202289  1
  O2-  O259  1  0.83408667  0.28336216  0.59712594  1
  O2-  O260  1  0.82881770  0.29117214  0.93574724  1
  O2-  O261  1  0.83509490  0.79166938  0.26865265  1
  O2-  O262  1  0.82971107  0.79389407  0.59634207  1
  O2-  O263  1  0.83895230  0.79004184  0.93862744  1
  O2-  O264  1  0.41347442  0.04634059  0.06713507  1
  O2-  O265  1  0.41553715  0.03363762  0.40199335  1
  O2-  O266  1  0.41519645  0.03856022  0.73538843  1
  O2-  O267  1  0.41359950  0.54667938  0.06103421  1
  O2-  O268  1  0.41761179  0.55908149  0.39271773  1
  O2-  O269  1  0.41680004  0.55124566  0.72899541  1
  O2-  O270  1  0.91197934  0.03911172  0.06824799  1
  O2-  O271  1  0.91197852  0.03294777  0.39785348  1
  O2-  O272  1  0.91025880  0.03792613  0.73131348  1
  O2-  O273  1  0.91857029  0.55232646  0.06010355  1
  O2-  O274  1  0.92159594  0.55314458  0.40181635  1
  O2-  O275  1  0.91774727  0.55782480  0.72771088  1
  O2-  O276  1  0.29477285  0.16749760  0.06285796  1
  O2-  O277  1  0.29001178  0.16382397  0.40329891  1
  O2-  O278  1  0.30510926  0.16709859  0.73035190  1
  O2-  O279  1  0.29157021  0.66183813  0.06540204  1
  O2-  O280  1  0.28997252  0.66706471  0.39540446  1
  O2-  O281  1  0.29411614  0.66603938  0.73385411  1
  O2-  O282  1  0.80052759  0.16499944  0.06631644  1
  O2-  O283  1  0.80229295  0.16198854  0.39684462  1
  O2-  O284  1  0.79260767  0.15890376  0.73229445  1
  O2-  O285  1  0.79286348  0.66396286  0.06383430  1
  O2-  O286  1  0.78956077  0.67016611  0.40444258  1
  O2-  O287  1  0.78996372  0.66725510  0.73241648  1
