# generated using pymatgen
data_Ca2Al2SiO7
_symmetry_space_group_name_H-M   'P 1'
_cell_length_a   15.45522703
_cell_length_b   15.45510161
_cell_length_c   15.28142746
_cell_angle_alpha   90.00181458
_cell_angle_beta   89.98742326
_cell_angle_gamma   89.99890870
_symmetry_Int_Tables_number   1
_chemical_formula_structural   Ca2Al2SiO7
_chemical_formula_sum   'Ca48 Al48 Si24 O168'
_cell_volume   3650.15382546
_cell_formula_units_Z   24
loop_
 _symmetry_equiv_pos_site_id
 _symmetry_equiv_pos_as_xyz
  1  'x, y, z'
loop_
 _atom_type_symbol
 _atom_type_oxidation_number
  Ca2+  2.0
  Al0+  0.0
  Si0+  0.0
  O2-  -2.0
loop_
 _atom_site_type_symbol
 _atom_site_label
 _atom_site_symmetry_multiplicity
 _atom_site_fract_x
 _atom_site_fract_y
 _atom_site_fract_z
 _atom_site_occupancy
  Ca2+  Ca0  1  0.17601381  0.08365160  0.16779234  1
  Ca2+  Ca1  1  0.16739820  0.07719134  0.50379770  1
  Ca2+  Ca2  1  0.17246794  0.07765334  0.83711757  1
  Ca2+  Ca3  1  0.17308440  0.57292638  0.17422586  1
  Ca2+  Ca4  1  0.17947181  0.58074679  0.50146216  1
  Ca2+  Ca5  1  0.17346712  0.57636535  0.83814274  1
  Ca2+  Ca6  1  0.67197955  0.08099730  0.17329083  1
  Ca2+  Ca7  1  0.67409250  0.08133495  0.50210228  1
  Ca2+  Ca8  1  0.67335173  0.09128677  0.83820942  1
  Ca2+  Ca9  1  0.66466154  0.58513182  0.17204221  1
  Ca2+  Ca10  1  0.65730639  0.57562476  0.49766302  1
  Ca2+  Ca11  1  0.67282794  0.58258366  0.84059729  1
  Ca2+  Ca12  1  0.08165918  0.34062257  0.16630807  1
  Ca2+  Ca13  1  0.07219319  0.33688352  0.49287050  1
  Ca2+  Ca14  1  0.07878213  0.33370363  0.82942763  1
  Ca2+  Ca15  1  0.07595340  0.83335654  0.16715168  1
  Ca2+  Ca16  1  0.07400237  0.84075753  0.49702155  1
  Ca2+  Ca17  1  0.07875615  0.83531558  0.82451453  1
  Ca2+  Ca18  1  0.57981342  0.33275921  0.16641650  1
  Ca2+  Ca19  1  0.57737135  0.33022067  0.49539103  1
  Ca2+  Ca20  1  0.58125207  0.31984710  0.82556234  1
  Ca2+  Ca21  1  0.57959343  0.82710979  0.16395875  1
  Ca2+  Ca22  1  0.58014254  0.82550933  0.48631468  1
  Ca2+  Ca23  1  0.57954681  0.82930211  0.83565813  1
  Ca2+  Ca24  1  0.32491446  0.41740109  0.17972000  1
  Ca2+  Ca25  1  0.34423849  0.42631591  0.50177680  1
  Ca2+  Ca26  1  0.33243950  0.41679321  0.83548255  1
  Ca2+  Ca27  1  0.34545963  0.91882732  0.16840912  1
  Ca2+  Ca28  1  0.32753897  0.91177128  0.50595337  1
  Ca2+  Ca29  1  0.33072708  0.91895438  0.83949407  1
  Ca2+  Ca30  1  0.82628219  0.42296699  0.17534550  1
  Ca2+  Ca31  1  0.82787406  0.40667299  0.50062372  1
  Ca2+  Ca32  1  0.83504754  0.42131415  0.83993383  1
  Ca2+  Ca33  1  0.82590146  0.92582241  0.17754206  1
  Ca2+  Ca34  1  0.83376940  0.92284320  0.50379678  1
  Ca2+  Ca35  1  0.83487061  0.92840436  0.83694700  1
  Ca2+  Ca36  1  0.42255664  0.16908550  0.15793981  1
  Ca2+  Ca37  1  0.41946244  0.17764216  0.49503236  1
  Ca2+  Ca38  1  0.42708320  0.16637373  0.82823160  1
  Ca2+  Ca39  1  0.42459010  0.67188867  0.16553523  1
  Ca2+  Ca40  1  0.41651035  0.66835282  0.48829336  1
  Ca2+  Ca41  1  0.41860566  0.66603114  0.83204524  1
  Ca2+  Ca42  1  0.90948873  0.16986871  0.16727271  1
  Ca2+  Ca43  1  0.91141650  0.17083973  0.49568691  1
  Ca2+  Ca44  1  0.91289099  0.16998910  0.82481457  1
  Ca2+  Ca45  1  0.90898955  0.67277712  0.16330810  1
  Ca2+  Ca46  1  0.91681637  0.68105861  0.49271928  1
  Ca2+  Ca47  1  0.91730054  0.67175422  0.82683017  1
  Al0+  Al48  1  0.00058382  0.00226391  0.00432117  1
  Al0+  Al49  1  0.00159661  0.00181383  0.33009982  1
  Al0+  Al50  1  -0.00040865  0.00008630  0.67197459  1
  Al0+  Al51  1  -0.00075642  0.50208350  0.00750930  1
  Al0+  Al52  1  0.00040757  0.50020048  0.33360999  1
  Al0+  Al53  1  0.00117914  0.50071004  0.66141463  1
  Al0+  Al54  1  0.50000190  0.00012561  -0.00582717  1
  Al0+  Al55  1  0.50173413  0.00039046  0.33649468  1
  Al0+  Al56  1  0.50152696  -0.00262336  0.66230344  1
  Al0+  Al57  1  0.49926487  0.50080498  -0.00493450  1
  Al0+  Al58  1  0.50082294  0.49891485  0.33167806  1
  Al0+  Al59  1  0.50112094  0.49956157  0.67227133  1
  Al0+  Al60  1  0.24687059  0.24775672  0.00613292  1
  Al0+  Al61  1  0.24753696  0.24900867  0.33492262  1
  Al0+  Al62  1  0.25027302  0.25055822  0.66320483  1
  Al0+  Al63  1  0.24685078  0.74873095  -0.00288710  1
  Al0+  Al64  1  0.24905649  0.75045253  0.33154826  1
  Al0+  Al65  1  0.25016508  0.74747537  0.67731586  1
  Al0+  Al66  1  0.74971442  0.25221578  0.00045709  1
  Al0+  Al67  1  0.75169330  0.25160909  0.33591801  1
  Al0+  Al68  1  0.74959315  0.24850556  0.66403398  1
  Al0+  Al69  1  0.74965061  0.75135783  -0.00218270  1
  Al0+  Al70  1  0.75012117  0.75147983  0.32888589  1
  Al0+  Al71  1  0.74969003  0.75057803  0.66307786  1
  Al0+  Al72  1  0.32247451  0.56907010  0.68358154  1
  Al0+  Al73  1  0.67988672  0.43048377  0.34693496  1
  Al0+  Al74  1  0.42748962  0.82063328  0.98260919  1
  Al0+  Al75  1  0.57213995  0.17591359  0.64858892  1
  Al0+  Al76  1  0.81771681  0.06990952  0.68172122  1
  Al0+  Al77  1  0.92893203  0.32106777  0.31759656  1
  Al0+  Al78  1  0.42917946  0.32180738  0.65220607  1
  Al0+  Al79  1  0.42842008  0.31982070  0.31904104  1
  Al0+  Al80  1  0.57084756  0.67762300  0.31897391  1
  Al0+  Al81  1  0.42639509  0.82318686  0.32006704  1
  Al0+  Al82  1  0.57159867  0.18110129  0.98761588  1
  Al0+  Al83  1  0.82131738  0.07342687  0.01474938  1
  Al0+  Al84  1  0.93035402  0.32182236  0.65431628  1
  Al0+  Al85  1  0.18000583  0.42920013  0.01368522  1
  Al0+  Al86  1  0.92936669  0.82270126  0.31812591  1
  Al0+  Al87  1  0.32153011  0.06770753  0.01212148  1
  Al0+  Al88  1  0.93028581  0.82147569  0.65414646  1
  Al0+  Al89  1  0.82187124  0.07053337  0.34962809  1
  Al0+  Al90  1  0.17707359  0.42655386  0.35217139  1
  Al0+  Al91  1  0.17984267  0.93019943  0.68035386  1
  Al0+  Al92  1  0.81952896  0.57231010  0.01252208  1
  Al0+  Al93  1  0.67808747  0.92761850  0.34865769  1
  Al0+  Al94  1  0.57223277  0.67763576  0.98209388  1
  Al0+  Al95  1  0.32062689  0.56983293  0.34642776  1
  Si0+  Si96  1  0.07143805  0.67877518  0.31593806  1
  Si0+  Si97  1  0.17701738  0.92590286  0.01841454  1
  Si0+  Si98  1  0.57194619  0.17895941  0.31686659  1
  Si0+  Si99  1  0.93084681  0.32155665  0.98700674  1
  Si0+  Si100  1  0.67868133  0.92902470  0.01521331  1
  Si0+  Si101  1  0.06835332  0.67772883  0.98454181  1
  Si0+  Si102  1  0.17554587  0.42760208  0.68276587  1
  Si0+  Si103  1  0.68095867  0.42918132  0.68276968  1
  Si0+  Si104  1  0.07388756  0.67815287  0.65002416  1
  Si0+  Si105  1  0.67720175  0.42860697  0.01478281  1
  Si0+  Si106  1  0.32285701  0.57268818  0.01759952  1
  Si0+  Si107  1  0.07246003  0.17707051  0.65165807  1
  Si0+  Si108  1  0.07227739  0.17716461  0.31390677  1
  Si0+  Si109  1  0.42366552  0.32071371  0.98508316  1
  Si0+  Si110  1  0.32280939  0.07153974  0.34861405  1
  Si0+  Si111  1  0.82190414  0.57253917  0.67853957  1
  Si0+  Si112  1  0.67651148  0.92434129  0.68506969  1
  Si0+  Si113  1  0.32406776  0.07288522  0.68149075  1
  Si0+  Si114  1  0.57147789  0.67924730  0.65179378  1
  Si0+  Si115  1  0.93026317  0.82324185  0.98465770  1
  Si0+  Si116  1  0.42718343  0.81824063  0.65315428  1
  Si0+  Si117  1  0.07161734  0.17806496  0.98425953  1
  Si0+  Si118  1  0.82290303  0.57399226  0.35092641  1
  Si0+  Si119  1  0.17976258  0.92967351  0.34639005  1
  O2-  O120  1  0.25098375  -0.01049731  0.06129601  1
  O2-  O121  1  0.25486353  -0.00370312  0.38898028  1
  O2-  O122  1  0.25566126  0.00404033  0.72637907  1
  O2-  O123  1  0.25945571  0.49866641  0.06026432  1
  O2-  O124  1  0.25235123  0.49588132  0.40030113  1
  O2-  O125  1  0.24780131  0.49223355  0.72758133  1
  O2-  O126  1  0.74656411  -0.00137770  0.05934303  1
  O2-  O127  1  0.75184508  -0.00292363  0.39983283  1
  O2-  O128  1  0.74193655  -0.00357616  0.72949763  1
  O2-  O129  1  0.74081878  0.50212739  0.05839319  1
  O2-  O130  1  0.75450268  0.50528033  0.39567703  1
  O2-  O131  1  0.75447682  0.49908026  0.72304626  1
  O2-  O132  1  0.00499524  0.24797007  0.27046788  1
  O2-  O133  1  0.00630310  0.24815419  0.60802138  1
  O2-  O134  1  -0.00106189  0.24830683  0.94314296  1
  O2-  O135  1  -0.00023114  0.74411959  0.27047287  1
  O2-  O136  1  0.00535827  0.74735764  0.60644172  1
  O2-  O137  1  0.00042019  0.75162221  0.94153688  1
  O2-  O138  1  0.50089039  0.24410510  0.27088602  1
  O2-  O139  1  0.49751530  0.24675307  0.60149184  1
  O2-  O140  1  0.49550340  0.25522428  0.94101015  1
  O2-  O141  1  0.49981744  0.75210863  0.27153898  1
  O2-  O142  1  0.49968202  0.74960723  0.61056832  1
  O2-  O143  1  0.49705245  0.74638307  0.93154570  1
  O2-  O144  1  0.07355219  0.17673001  0.08879725  1
  O2-  O145  1  0.07245873  0.17306244  0.41952317  1
  O2-  O146  1  0.07220444  0.17763263  0.75776964  1
  O2-  O147  1  0.06755245  0.67802663  0.08929604  1
  O2-  O148  1  0.07204546  0.68255924  0.42165782  1
  O2-  O149  1  0.07046012  0.67667469  0.75618389  1
  O2-  O150  1  0.57119652  0.18244498  0.10060034  1
  O2-  O151  1  0.56984431  0.18019210  0.42231498  1
  O2-  O152  1  0.57259444  0.17919783  0.76281921  1
  O2-  O153  1  0.57318638  0.67898858  0.09476107  1
  O2-  O154  1  0.56818036  0.67763874  0.43342956  1
  O2-  O155  1  0.57342303  0.68025299  0.75680036  1
  O2-  O156  1  0.17859371  0.42942320  0.23814860  1
  O2-  O157  1  0.17157073  0.43109402  0.57820631  1
  O2-  O158  1  0.17775155  0.43122633  0.90009380  1
  O2-  O159  1  0.17737063  0.93181003  0.24138912  1
  O2-  O160  1  0.18088800  0.93091214  0.56685113  1
  O2-  O161  1  0.17342213  0.92913870  0.91276898  1
  O2-  O162  1  0.68129839  0.42998267  0.23363107  1
  O2-  O163  1  0.67933521  0.43064587  0.57785619  1
  O2-  O164  1  0.68260364  0.42623678  0.90880559  1
  O2-  O165  1  0.67805264  0.93041873  0.23464664  1
  O2-  O166  1  0.67868877  0.92073512  0.58010398  1
  O2-  O167  1  0.68200927  0.92794901  0.90921727  1
  O2-  O168  1  0.42348681  0.31859861  0.09057958  1
  O2-  O169  1  0.43109604  0.31920809  0.43194736  1
  O2-  O170  1  0.43096495  0.32080367  0.76645526  1
  O2-  O171  1  0.42975093  0.82028775  0.09565413  1
  O2-  O172  1  0.42347464  0.82042089  0.43431173  1
  O2-  O173  1  0.42760971  0.81766859  0.75811291  1
  O2-  O174  1  0.93172007  0.32113820  0.09165942  1
  O2-  O175  1  0.92919265  0.31791274  0.43083251  1
  O2-  O176  1  0.93178924  0.32328535  0.76836801  1
  O2-  O177  1  0.93208733  0.82251788  0.08957983  1
  O2-  O178  1  0.93334484  0.82360312  0.43145399  1
  O2-  O179  1  0.93137723  0.81929038  0.76787798  1
  O2-  O180  1  0.32192467  0.07257841  0.24339106  1
  O2-  O181  1  0.32193640  0.07143841  0.57575077  1
  O2-  O182  1  0.31723961  0.06863165  0.89884548  1
  O2-  O183  1  0.31803833  0.57002842  0.23284194  1
  O2-  O184  1  0.32268515  0.57264702  0.57103113  1
  O2-  O185  1  0.31970019  0.57219676  0.91154996  1
  O2-  O186  1  0.81911151  0.07026924  0.23567184  1
  O2-  O187  1  0.81990473  0.06836983  0.56942213  1
  O2-  O188  1  0.82260253  0.07282738  0.90137361  1
  O2-  O189  1  0.82223780  0.57206263  0.24493994  1
  O2-  O190  1  0.81975433  0.57487247  0.57408854  1
  O2-  O191  1  0.82306167  0.56873969  0.89852894  1
  O2-  O192  1  0.04617570  0.08541278  0.26406376  1
  O2-  O193  1  0.04401963  0.08435315  0.60597110  1
  O2-  O194  1  0.04478027  0.08560708  0.93675162  1
  O2-  O195  1  0.04906558  0.58420138  0.27105441  1
  O2-  O196  1  0.04931794  0.58580655  0.60198662  1
  O2-  O197  1  0.03632793  0.58724196  0.93628678  1
  O2-  O198  1  0.54821891  0.08442423  0.27246989  1
  O2-  O199  1  0.54812759  0.07590076  0.59693520  1
  O2-  O200  1  0.54310934  0.08520330  0.93139783  1
  O2-  O201  1  0.54245186  0.58061533  0.26411454  1
  O2-  O202  1  0.54395516  0.58602944  0.60820764  1
  O2-  O203  1  0.54786655  0.57773886  0.92775676  1
  O2-  O204  1  0.16618212  0.20167752  0.26752609  1
  O2-  O205  1  0.16682373  0.19719693  0.60481230  1
  O2-  O206  1  0.16236970  0.20742712  0.93519068  1
  O2-  O207  1  0.16234642  0.70887631  0.26698077  1
  O2-  O208  1  0.16829559  0.70520969  0.60750241  1
  O2-  O209  1  0.16045886  0.70172558  0.93543207  1
  O2-  O210  1  0.66486393  0.20809155  0.27238694  1
  O2-  O211  1  0.66873502  0.20850525  0.59600409  1
  O2-  O212  1  0.66727767  0.21522278  0.93160469  1
  O2-  O213  1  0.66964858  0.70360176  0.26581105  1
  O2-  O214  1  0.66250847  0.70590888  0.60274588  1
  O2-  O215  1  0.67042052  0.70942681  0.92790536  1
  O2-  O216  1  0.08615293  0.46546234  0.06953673  1
  O2-  O217  1  0.07900674  0.45867944  0.40344891  1
  O2-  O218  1  0.08316207  0.45775564  0.73098959  1
  O2-  O219  1  0.08641015  0.95821066  0.06682104  1
  O2-  O220  1  0.09035604  0.96305094  0.39531175  1
  O2-  O221  1  0.08521456  0.96204313  0.73787783  1
  O2-  O222  1  0.58056567  0.44809388  0.05677395  1
  O2-  O223  1  0.58419343  0.46105390  0.40251848  1
  O2-  O224  1  0.59160778  0.45900868  0.73344754  1
  O2-  O225  1  0.58428738  0.95362918  0.05820882  1
  O2-  O226  1  0.58032745  0.95568941  0.40414953  1
  O2-  O227  1  0.58069476  0.94609468  0.72878168  1
  O2-  O228  1  0.20267834  0.33119788  0.06814991  1
  O2-  O229  1  0.19794878  0.32520303  0.40161318  1
  O2-  O230  1  0.19685488  0.33152991  0.72658284  1
  O2-  O231  1  0.19494658  0.82947590  0.06115719  1
  O2-  O232  1  0.20199525  0.83706360  0.39435763  1
  O2-  O233  1  0.20786283  0.83422696  0.73732645  1
  O2-  O234  1  0.70788654  0.33832957  0.06385698  1
  O2-  O235  1  0.71229330  0.33552198  0.40299560  1
  O2-  O236  1  0.70888345  0.33721142  0.72941302  1
  O2-  O237  1  0.70614028  0.83626519  0.06127349  1
  O2-  O238  1  0.70562221  0.82808530  0.39974538  1
  O2-  O239  1  0.70631477  0.83186527  0.73247041  1
  O2-  O240  1  0.46039959  0.41484640  0.26415077  1
  O2-  O241  1  0.46364607  0.41981247  0.60194262  1
  O2-  O242  1  0.44430535  0.41608809  0.94058666  1
  O2-  O243  1  0.45500743  0.92269016  0.26912123  1
  O2-  O244  1  0.44939504  0.91127940  0.60599125  1
  O2-  O245  1  0.45724119  0.91792477  0.92737081  1
  O2-  O246  1  0.95762570  0.41939595  0.26520250  1
  O2-  O247  1  0.95764691  0.41837060  0.59816117  1
  O2-  O248  1  0.96168344  0.41345602  0.94078953  1
  O2-  O249  1  0.96555068  0.91696448  0.26286648  1
  O2-  O250  1  0.96377111  0.91762610  0.60166560  1
  O2-  O251  1  0.96075579  0.91530999  0.93863898  1
  O2-  O252  1  0.33010536  0.28964633  0.26833259  1
  O2-  O253  1  0.32878149  0.29985823  0.59996427  1
  O2-  O254  1  0.33058105  0.29171980  0.93949758  1
  O2-  O255  1  0.32792708  0.79724556  0.26571126  1
  O2-  O256  1  0.33460324  0.78821837  0.60877836  1
  O2-  O257  1  0.32622020  0.79523674  0.93196706  1
  O2-  O258  1  0.83246875  0.28975485  0.26328470  1
  O2-  O259  1  0.83460030  0.28983863  0.60110470  1
  O2-  O260  1  0.83832680  0.29704458  0.93930134  1
  O2-  O261  1  0.83328705  0.79455055  0.26279076  1
  O2-  O262  1  0.83434536  0.78999642  0.59951179  1
  O2-  O263  1  0.83842419  0.79710400  0.93723332  1
  O2-  O264  1  0.41938598  0.04069202  0.06537928  1
  O2-  O265  1  0.41493418  0.04905927  0.39694779  1
  O2-  O266  1  0.41814113  0.04588438  0.72606394  1
  O2-  O267  1  0.41961319  0.55377344  0.05870963  1
  O2-  O268  1  0.41921225  0.54253903  0.39902306  1
  O2-  O269  1  0.41837953  0.53842504  0.74010908  1
  O2-  O270  1  0.91834670  0.04405597  0.06838478  1
  O2-  O271  1  0.92245712  0.04357528  0.39885735  1
  O2-  O272  1  0.91431013  0.03916607  0.73685490  1
  O2-  O273  1  0.91311936  0.53997313  0.07031254  1
  O2-  O274  1  0.91713330  0.55050031  0.39575611  1
  O2-  O275  1  0.91556732  0.54753945  0.72465318  1
  O2-  O276  1  0.28628500  0.16153860  0.06892643  1
  O2-  O277  1  0.28912701  0.16026613  0.39816737  1
  O2-  O278  1  0.29860565  0.16683677  0.72723042  1
  O2-  O279  1  0.29057480  0.66484172  0.06195222  1
  O2-  O280  1  0.28839752  0.66837677  0.39914930  1
  O2-  O281  1  0.28888182  0.66269747  0.74218045  1
  O2-  O282  1  0.79095848  0.17065752  0.06711233  1
  O2-  O283  1  0.79278195  0.16866115  0.40155784  1
  O2-  O284  1  0.78805202  0.16775961  0.73550593  1
  O2-  O285  1  0.79310730  0.67072146  0.06481332  1
  O2-  O286  1  0.79883980  0.66864874  0.39456903  1
  O2-  O287  1  0.79136215  0.66314520  0.72793661  1
