# generated using pymatgen
data_Ca2Al2SiO7
_symmetry_space_group_name_H-M   'P 1'
_cell_length_a   15.46143453
_cell_length_b   15.46261941
_cell_length_c   15.28658798
_cell_angle_alpha   90.00186782
_cell_angle_beta   90.01062154
_cell_angle_gamma   89.97948090
_symmetry_Int_Tables_number   1
_chemical_formula_structural   Ca2Al2SiO7
_chemical_formula_sum   'Ca48 Al48 Si24 O168'
_cell_volume   3654.62968210
_cell_formula_units_Z   24
loop_
 _symmetry_equiv_pos_site_id
 _symmetry_equiv_pos_as_xyz
  1  'x, y, z'
loop_
 _atom_type_symbol
 _atom_type_oxidation_number
  Ca2+  2.0
  Al0+  0.0
  Si0+  0.0
  O2-  -2.0
loop_
 _atom_site_type_symbol
 _atom_site_label
 _atom_site_symmetry_multiplicity
 _atom_site_fract_x
 _atom_site_fract_y
 _atom_site_fract_z
 _atom_site_occupancy
  Ca2+  Ca0  1  0.17041280  0.07702518  0.17048249  1
  Ca2+  Ca1  1  0.15753362  0.07490777  0.50403828  1
  Ca2+  Ca2  1  0.16714227  0.07849847  0.84014832  1
  Ca2+  Ca3  1  0.16748546  0.57900300  0.16971506  1
  Ca2+  Ca4  1  0.16646762  0.57829096  0.51160319  1
  Ca2+  Ca5  1  0.16246883  0.57783627  0.83240503  1
  Ca2+  Ca6  1  0.67726566  0.09208722  0.16945054  1
  Ca2+  Ca7  1  0.67010266  0.09242640  0.50101786  1
  Ca2+  Ca8  1  0.66960086  0.08374819  0.84532457  1
  Ca2+  Ca9  1  0.65560481  0.57821936  0.16730275  1
  Ca2+  Ca10  1  0.66713844  0.58496417  0.50220209  1
  Ca2+  Ca11  1  0.66714163  0.57499599  0.84477155  1
  Ca2+  Ca12  1  0.07630859  0.32382189  0.16041866  1
  Ca2+  Ca13  1  0.08685973  0.32167138  0.49968268  1
  Ca2+  Ca14  1  0.07280829  0.32812647  0.82219291  1
  Ca2+  Ca15  1  0.07508300  0.84637212  0.16462919  1
  Ca2+  Ca16  1  0.08579734  0.83353182  0.49323006  1
  Ca2+  Ca17  1  0.08216813  0.83744673  0.83015752  1
  Ca2+  Ca18  1  0.58184258  0.32309083  0.15631743  1
  Ca2+  Ca19  1  0.57983840  0.32231616  0.49971381  1
  Ca2+  Ca20  1  0.57766957  0.32240672  0.83280829  1
  Ca2+  Ca21  1  0.59139761  0.82327922  0.16038971  1
  Ca2+  Ca22  1  0.57317550  0.82772850  0.48738459  1
  Ca2+  Ca23  1  0.59098868  0.83014389  0.83435942  1
  Ca2+  Ca24  1  0.33897654  0.41594580  0.16688737  1
  Ca2+  Ca25  1  0.32925949  0.41689679  0.50907495  1
  Ca2+  Ca26  1  0.33202863  0.40706999  0.83626462  1
  Ca2+  Ca27  1  0.32547161  0.91723350  0.16958750  1
  Ca2+  Ca28  1  0.32411974  0.91378777  0.50458639  1
  Ca2+  Ca29  1  0.32113459  0.92596649  0.84198182  1
  Ca2+  Ca30  1  0.82719635  0.41179582  0.16528662  1
  Ca2+  Ca31  1  0.83417106  0.41634600  0.50654048  1
  Ca2+  Ca32  1  0.83051516  0.41191306  0.84257087  1
  Ca2+  Ca33  1  0.83342057  0.92411128  0.16776517  1
  Ca2+  Ca34  1  0.83700109  0.92251697  0.49719454  1
  Ca2+  Ca35  1  0.82977160  0.92581950  0.84598192  1
  Ca2+  Ca36  1  0.42619483  0.16634422  0.15668089  1
  Ca2+  Ca37  1  0.42523377  0.16752074  0.49752837  1
  Ca2+  Ca38  1  0.42279122  0.16771212  0.83144539  1
  Ca2+  Ca39  1  0.42360222  0.67593261  0.16555300  1
  Ca2+  Ca40  1  0.41988019  0.67351228  0.49131729  1
  Ca2+  Ca41  1  0.42180345  0.66739537  0.83507361  1
  Ca2+  Ca42  1  0.91969064  0.15921925  0.16264537  1
  Ca2+  Ca43  1  0.92626784  0.16637274  0.49782009  1
  Ca2+  Ca44  1  0.91553912  0.17451456  0.83078852  1
  Ca2+  Ca45  1  0.91422672  0.68366473  0.16124115  1
  Ca2+  Ca46  1  0.92496950  0.67447608  0.49666725  1
  Ca2+  Ca47  1  0.92155992  0.67681585  0.83088731  1
  Al0+  Al48  1  -0.00113444  -0.00080663  0.00063382  1
  Al0+  Al49  1  0.00014893  0.00086555  0.33494947  1
  Al0+  Al50  1  -0.00400279  0.00126130  0.66962996  1
  Al0+  Al51  1  0.00014669  0.50037320  -0.00071814  1
  Al0+  Al52  1  -0.00146107  0.49960331  0.33516189  1
  Al0+  Al53  1  0.00013262  0.50425497  0.66464986  1
  Al0+  Al54  1  0.49884580  -0.00376056  0.00323634  1
  Al0+  Al55  1  0.49913269  0.00089091  0.32559845  1
  Al0+  Al56  1  0.50042460  -0.00231895  0.66326627  1
  Al0+  Al57  1  0.49948363  0.50062507  -0.00275530  1
  Al0+  Al58  1  0.49933761  0.50020453  0.33495903  1
  Al0+  Al59  1  0.50126846  0.50039539  0.66388356  1
  Al0+  Al60  1  0.24957984  0.24932198  0.00255369  1
  Al0+  Al61  1  0.24900623  0.24912400  0.32985864  1
  Al0+  Al62  1  0.25025921  0.24982458  0.66381810  1
  Al0+  Al63  1  0.25046246  0.74678926  0.00408314  1
  Al0+  Al64  1  0.25066557  0.74745317  0.33311853  1
  Al0+  Al65  1  0.25008688  0.74951399  0.66971157  1
  Al0+  Al66  1  0.74998652  0.25149912  0.00182616  1
  Al0+  Al67  1  0.74965230  0.25186041  0.33778020  1
  Al0+  Al68  1  0.74945192  0.25178949  0.66058952  1
  Al0+  Al69  1  0.75339457  0.74985045  -0.00750528  1
  Al0+  Al70  1  0.75143876  0.74867196  0.32888727  1
  Al0+  Al71  1  0.75100526  0.74998503  0.66609927  1
  Al0+  Al72  1  0.67873350  0.43103316  0.01314662  1
  Al0+  Al73  1  0.81861535  0.07261796  0.01459267  1
  Al0+  Al74  1  0.92842456  0.32334528  0.65133714  1
  Al0+  Al75  1  0.57128367  0.67896765  0.31834114  1
  Al0+  Al76  1  0.57124202  0.17579936  0.98653643  1
  Al0+  Al77  1  0.17947229  0.42820260  0.68029879  1
  Al0+  Al78  1  0.42599887  0.82202967  0.31756650  1
  Al0+  Al79  1  0.18153898  0.93049527  0.34820789  1
  Al0+  Al80  1  0.17879587  0.92769033  0.01592270  1
  Al0+  Al81  1  0.81978372  0.07137081  0.35002615  1
  Al0+  Al82  1  0.07058535  0.17730397  0.65324554  1
  Al0+  Al83  1  0.17779731  0.92957665  0.68058712  1
  Al0+  Al84  1  0.92962580  0.32174504  0.98828981  1
  Al0+  Al85  1  0.57071489  0.68094459  0.98469366  1
  Al0+  Al86  1  0.93172051  0.82203444  0.98469423  1
  Al0+  Al87  1  0.57240420  0.18034540  0.31790110  1
  Al0+  Al88  1  0.32164573  0.07300939  0.01533021  1
  Al0+  Al89  1  0.57084460  0.17644525  0.65137026  1
  Al0+  Al90  1  0.42838687  0.32210096  0.65098953  1
  Al0+  Al91  1  0.07178559  0.68257064  0.65392594  1
  Al0+  Al92  1  0.67852734  0.92536455  0.01401319  1
  Al0+  Al93  1  0.42760563  0.32110419  0.98568686  1
  Al0+  Al94  1  0.93167752  0.82076822  0.32037668  1
  Al0+  Al95  1  0.07018889  0.17918657  0.31810145  1
  Si0+  Si96  1  0.32176297  0.56961995  0.01651190  1
  Si0+  Si97  1  0.67806397  0.92710150  0.67917938  1
  Si0+  Si98  1  0.07112690  0.17819894  0.98411319  1
  Si0+  Si99  1  0.81749008  0.07231026  0.68156399  1
  Si0+  Si100  1  0.82183189  0.57266623  0.34969234  1
  Si0+  Si101  1  0.32005086  0.56848642  0.34920652  1
  Si0+  Si102  1  0.82102688  0.57347115  0.68281281  1
  Si0+  Si103  1  0.32487744  0.07089128  0.68144345  1
  Si0+  Si104  1  0.57263770  0.67932996  0.65177188  1
  Si0+  Si105  1  0.92816549  0.32393738  0.31671650  1
  Si0+  Si106  1  0.42447760  0.82074749  0.98175402  1
  Si0+  Si107  1  0.82373450  0.57179000  0.01682532  1
  Si0+  Si108  1  0.67784993  0.92592233  0.34902202  1
  Si0+  Si109  1  0.32385333  0.57165081  0.68480366  1
  Si0+  Si110  1  0.07242254  0.67514912  0.31675060  1
  Si0+  Si111  1  0.17721934  0.42788975  0.34823345  1
  Si0+  Si112  1  0.17712908  0.42892597  0.01523515  1
  Si0+  Si113  1  0.07422616  0.67649940  0.98382463  1
  Si0+  Si114  1  0.67859923  0.43066015  0.35110068  1
  Si0+  Si115  1  0.92677693  0.82249087  0.64915728  1
  Si0+  Si116  1  0.32384606  0.07427922  0.35118982  1
  Si0+  Si117  1  0.42777538  0.32160812  0.31749363  1
  Si0+  Si118  1  0.68000903  0.43052298  0.68187537  1
  Si0+  Si119  1  0.42925909  0.81917385  0.65362297  1
  O2-  O120  1  0.25107903  -0.00061856  0.06530791  1
  O2-  O121  1  0.25763337  0.00338065  0.39650529  1
  O2-  O122  1  0.25026485  0.00759249  0.72470570  1
  O2-  O123  1  0.25075637  0.49750977  0.05772356  1
  O2-  O124  1  0.24824766  0.49860439  0.39122278  1
  O2-  O125  1  0.25749340  0.50010094  0.72814587  1
  O2-  O126  1  0.74397074  0.00275281  0.06465435  1
  O2-  O127  1  0.74229535  -0.00253219  0.39609553  1
  O2-  O128  1  0.74501957  0.00160127  0.72109468  1
  O2-  O129  1  0.75352630  0.50530154  0.06211320  1
  O2-  O130  1  0.75026386  0.50210552  0.39257612  1
  O2-  O131  1  0.75284152  0.49973594  0.72450550  1
  O2-  O132  1  -0.00520399  0.25395028  0.27256104  1
  O2-  O133  1  0.00205594  0.25289558  0.60216313  1
  O2-  O134  1  0.00347020  0.24781468  0.94039556  1
  O2-  O135  1  0.00694643  0.74620682  0.27309906  1
  O2-  O136  1  0.00108508  0.75978705  0.60536542  1
  O2-  O137  1  0.00970626  0.74921301  0.94046011  1
  O2-  O138  1  0.49407510  0.25181231  0.27318807  1
  O2-  O139  1  0.49734943  0.24741719  0.60144418  1
  O2-  O140  1  0.49647747  0.24564758  0.93718394  1
  O2-  O141  1  0.50478087  0.75605859  0.26908229  1
  O2-  O142  1  0.50122177  0.74928574  0.61018058  1
  O2-  O143  1  0.49923377  0.75828704  0.93669681  1
  O2-  O144  1  0.07055321  0.18035278  0.09000925  1
  O2-  O145  1  0.07011604  0.18085167  0.43117009  1
  O2-  O146  1  0.06706208  0.17682951  0.76671291  1
  O2-  O147  1  0.07206893  0.67149454  0.08933136  1
  O2-  O148  1  0.07108154  0.67297998  0.42246999  1
  O2-  O149  1  0.06920018  0.68181145  0.76677632  1
  O2-  O150  1  0.57288979  0.18207309  0.09995688  1
  O2-  O151  1  0.57203032  0.18399865  0.43118287  1
  O2-  O152  1  0.57237711  0.17587015  0.76432544  1
  O2-  O153  1  0.56732640  0.67890598  0.09738850  1
  O2-  O154  1  0.56875032  0.67801855  0.43285849  1
  O2-  O155  1  0.57408052  0.67923210  0.75653699  1
  O2-  O156  1  0.17645773  0.43072182  0.24295871  1
  O2-  O157  1  0.18038243  0.43287344  0.56671130  1
  O2-  O158  1  0.17488315  0.43140783  0.91038375  1
  O2-  O159  1  0.18132867  0.93171622  0.23579428  1
  O2-  O160  1  0.18082717  0.92717545  0.56733513  1
  O2-  O161  1  0.17983977  0.92870350  0.90182079  1
  O2-  O162  1  0.67781973  0.43111116  0.24623673  1
  O2-  O163  1  0.68008333  0.43419061  0.57630705  1
  O2-  O164  1  0.68023462  0.43246910  0.89974770  1
  O2-  O165  1  0.68291392  0.92231226  0.24424551  1
  O2-  O166  1  0.67933191  0.92207110  0.57425204  1
  O2-  O167  1  0.68409330  0.92488392  0.89945784  1
  O2-  O168  1  0.43076560  0.32357219  0.09960192  1
  O2-  O169  1  0.42872466  0.32352515  0.42302144  1
  O2-  O170  1  0.43237993  0.32381699  0.76383122  1
  O2-  O171  1  0.41953400  0.81398832  0.08669309  1
  O2-  O172  1  0.42566668  0.81617696  0.43230550  1
  O2-  O173  1  0.43081035  0.81793785  0.75835604  1
  O2-  O174  1  0.93357570  0.32542555  0.10132238  1
  O2-  O175  1  0.93095324  0.32721003  0.42216908  1
  O2-  O176  1  0.92644747  0.32078638  0.76485968  1
  O2-  O177  1  0.93150511  0.82045016  0.09780323  1
  O2-  O178  1  0.93233240  0.81752324  0.43396094  1
  O2-  O179  1  0.92350325  0.81913366  0.75438623  1
  O2-  O180  1  0.32015533  0.07702154  0.24615769  1
  O2-  O181  1  0.33008368  0.06513005  0.57602727  1
  O2-  O182  1  0.31782571  0.07323054  0.90098379  1
  O2-  O183  1  0.32074489  0.56672217  0.24410078  1
  O2-  O184  1  0.32326186  0.57327576  0.57887978  1
  O2-  O185  1  0.32135562  0.57211402  0.91157384  1
  O2-  O186  1  0.82010423  0.07171697  0.23768460  1
  O2-  O187  1  0.81886475  0.07053417  0.57629922  1
  O2-  O188  1  0.81945996  0.07202391  0.90037963  1
  O2-  O189  1  0.82549874  0.57135566  0.24522169  1
  O2-  O190  1  0.81711298  0.57720501  0.57743238  1
  O2-  O191  1  0.82372436  0.56975543  0.91084302  1
  O2-  O192  1  0.03809835  0.08360731  0.26522420  1
  O2-  O193  1  0.03558140  0.08057004  0.59935067  1
  O2-  O194  1  0.04497540  0.08516412  0.93878663  1
  O2-  O195  1  0.04405387  0.58216147  0.27041701  1
  O2-  O196  1  0.03822776  0.58837185  0.59709915  1
  O2-  O197  1  0.04385649  0.58520334  0.93538812  1
  O2-  O198  1  0.54971779  0.08198417  0.26546877  1
  O2-  O199  1  0.54562960  0.07713072  0.59731105  1
  O2-  O200  1  0.54774472  0.07479667  0.93641163  1
  O2-  O201  1  0.53694550  0.58152363  0.26724650  1
  O2-  O202  1  0.54615837  0.58809591  0.60302391  1
  O2-  O203  1  0.53537623  0.58632794  0.92951785  1
  O2-  O204  1  0.16597550  0.21119821  0.26314588  1
  O2-  O205  1  0.17000677  0.20042637  0.60021149  1
  O2-  O206  1  0.16477231  0.20378174  0.93957342  1
  O2-  O207  1  0.16745067  0.69526818  0.27266470  1
  O2-  O208  1  0.17030678  0.70753520  0.60029529  1
  O2-  O209  1  0.16960118  0.69638864  0.93940986  1
  O2-  O210  1  0.66830842  0.21743403  0.26716432  1
  O2-  O211  1  0.66641740  0.21083116  0.59619793  1
  O2-  O212  1  0.66821439  0.20978197  0.93414126  1
  O2-  O213  1  0.67131149  0.69930045  0.26653514  1
  O2-  O214  1  0.66418298  0.70773530  0.60363756  1
  O2-  O215  1  0.66800113  0.70661695  0.92911955  1
  O2-  O216  1  0.08767767  0.46136674  0.06541571  1
  O2-  O217  1  0.08556220  0.45561904  0.39615575  1
  O2-  O218  1  0.08338672  0.46477010  0.73300730  1
  O2-  O219  1  0.08074833  0.95770788  0.06704146  1
  O2-  O220  1  0.08516336  0.96207799  0.40242718  1
  O2-  O221  1  0.07903086  0.95655549  0.73259313  1
  O2-  O222  1  0.58280552  0.46460447  0.06725893  1
  O2-  O223  1  0.58719602  0.46008552  0.39943561  1
  O2-  O224  1  0.58881248  0.46152699  0.72824395  1
  O2-  O225  1  0.57564963  0.93732539  0.06193720  1
  O2-  O226  1  0.58091238  0.94766085  0.39053746  1
  O2-  O227  1  0.58454118  0.94891650  0.72581480  1
  O2-  O228  1  0.20193559  0.33723709  0.06372846  1
  O2-  O229  1  0.20565921  0.33581811  0.39438874  1
  O2-  O230  1  0.20531699  0.32991118  0.73342039  1
  O2-  O231  1  0.20470729  0.82753564  0.06731530  1
  O2-  O232  1  0.20949398  0.83031647  0.39911908  1
  O2-  O233  1  0.21111704  0.83361501  0.73477697  1
  O2-  O234  1  0.71096542  0.33660400  0.06948995  1
  O2-  O235  1  0.70776873  0.34083303  0.40127938  1
  O2-  O236  1  0.70660003  0.33754415  0.72670166  1
  O2-  O237  1  0.71444916  0.82789390  0.06483533  1
  O2-  O238  1  0.70624376  0.83240983  0.39623973  1
  O2-  O239  1  0.70932529  0.83633772  0.72804631  1
  O2-  O240  1  0.45508862  0.41538054  0.27288633  1
  O2-  O241  1  0.45947133  0.42048872  0.59680193  1
  O2-  O242  1  0.45620141  0.41886434  0.93232354  1
  O2-  O243  1  0.44312965  0.92259443  0.26740553  1
  O2-  O244  1  0.45560127  0.90956071  0.60337976  1
  O2-  O245  1  0.44227590  0.91639423  0.93834217  1
  O2-  O246  1  0.95453019  0.41725796  0.26990871  1
  O2-  O247  1  0.95207486  0.42391815  0.60100817  1
  O2-  O248  1  0.95979806  0.41848612  0.93346275  1
  O2-  O249  1  0.96225521  0.91669172  0.26733003  1
  O2-  O250  1  0.94593375  0.91822782  0.60667816  1
  O2-  O251  1  0.96050853  0.91826438  0.92904702  1
  O2-  O252  1  0.33305175  0.30109030  0.27191670  1
  O2-  O253  1  0.32903709  0.29912291  0.59804916  1
  O2-  O254  1  0.32685558  0.29658696  0.93535784  1
  O2-  O255  1  0.33163904  0.78316892  0.26328151  1
  O2-  O256  1  0.33860039  0.78869338  0.60586406  1
  O2-  O257  1  0.33397782  0.78563551  0.93386553  1
  O2-  O258  1  0.83279019  0.30073421  0.27499941  1
  O2-  O259  1  0.83137905  0.29488790  0.59603449  1
  O2-  O260  1  0.83309573  0.29283959  0.93455380  1
  O2-  O261  1  0.83662744  0.78767533  0.26585697  1
  O2-  O262  1  0.83602187  0.78923458  0.60077816  1
  O2-  O263  1  0.83874261  0.78723151  0.92615937  1
  O2-  O264  1  0.42010259  0.04583282  0.06797606  1
  O2-  O265  1  0.41972103  0.05160777  0.39452331  1
  O2-  O266  1  0.41602933  0.03847250  0.72984784  1
  O2-  O267  1  0.41239052  0.54100326  0.06516874  1
  O2-  O268  1  0.41132845  0.54077861  0.39896937  1
  O2-  O269  1  0.41948175  0.54922134  0.72871433  1
  O2-  O270  1  0.91629789  0.04033270  0.06645903  1
  O2-  O271  1  0.91499219  0.03675236  0.40471926  1
  O2-  O272  1  0.90775739  0.04407570  0.73125605  1
  O2-  O273  1  0.91661934  0.54547554  0.06424642  1
  O2-  O274  1  0.91318941  0.54386022  0.39946524  1
  O2-  O275  1  0.91410259  0.55110296  0.72893258  1
  O2-  O276  1  0.29327089  0.17089283  0.07072378  1
  O2-  O277  1  0.29604162  0.16813750  0.39694861  1
  O2-  O278  1  0.30539959  0.16707586  0.72327815  1
  O2-  O279  1  0.29249847  0.65911002  0.06769005  1
  O2-  O280  1  0.29321213  0.65980793  0.39804366  1
  O2-  O281  1  0.29541431  0.66341792  0.73296041  1
  O2-  O282  1  0.79457136  0.17114420  0.06932686  1
  O2-  O283  1  0.79022171  0.16892110  0.40448954  1
  O2-  O284  1  0.79034401  0.16546184  0.72635379  1
  O2-  O285  1  0.79858400  0.66621584  0.05954232  1
  O2-  O286  1  0.79354512  0.66376972  0.39891236  1
  O2-  O287  1  0.78944896  0.66392493  0.73175976  1
