# generated using pymatgen
data_Ca2Al2SiO7
_symmetry_space_group_name_H-M   'P 1'
_cell_length_a   15.45752637
_cell_length_b   15.45785283
_cell_length_c   15.28415268
_cell_angle_alpha   89.99591984
_cell_angle_beta   89.99956144
_cell_angle_gamma   90.00427298
_symmetry_Int_Tables_number   1
_chemical_formula_structural   Ca2Al2SiO7
_chemical_formula_sum   'Ca48 Al48 Si24 O168'
_cell_volume   3651.99798620
_cell_formula_units_Z   24
loop_
 _symmetry_equiv_pos_site_id
 _symmetry_equiv_pos_as_xyz
  1  'x, y, z'
loop_
 _atom_type_symbol
 _atom_type_oxidation_number
  Ca2+  2.0
  Al0+  0.0
  Si0+  0.0
  O2-  -2.0
loop_
 _atom_site_type_symbol
 _atom_site_label
 _atom_site_symmetry_multiplicity
 _atom_site_fract_x
 _atom_site_fract_y
 _atom_site_fract_z
 _atom_site_occupancy
  Ca2+  Ca0  1  0.16214052  0.08690101  0.16466589  1
  Ca2+  Ca1  1  0.16974674  0.08724783  0.50361097  1
  Ca2+  Ca2  1  0.17459255  0.08303351  0.84421978  1
  Ca2+  Ca3  1  0.17582485  0.58331531  0.17353111  1
  Ca2+  Ca4  1  0.17051462  0.57489223  0.49848674  1
  Ca2+  Ca5  1  0.17577900  0.58459299  0.84617406  1
  Ca2+  Ca6  1  0.67558303  0.07581976  0.17651196  1
  Ca2+  Ca7  1  0.66909602  0.07383644  0.50320376  1
  Ca2+  Ca8  1  0.66265777  0.07338025  0.83733611  1
  Ca2+  Ca9  1  0.67383184  0.58302041  0.16668664  1
  Ca2+  Ca10  1  0.66881001  0.58434537  0.50194088  1
  Ca2+  Ca11  1  0.66430696  0.57644346  0.84210067  1
  Ca2+  Ca12  1  0.07601183  0.32979991  0.16310876  1
  Ca2+  Ca13  1  0.07822543  0.32793157  0.48564048  1
  Ca2+  Ca14  1  0.07811554  0.33216273  0.83573602  1
  Ca2+  Ca15  1  0.07637543  0.82874160  0.15236302  1
  Ca2+  Ca16  1  0.08107781  0.83086587  0.49508115  1
  Ca2+  Ca17  1  0.08342879  0.83270108  0.83992754  1
  Ca2+  Ca18  1  0.57784448  0.33745870  0.15729032  1
  Ca2+  Ca19  1  0.57818477  0.34080376  0.50089992  1
  Ca2+  Ca20  1  0.57349161  0.34256306  0.83011184  1
  Ca2+  Ca21  1  0.58860697  0.82158004  0.16345977  1
  Ca2+  Ca22  1  0.59135774  0.82673637  0.49465697  1
  Ca2+  Ca23  1  0.58864518  0.81975285  0.82814443  1
  Ca2+  Ca24  1  0.33007503  0.42501913  0.16803854  1
  Ca2+  Ca25  1  0.33152588  0.41659577  0.49947802  1
  Ca2+  Ca26  1  0.33691556  0.41782570  0.84237424  1
  Ca2+  Ca27  1  0.32631647  0.91957202  0.16492318  1
  Ca2+  Ca28  1  0.33340528  0.92554790  0.50693578  1
  Ca2+  Ca29  1  0.33027775  0.93001452  0.84383642  1
  Ca2+  Ca30  1  0.83938838  0.42408790  0.16977909  1
  Ca2+  Ca31  1  0.83037084  0.42056762  0.50267021  1
  Ca2+  Ca32  1  0.81995622  0.41935158  0.84469869  1
  Ca2+  Ca33  1  0.83258762  0.91952510  0.17318542  1
  Ca2+  Ca34  1  0.82341041  0.92044737  0.49883863  1
  Ca2+  Ca35  1  0.83071548  0.91258890  0.83686255  1
  Ca2+  Ca36  1  0.41700035  0.17334471  0.15765520  1
  Ca2+  Ca37  1  0.41467236  0.17021732  0.50051519  1
  Ca2+  Ca38  1  0.40744817  0.17632309  0.83092370  1
  Ca2+  Ca39  1  0.42570819  0.65675442  0.16102967  1
  Ca2+  Ca40  1  0.43048480  0.66365397  0.49268022  1
  Ca2+  Ca41  1  0.42898540  0.65932319  0.83195683  1
  Ca2+  Ca42  1  0.92181929  0.17518763  0.16079663  1
  Ca2+  Ca43  1  0.91982615  0.17357465  0.48523068  1
  Ca2+  Ca44  1  0.92052528  0.16998937  0.83607983  1
  Ca2+  Ca45  1  0.91653882  0.66871447  0.15502437  1
  Ca2+  Ca46  1  0.91370450  0.66642065  0.49331949  1
  Ca2+  Ca47  1  0.91700848  0.66637804  0.83999343  1
  Al0+  Al48  1  -0.00079125  -0.00040393  -0.00657313  1
  Al0+  Al49  1  0.00059441  0.00011801  0.33510498  1
  Al0+  Al50  1  0.00004526  -0.00120075  0.66478084  1
  Al0+  Al51  1  -0.00109437  0.50010998  -0.00691715  1
  Al0+  Al52  1  0.00097742  0.50012709  0.33937325  1
  Al0+  Al53  1  0.00099002  0.50006311  0.66600426  1
  Al0+  Al54  1  0.49937114  -0.00066657  0.00641743  1
  Al0+  Al55  1  0.49769908  -0.00159074  0.33622955  1
  Al0+  Al56  1  0.49988155  0.00092608  0.67598179  1
  Al0+  Al57  1  0.49950285  0.49852853  0.00044366  1
  Al0+  Al58  1  0.50077922  0.50150435  0.33191142  1
  Al0+  Al59  1  0.50014262  0.50023274  0.65879094  1
  Al0+  Al60  1  0.25112354  0.25093034  -0.00291125  1
  Al0+  Al61  1  0.24962932  0.24956466  0.33264111  1
  Al0+  Al62  1  0.24931231  0.25131407  0.66538420  1
  Al0+  Al63  1  0.25147992  0.75253143  0.00445018  1
  Al0+  Al64  1  0.25301357  0.75160402  0.34007400  1
  Al0+  Al65  1  0.24983240  0.74974406  0.66449404  1
  Al0+  Al66  1  0.74703335  0.24731590  -0.00119171  1
  Al0+  Al67  1  0.74910927  0.25071307  0.33359335  1
  Al0+  Al68  1  0.74968711  0.25039587  0.67012229  1
  Al0+  Al69  1  0.74968690  0.74778410  -0.00595336  1
  Al0+  Al70  1  0.74955541  0.74801608  0.33623576  1
  Al0+  Al71  1  0.75277306  0.75092586  0.66552636  1
  Al0+  Al72  1  0.82062839  0.56988922  0.01361411  1
  Al0+  Al73  1  0.67760253  0.42724411  0.01540513  1
  Al0+  Al74  1  0.07471329  0.67803484  0.98736924  1
  Al0+  Al75  1  0.92661101  0.32364578  0.31881437  1
  Al0+  Al76  1  0.32101074  0.57148914  0.01166183  1
  Al0+  Al77  1  0.17753555  0.93069899  0.01546693  1
  Al0+  Al78  1  0.82228927  0.07265588  0.34710417  1
  Al0+  Al79  1  0.07019936  0.18005177  0.98319786  1
  Al0+  Al80  1  0.31865573  0.07180507  0.68081624  1
  Al0+  Al81  1  0.82128703  0.56981108  0.34664950  1
  Al0+  Al82  1  0.57095784  0.68028779  0.31704833  1
  Al0+  Al83  1  0.32374005  0.57226103  0.35082288  1
  Al0+  Al84  1  0.43140378  0.31923030  0.98794273  1
  Al0+  Al85  1  0.67878248  0.43081160  0.67981520  1
  Al0+  Al86  1  0.42907766  0.31992398  0.65058282  1
  Al0+  Al87  1  0.18050200  0.42853409  0.34731985  1
  Al0+  Al88  1  0.92518072  0.32281929  0.98322611  1
  Al0+  Al89  1  0.56863340  0.68002085  0.98638275  1
  Al0+  Al90  1  0.57125765  0.68059083  0.65105457  1
  Al0+  Al91  1  0.67857092  0.92844993  0.34711371  1
  Al0+  Al92  1  0.07184845  0.17754852  0.31757135  1
  Al0+  Al93  1  0.32088803  0.07383971  0.01807373  1
  Al0+  Al94  1  0.68068857  0.92880772  0.68231690  1
  Al0+  Al95  1  0.92780608  0.82114658  0.98481139  1
  Si0+  Si96  1  0.17841810  0.42956626  0.68269300  1
  Si0+  Si97  1  0.17842859  0.92859033  0.34969559  1
  Si0+  Si98  1  0.93055453  0.81888002  0.32051996  1
  Si0+  Si99  1  0.42789776  0.82384789  0.65184610  1
  Si0+  Si100  1  0.17648711  0.92604688  0.68356790  1
  Si0+  Si101  1  0.42611460  0.82433115  0.31593297  1
  Si0+  Si102  1  0.67648060  0.42699418  0.34989527  1
  Si0+  Si103  1  0.32014696  0.57022701  0.68034208  1
  Si0+  Si104  1  0.82067094  0.07022985  0.01337998  1
  Si0+  Si105  1  0.57308862  0.17579377  0.65054815  1
  Si0+  Si106  1  0.43033327  0.31982508  0.31803537  1
  Si0+  Si107  1  0.92739827  0.32104870  0.65111458  1
  Si0+  Si108  1  0.07326043  0.67773078  0.64917972  1
  Si0+  Si109  1  0.07367931  0.67989989  0.32159609  1
  Si0+  Si110  1  0.67947259  0.92687885  0.01470855  1
  Si0+  Si111  1  0.82360140  0.07199129  0.68436480  1
  Si0+  Si112  1  0.93067631  0.82077496  0.64802224  1
  Si0+  Si113  1  0.32066453  0.07147814  0.34934669  1
  Si0+  Si114  1  0.57006238  0.17579556  0.32048155  1
  Si0+  Si115  1  0.06932151  0.18032319  0.65150491  1
  Si0+  Si116  1  0.17655477  0.42822110  0.01404455  1
  Si0+  Si117  1  0.57198806  0.17361686  0.98409227  1
  Si0+  Si118  1  0.42814183  0.82472974  0.98385604  1
  Si0+  Si119  1  0.82450058  0.57229919  0.68459777  1
  O2-  O120  1  0.24693161  0.00389173  0.06800578  1
  O2-  O121  1  0.24838521  0.00118618  0.39116538  1
  O2-  O122  1  0.24609836  -0.00574619  0.72560850  1
  O2-  O123  1  0.23991171  0.50269881  0.05687716  1
  O2-  O124  1  0.25229898  0.49948959  0.40057351  1
  O2-  O125  1  0.24848668  0.50123863  0.72448073  1
  O2-  O126  1  0.75026400  -0.00162155  0.05566514  1
  O2-  O127  1  0.74769525  0.00337475  0.39745609  1
  O2-  O128  1  0.75343786  0.00533382  0.72956801  1
  O2-  O129  1  0.75406430  0.49410198  0.06547881  1
  O2-  O130  1  0.74847303  0.49299091  0.39297249  1
  O2-  O131  1  0.75423482  0.50455980  0.72636489  1
  O2-  O132  1  -0.00249673  0.24899244  0.27119156  1
  O2-  O133  1  -0.00365897  0.24832521  0.60833882  1
  O2-  O134  1  -0.00121019  0.25234839  0.93215453  1
  O2-  O135  1  0.00268654  0.74966374  0.27848243  1
  O2-  O136  1  0.00174768  0.74875717  0.60689462  1
  O2-  O137  1  0.00173428  0.74931082  0.93636806  1
  O2-  O138  1  0.50282567  0.24971903  0.27717958  1
  O2-  O139  1  0.50531802  0.24525602  0.60499150  1
  O2-  O140  1  0.50436671  0.24321410  0.94022931  1
  O2-  O141  1  0.49412193  0.75461658  0.27276167  1
  O2-  O142  1  0.49741319  0.75755049  0.60524979  1
  O2-  O143  1  0.49434281  0.75471164  0.93824769  1
  O2-  O144  1  0.06755463  0.18058835  0.09639643  1
  O2-  O145  1  0.07228105  0.17854369  0.43233410  1
  O2-  O146  1  0.06899859  0.18145547  0.75604120  1
  O2-  O147  1  0.07476949  0.68008214  0.10135703  1
  O2-  O148  1  0.07226930  0.68360081  0.42748971  1
  O2-  O149  1  0.07619336  0.67716731  0.75349017  1
  O2-  O150  1  0.57134133  0.17194500  0.09003611  1
  O2-  O151  1  0.56658313  0.17369884  0.42568986  1
  O2-  O152  1  0.57287603  0.17468919  0.75573351  1
  O2-  O153  1  0.56968398  0.68192167  0.09931472  1
  O2-  O154  1  0.57125651  0.68224715  0.43062527  1
  O2-  O155  1  0.56922009  0.67945718  0.76399957  1
  O2-  O156  1  0.18150530  0.43015700  0.23411740  1
  O2-  O157  1  0.17734272  0.42988038  0.57777613  1
  O2-  O158  1  0.18038604  0.42791217  0.90759151  1
  O2-  O159  1  0.17785644  0.92529768  0.24554678  1
  O2-  O160  1  0.17557701  0.92646417  0.57737069  1
  O2-  O161  1  0.18090903  0.93153831  0.90142588  1
  O2-  O162  1  0.67288605  0.42743903  0.24500126  1
  O2-  O163  1  0.68104039  0.43160726  0.56640326  1
  O2-  O164  1  0.67526010  0.43147658  0.90150446  1
  O2-  O165  1  0.68139801  0.92901284  0.23336672  1
  O2-  O166  1  0.68290590  0.92964616  0.56941221  1
  O2-  O167  1  0.67927612  0.92826875  0.90932533  1
  O2-  O168  1  0.43237192  0.31929508  0.10139162  1
  O2-  O169  1  0.43030579  0.31804230  0.42355271  1
  O2-  O170  1  0.42775443  0.32072793  0.76313948  1
  O2-  O171  1  0.43144699  0.82692910  0.08939354  1
  O2-  O172  1  0.42529181  0.82682550  0.42182661  1
  O2-  O173  1  0.42595340  0.82082919  0.75699220  1
  O2-  O174  1  0.92627209  0.32111040  0.09647665  1
  O2-  O175  1  0.92864603  0.32218970  0.43358034  1
  O2-  O176  1  0.92912091  0.32120201  0.75568906  1
  O2-  O177  1  0.92649213  0.82130252  0.09887148  1
  O2-  O178  1  0.93263836  0.81816156  0.42628463  1
  O2-  O179  1  0.93072621  0.82250072  0.75245740  1
  O2-  O180  1  0.32327847  0.07136923  0.24509396  1
  O2-  O181  1  0.31601097  0.07095787  0.56683474  1
  O2-  O182  1  0.32051918  0.07228491  0.90427178  1
  O2-  O183  1  0.32252024  0.57109452  0.23747681  1
  O2-  O184  1  0.31760226  0.56932227  0.57547813  1
  O2-  O185  1  0.32265330  0.56792745  0.89772136  1
  O2-  O186  1  0.82176951  0.06894712  0.23342360  1
  O2-  O187  1  0.82470013  0.07032831  0.57892348  1
  O2-  O188  1  0.81813661  0.06965587  0.90785761  1
  O2-  O189  1  0.82174461  0.57374390  0.23447321  1
  O2-  O190  1  0.82657167  0.57079217  0.57858406  1
  O2-  O191  1  0.81648136  0.57140411  0.89977969  1
  O2-  O192  1  0.04565190  0.07755492  0.26716616  1
  O2-  O193  1  0.04601190  0.08604155  0.60551244  1
  O2-  O194  1  0.04091402  0.08290212  0.92787757  1
  O2-  O195  1  0.04880865  0.58685808  0.27804698  1
  O2-  O196  1  0.04462709  0.58572998  0.60146269  1
  O2-  O197  1  0.04941930  0.58086171  0.93020883  1
  O2-  O198  1  0.53961658  0.08505466  0.27212926  1
  O2-  O199  1  0.54463667  0.08219798  0.60503547  1
  O2-  O200  1  0.54499035  0.07986132  0.93836234  1
  O2-  O201  1  0.54049569  0.58316425  0.26410910  1
  O2-  O202  1  0.53796267  0.58634208  0.59438019  1
  O2-  O203  1  0.53483459  0.58438200  0.93281806  1
  O2-  O204  1  0.17051050  0.20599728  0.26561247  1
  O2-  O205  1  0.15989850  0.21079116  0.60323412  1
  O2-  O206  1  0.16878005  0.20879068  0.93077603  1
  O2-  O207  1  0.16663663  0.70819027  0.27760655  1
  O2-  O208  1  0.16429578  0.70620181  0.59930813  1
  O2-  O209  1  0.17274663  0.70965383  0.93338986  1
  O2-  O210  1  0.66324126  0.19913834  0.27428951  1
  O2-  O211  1  0.66797866  0.19989956  0.60543576  1
  O2-  O212  1  0.66547694  0.19439562  0.93634523  1
  O2-  O213  1  0.66761691  0.71353809  0.26473301  1
  O2-  O214  1  0.66972431  0.71051759  0.59948300  1
  O2-  O215  1  0.66324708  0.71119033  0.92938538  1
  O2-  O216  1  0.08044903  0.44691753  0.05583116  1
  O2-  O217  1  0.08427374  0.45826971  0.40510838  1
  O2-  O218  1  0.08609062  0.45674184  0.72956772  1
  O2-  O219  1  0.07678441  0.95631544  0.06476205  1
  O2-  O220  1  0.08708829  0.95488777  0.39950675  1
  O2-  O221  1  0.08255519  0.95198920  0.72807142  1
  O2-  O222  1  0.58187252  0.46107926  0.06947202  1
  O2-  O223  1  0.58466471  0.45718957  0.39743207  1
  O2-  O224  1  0.58061394  0.46270635  0.73001346  1
  O2-  O225  1  0.58835006  0.95319396  0.06362029  1
  O2-  O226  1  0.57907245  0.95412885  0.40024718  1
  O2-  O227  1  0.58416625  0.95629782  0.73792395  1
  O2-  O228  1  0.20843907  0.33749606  0.06062461  1
  O2-  O229  1  0.21034715  0.33032385  0.40189614  1
  O2-  O230  1  0.20680749  0.33809348  0.72916954  1
  O2-  O231  1  0.20737958  0.83385638  0.07089929  1
  O2-  O232  1  0.20760800  0.83897389  0.40174089  1
  O2-  O233  1  0.20048200  0.83121012  0.72758923  1
  O2-  O234  1  0.69652395  0.32463865  0.06360857  1
  O2-  O235  1  0.69651946  0.33222956  0.39650935  1
  O2-  O236  1  0.70544321  0.33268410  0.73318292  1
  O2-  O237  1  0.70904743  0.83540701  0.06011267  1
  O2-  O238  1  0.71274821  0.83313133  0.40218166  1
  O2-  O239  1  0.71591448  0.83302502  0.73526349  1
  O2-  O240  1  0.45702615  0.41217607  0.27217716  1
  O2-  O241  1  0.46024857  0.41494495  0.59345538  1
  O2-  O242  1  0.46350633  0.41420002  0.93147844  1
  O2-  O243  1  0.45078708  0.91801403  0.26923460  1
  O2-  O244  1  0.45194999  0.91934843  0.60839388  1
  O2-  O245  1  0.45603711  0.91804659  0.93768034  1
  O2-  O246  1  0.95921139  0.42207757  0.26876790  1
  O2-  O247  1  0.95721142  0.41323438  0.60469983  1
  O2-  O248  1  0.95128092  0.42026677  0.92706112  1
  O2-  O249  1  0.95725142  0.91130869  0.27474566  1
  O2-  O250  1  0.95941695  0.91231441  0.59907705  1
  O2-  O251  1  0.95488817  0.91776949  0.92743257  1
  O2-  O252  1  0.33934805  0.29005078  0.27163805  1
  O2-  O253  1  0.33244654  0.28746317  0.59594666  1
  O2-  O254  1  0.33526687  0.29145092  0.93127981  1
  O2-  O255  1  0.33145775  0.79947569  0.27159558  1
  O2-  O256  1  0.33379672  0.79914202  0.60421916  1
  O2-  O257  1  0.33341380  0.80333670  0.93959524  1
  O2-  O258  1  0.82658247  0.29920523  0.26761531  1
  O2-  O259  1  0.83454027  0.29539119  0.60459501  1
  O2-  O260  1  0.82730392  0.28940856  0.93053853  1
  O2-  O261  1  0.83897943  0.79058527  0.27468563  1
  O2-  O262  1  0.83975944  0.79250604  0.59927040  1
  O2-  O263  1  0.83201651  0.78987720  0.92764452  1
  O2-  O264  1  0.41880839  0.04336822  0.07198902  1
  O2-  O265  1  0.41089033  0.04208292  0.39972976  1
  O2-  O266  1  0.41542107  0.04625439  0.73609185  1
  O2-  O267  1  0.41337370  0.53296986  0.06753752  1
  O2-  O268  1  0.42162308  0.54089656  0.40304004  1
  O2-  O269  1  0.41243785  0.54085558  0.72445114  1
  O2-  O270  1  0.91256831  0.04251680  0.05870668  1
  O2-  O271  1  0.91919364  0.04111821  0.40254158  1
  O2-  O272  1  0.91671090  0.04227626  0.72974237  1
  O2-  O273  1  0.92257323  0.54822157  0.06234146  1
  O2-  O274  1  0.91758034  0.54369596  0.40457549  1
  O2-  O275  1  0.91871564  0.54629788  0.72943268  1
  O2-  O276  1  0.29411750  0.17331223  0.06884098  1
  O2-  O277  1  0.29315732  0.16285481  0.39774129  1
  O2-  O278  1  0.28434762  0.16784563  0.73331243  1
  O2-  O279  1  0.29932416  0.66960255  0.06592008  1
  O2-  O280  1  0.29673446  0.67080379  0.40535874  1
  O2-  O281  1  0.29385299  0.66345635  0.72584653  1
  O2-  O282  1  0.79211666  0.16079869  0.06196277  1
  O2-  O283  1  0.79481653  0.17126733  0.40065299  1
  O2-  O284  1  0.80130466  0.16641228  0.72964898  1
  O2-  O285  1  0.78855961  0.66833479  0.06502726  1
  O2-  O286  1  0.78790204  0.66437444  0.40414187  1
  O2-  O287  1  0.80186322  0.66748451  0.72699086  1
