# generated using pymatgen
data_Ca2Al2SiO7
_symmetry_space_group_name_H-M   'P 1'
_cell_length_a   15.45725338
_cell_length_b   15.45657521
_cell_length_c   15.28286787
_cell_angle_alpha   90.00388220
_cell_angle_beta   89.98854276
_cell_angle_gamma   89.99719665
_symmetry_Int_Tables_number   1
_chemical_formula_structural   Ca2Al2SiO7
_chemical_formula_sum   'Ca48 Al48 Si24 O168'
_cell_volume   3651.32462145
_cell_formula_units_Z   24
loop_
 _symmetry_equiv_pos_site_id
 _symmetry_equiv_pos_as_xyz
  1  'x, y, z'
loop_
 _atom_type_symbol
 _atom_type_oxidation_number
  Ca2+  2.0
  Al0+  0.0
  Si0+  0.0
  O2-  -2.0
loop_
 _atom_site_type_symbol
 _atom_site_label
 _atom_site_symmetry_multiplicity
 _atom_site_fract_x
 _atom_site_fract_y
 _atom_site_fract_z
 _atom_site_occupancy
  Ca2+  Ca0  1  0.16010207  0.07289919  0.17248457  1
  Ca2+  Ca1  1  0.16279284  0.07974976  0.50719883  1
  Ca2+  Ca2  1  0.16857088  0.07491641  0.82958295  1
  Ca2+  Ca3  1  0.17915655  0.57805234  0.17406672  1
  Ca2+  Ca4  1  0.16758086  0.56943790  0.50124122  1
  Ca2+  Ca5  1  0.16828945  0.57410279  0.83704439  1
  Ca2+  Ca6  1  0.67650954  0.09171054  0.16829756  1
  Ca2+  Ca7  1  0.67591910  0.08557992  0.50130934  1
  Ca2+  Ca8  1  0.67247946  0.08644928  0.84212437  1
  Ca2+  Ca9  1  0.67309039  0.58431271  0.16843769  1
  Ca2+  Ca10  1  0.67156283  0.58472225  0.50873773  1
  Ca2+  Ca11  1  0.67466307  0.58906754  0.83168024  1
  Ca2+  Ca12  1  0.08422367  0.33109994  0.17081559  1
  Ca2+  Ca13  1  0.08400270  0.32575153  0.49384110  1
  Ca2+  Ca14  1  0.08039977  0.32681077  0.81904111  1
  Ca2+  Ca15  1  0.08274681  0.83950763  0.16620611  1
  Ca2+  Ca16  1  0.07663398  0.84270781  0.49595579  1
  Ca2+  Ca17  1  0.08098927  0.83531112  0.82705517  1
  Ca2+  Ca18  1  0.57864274  0.32923914  0.16444967  1
  Ca2+  Ca19  1  0.56879131  0.33774606  0.49704464  1
  Ca2+  Ca20  1  0.57772246  0.32820701  0.82970771  1
  Ca2+  Ca21  1  0.57226678  0.83246760  0.15934423  1
  Ca2+  Ca22  1  0.57795183  0.82830373  0.50260891  1
  Ca2+  Ca23  1  0.56888669  0.82942156  0.82411536  1
  Ca2+  Ca24  1  0.33351415  0.42609485  0.17780812  1
  Ca2+  Ca25  1  0.32568123  0.41069200  0.50538767  1
  Ca2+  Ca26  1  0.33022876  0.41723357  0.83287414  1
  Ca2+  Ca27  1  0.32210614  0.91257332  0.17093831  1
  Ca2+  Ca28  1  0.32078468  0.92337074  0.51108037  1
  Ca2+  Ca29  1  0.32562222  0.91087116  0.83649062  1
  Ca2+  Ca30  1  0.83528070  0.41948306  0.17171094  1
  Ca2+  Ca31  1  0.84032563  0.41974794  0.50833441  1
  Ca2+  Ca32  1  0.84076542  0.42970160  0.83529334  1
  Ca2+  Ca33  1  0.83658904  0.92975357  0.17447800  1
  Ca2+  Ca34  1  0.84214643  0.92041344  0.50276659  1
  Ca2+  Ca35  1  0.83314073  0.92168341  0.83743503  1
  Ca2+  Ca36  1  0.41945716  0.17419155  0.16173948  1
  Ca2+  Ca37  1  0.40492841  0.17692806  0.49995304  1
  Ca2+  Ca38  1  0.42070590  0.16555246  0.82430596  1
  Ca2+  Ca39  1  0.40964829  0.66778363  0.15930440  1
  Ca2+  Ca40  1  0.41650407  0.66614556  0.49861583  1
  Ca2+  Ca41  1  0.41494760  0.67458468  0.82799146  1
  Ca2+  Ca42  1  0.91843609  0.16542226  0.16823418  1
  Ca2+  Ca43  1  0.92892383  0.17319588  0.49224698  1
  Ca2+  Ca44  1  0.92227226  0.17123602  0.82475636  1
  Ca2+  Ca45  1  0.91828518  0.67192484  0.16343821  1
  Ca2+  Ca46  1  0.91604673  0.67677451  0.49899211  1
  Ca2+  Ca47  1  0.91277788  0.67143403  0.82311993  1
  Al0+  Al48  1  -0.00065660  0.00076941  0.00568818  1
  Al0+  Al49  1  -0.00186634  0.00123504  0.33318241  1
  Al0+  Al50  1  0.00026431  0.00048513  0.66555256  1
  Al0+  Al51  1  -0.00006936  0.50085442  0.00599629  1
  Al0+  Al52  1  0.00182959  0.50156790  0.33234288  1
  Al0+  Al53  1  -0.00004194  0.50214361  0.67321720  1
  Al0+  Al54  1  0.49862545  0.00046234  -0.00813086  1
  Al0+  Al55  1  0.50171875  -0.00210501  0.33262888  1
  Al0+  Al56  1  0.50156144  -0.00109480  0.66363444  1
  Al0+  Al57  1  0.50136148  0.50010363  0.00197102  1
  Al0+  Al58  1  0.50311662  0.50154725  0.33117538  1
  Al0+  Al59  1  0.50208945  0.49864481  0.66187661  1
  Al0+  Al60  1  0.24789467  0.24797664  -0.00112686  1
  Al0+  Al61  1  0.25051292  0.24966608  0.32284693  1
  Al0+  Al62  1  0.25083681  0.24753643  0.67019398  1
  Al0+  Al63  1  0.24711979  0.74792880  0.00327802  1
  Al0+  Al64  1  0.24959891  0.75005945  0.34304292  1
  Al0+  Al65  1  0.24878961  0.74877938  0.66514706  1
  Al0+  Al66  1  0.74984659  0.25145049  -0.00087220  1
  Al0+  Al67  1  0.75069040  0.25098239  0.33636447  1
  Al0+  Al68  1  0.74901147  0.25172290  0.66545703  1
  Al0+  Al69  1  0.74913727  0.75101136  0.00528745  1
  Al0+  Al70  1  0.74905358  0.75099548  0.32747186  1
  Al0+  Al71  1  0.74998297  0.75065762  0.66301312  1
  Al0+  Al72  1  0.93063883  0.82051092  0.65523534  1
  Al0+  Al73  1  0.57022637  0.67987334  0.65206385  1
  Al0+  Al74  1  0.17912595  0.93126702  0.34816523  1
  Al0+  Al75  1  0.32419267  0.57101015  0.35104903  1
  Al0+  Al76  1  0.81914236  0.07109337  0.34955622  1
  Al0+  Al77  1  0.17971101  0.42824276  0.68057050  1
  Al0+  Al78  1  0.42943334  0.32103950  0.31843373  1
  Al0+  Al79  1  0.42607678  0.81843574  0.98723658  1
  Al0+  Al80  1  0.92945619  0.82050833  0.31751271  1
  Al0+  Al81  1  0.32275723  0.07022845  0.68163862  1
  Al0+  Al82  1  0.92811689  0.32370222  0.31738759  1
  Al0+  Al83  1  0.43030386  0.31836303  0.65488815  1
  Al0+  Al84  1  0.81932019  0.07131852  0.01313380  1
  Al0+  Al85  1  0.07041062  0.17975888  0.65281908  1
  Al0+  Al86  1  0.42520294  0.82190798  0.64927461  1
  Al0+  Al87  1  0.31995300  0.56811107  0.01085632  1
  Al0+  Al88  1  0.92837481  0.32415699  0.65431431  1
  Al0+  Al89  1  0.07114944  0.17869395  0.31532113  1
  Al0+  Al90  1  0.18058303  0.92995226  0.01466182  1
  Al0+  Al91  1  0.57082787  0.18086083  0.98646998  1
  Al0+  Al92  1  0.81981389  0.57108407  0.67847176  1
  Al0+  Al93  1  0.17717371  0.92738838  0.68268237  1
  Al0+  Al94  1  0.18033547  0.42706772  0.34803198  1
  Al0+  Al95  1  0.82148932  0.57308040  0.01580589  1
  Si0+  Si96  1  0.42812357  0.81985055  0.31889562  1
  Si0+  Si97  1  0.68003996  0.92857391  0.68137710  1
  Si0+  Si98  1  0.68055795  0.42982578  0.34874346  1
  Si0+  Si99  1  0.81996701  0.07181058  0.68132774  1
  Si0+  Si100  1  0.17721202  0.42477108  0.01739310  1
  Si0+  Si101  1  0.82110000  0.57273327  0.34789082  1
  Si0+  Si102  1  0.67517396  0.92872512  0.01566412  1
  Si0+  Si103  1  0.57399442  0.67741766  0.98344322  1
  Si0+  Si104  1  0.93017175  0.32237693  0.98505946  1
  Si0+  Si105  1  0.32453919  0.57036478  0.68280429  1
  Si0+  Si106  1  0.06883104  0.67840311  0.98586448  1
  Si0+  Si107  1  0.67931086  0.42859039  0.01743643  1
  Si0+  Si108  1  0.67672893  0.92578493  0.35082438  1
  Si0+  Si109  1  0.07296205  0.67584071  0.65089548  1
  Si0+  Si110  1  0.92900516  0.82155629  0.98652966  1
  Si0+  Si111  1  0.32573356  0.07145092  0.34611016  1
  Si0+  Si112  1  0.42693282  0.32331821  0.98331784  1
  Si0+  Si113  1  0.67605110  0.42722778  0.68410919  1
  Si0+  Si114  1  0.57302817  0.17687717  0.31799672  1
  Si0+  Si115  1  0.57151689  0.67933602  0.31511492  1
  Si0+  Si116  1  0.06966329  0.17661749  0.98336555  1
  Si0+  Si117  1  0.32422306  0.07284256  0.01676640  1
  Si0+  Si118  1  0.07339062  0.67880408  0.31622283  1
  Si0+  Si119  1  0.57459991  0.17572699  0.64838755  1
  O2-  O120  1  0.25639315  0.00396685  0.06150404  1
  O2-  O121  1  0.25484316  0.00624313  0.39113342  1
  O2-  O122  1  0.25465501  -0.00575459  0.73197592  1
  O2-  O123  1  0.25177111  0.48819467  0.05895577  1
  O2-  O124  1  0.25538143  0.49535651  0.39917324  1
  O2-  O125  1  0.25449322  0.50339179  0.72763702  1
  O2-  O126  1  0.74297084  -0.00216787  0.06036518  1
  O2-  O127  1  0.74508098  -0.00540365  0.39509541  1
  O2-  O128  1  0.74713287  0.00301208  0.72459210  1
  O2-  O129  1  0.74658512  0.49858111  0.06233962  1
  O2-  O130  1  0.75500633  0.49754939  0.39015731  1
  O2-  O131  1  0.74809376  0.49356649  0.72660274  1
  O2-  O132  1  -0.00041382  0.25237092  0.26546341  1
  O2-  O133  1  0.00024323  0.25379550  0.60330679  1
  O2-  O134  1  0.00286414  0.25296383  0.94304329  1
  O2-  O135  1  0.00515905  0.74736603  0.26988406  1
  O2-  O136  1  0.00844441  0.74932081  0.60821900  1
  O2-  O137  1  -0.00444082  0.74729314  0.94331886  1
  O2-  O138  1  0.50203158  0.24296385  0.27338594  1
  O2-  O139  1  0.50345520  0.24240748  0.60620140  1
  O2-  O140  1  0.49255464  0.25157593  0.93954116  1
  O2-  O141  1  0.49694825  0.74733039  0.27447032  1
  O2-  O142  1  0.49475037  0.74674767  0.59988605  1
  O2-  O143  1  0.50341698  0.74496148  0.94160947  1
  O2-  O144  1  0.06856011  0.17509738  0.08806956  1
  O2-  O145  1  0.07036507  0.17810212  0.42844881  1
  O2-  O146  1  0.06653924  0.17867303  0.76739278  1
  O2-  O147  1  0.06830655  0.67866892  0.09087187  1
  O2-  O148  1  0.07011240  0.67717589  0.42153871  1
  O2-  O149  1  0.07040722  0.67407531  0.75713087  1
  O2-  O150  1  0.57122729  0.18459872  0.09967172  1
  O2-  O151  1  0.57405195  0.17774437  0.42325083  1
  O2-  O152  1  0.57737227  0.17759284  0.75426433  1
  O2-  O153  1  0.57513265  0.67873874  0.08936156  1
  O2-  O154  1  0.57566658  0.68026674  0.41961372  1
  O2-  O155  1  0.57149804  0.68327763  0.76597350  1
  O2-  O156  1  0.18194984  0.43115728  0.23384284  1
  O2-  O157  1  0.17947520  0.42815313  0.56805451  1
  O2-  O158  1  0.17427170  0.42608300  0.91178855  1
  O2-  O159  1  0.18169277  0.92980114  0.23445820  1
  O2-  O160  1  0.17464676  0.93215966  0.56952401  1
  O2-  O161  1  0.17786545  0.93011670  0.90217801  1
  O2-  O162  1  0.67943022  0.43212857  0.24326568  1
  O2-  O163  1  0.67421011  0.42796090  0.57850376  1
  O2-  O164  1  0.67934246  0.42766924  0.91219724  1
  O2-  O165  1  0.67453985  0.92582019  0.24510097  1
  O2-  O166  1  0.68160460  0.92850919  0.57628154  1
  O2-  O167  1  0.67840079  0.92724811  0.91001496  1
  O2-  O168  1  0.42976681  0.32407121  0.08892426  1
  O2-  O169  1  0.43059441  0.32098722  0.43139151  1
  O2-  O170  1  0.43369565  0.31906146  0.76831731  1
  O2-  O171  1  0.42714698  0.81636915  0.10100514  1
  O2-  O172  1  0.43168515  0.82091855  0.42319988  1
  O2-  O173  1  0.42706241  0.81982287  0.76339807  1
  O2-  O174  1  0.92984432  0.32271815  0.08995122  1
  O2-  O175  1  0.92748823  0.32314805  0.43038776  1
  O2-  O176  1  0.92900882  0.32157496  0.76889595  1
  O2-  O177  1  0.93108063  0.82123875  0.09152487  1
  O2-  O178  1  0.92806512  0.81800558  0.43049833  1
  O2-  O179  1  0.92834197  0.81973318  0.76913855  1
  O2-  O180  1  0.33020085  0.06626097  0.24031362  1
  O2-  O181  1  0.32024890  0.07144268  0.56780787  1
  O2-  O182  1  0.32356299  0.07399591  0.91166945  1
  O2-  O183  1  0.32288038  0.57140409  0.23670194  1
  O2-  O184  1  0.32490387  0.56732043  0.57759347  1
  O2-  O185  1  0.31686013  0.56801171  0.89786641  1
  O2-  O186  1  0.81610811  0.07080087  0.23601039  1
  O2-  O187  1  0.81855165  0.07072811  0.57651345  1
  O2-  O188  1  0.81968253  0.06925522  0.89965219  1
  O2-  O189  1  0.81715994  0.57354749  0.24245246  1
  O2-  O190  1  0.81744935  0.57265731  0.56526249  1
  O2-  O191  1  0.82125080  0.57377063  0.90294888  1
  O2-  O192  1  0.03608948  0.08218035  0.26192803  1
  O2-  O193  1  0.03834612  0.08335781  0.59945976  1
  O2-  O194  1  0.03582551  0.08663659  0.93642913  1
  O2-  O195  1  0.04762383  0.58637323  0.26757105  1
  O2-  O196  1  0.04065579  0.58521385  0.60363449  1
  O2-  O197  1  0.04279526  0.58513332  0.93951965  1
  O2-  O198  1  0.55218435  0.08157548  0.27196321  1
  O2-  O199  1  0.55512537  0.08108454  0.60280147  1
  O2-  O200  1  0.54623782  0.08355513  0.93060969  1
  O2-  O201  1  0.54840086  0.58709573  0.26622122  1
  O2-  O202  1  0.54883511  0.58014093  0.59890988  1
  O2-  O203  1  0.55215841  0.58214765  0.93933921  1
  O2-  O204  1  0.16910152  0.20294503  0.25829101  1
  O2-  O205  1  0.16984230  0.20481339  0.60289203  1
  O2-  O206  1  0.16375244  0.19931469  0.93734585  1
  O2-  O207  1  0.16795161  0.70617968  0.27255671  1
  O2-  O208  1  0.16779819  0.69349586  0.60523231  1
  O2-  O209  1  0.15906387  0.70789203  0.93750263  1
  O2-  O210  1  0.66482925  0.20772705  0.27119095  1
  O2-  O211  1  0.66679279  0.20447922  0.60110273  1
  O2-  O212  1  0.66640485  0.21470753  0.93064196  1
  O2-  O213  1  0.66090491  0.71068646  0.26402170  1
  O2-  O214  1  0.66560299  0.71423174  0.59610208  1
  O2-  O215  1  0.66774537  0.70528712  0.93829989  1
  O2-  O216  1  0.08651632  0.45622446  0.06560793  1
  O2-  O217  1  0.08209771  0.45940637  0.39981518  1
  O2-  O218  1  0.08492759  0.46120842  0.73800676  1
  O2-  O219  1  0.08476526  0.96271622  0.06947015  1
  O2-  O220  1  0.08194731  0.96173289  0.39930575  1
  O2-  O221  1  0.07986103  0.96078877  0.73692300  1
  O2-  O222  1  0.58567921  0.45308382  0.06500784  1
  O2-  O223  1  0.59082428  0.46274000  0.39673588  1
  O2-  O224  1  0.58451683  0.45631596  0.73287653  1
  O2-  O225  1  0.58047425  0.95365058  0.05985192  1
  O2-  O226  1  0.58334438  0.95092028  0.39818830  1
  O2-  O227  1  0.58694360  0.95219901  0.72821892  1
  O2-  O228  1  0.19644925  0.32865118  0.06099244  1
  O2-  O229  1  0.20688586  0.32587833  0.39517350  1
  O2-  O230  1  0.21129507  0.33318859  0.73691681  1
  O2-  O231  1  0.20926548  0.83302959  0.06929378  1
  O2-  O232  1  0.20703065  0.83522057  0.40342683  1
  O2-  O233  1  0.19983227  0.82567377  0.73288347  1
  O2-  O234  1  0.70740964  0.33656121  0.06520203  1
  O2-  O235  1  0.70175382  0.33722352  0.39660970  1
  O2-  O236  1  0.69819423  0.33239731  0.73013024  1
  O2-  O237  1  0.69951223  0.83575292  0.06404949  1
  O2-  O238  1  0.70360936  0.83184260  0.39520023  1
  O2-  O239  1  0.71206905  0.83903876  0.73005999  1
  O2-  O240  1  0.46668486  0.41645365  0.26466930  1
  O2-  O241  1  0.46238695  0.41323064  0.59869039  1
  O2-  O242  1  0.45646996  0.41597426  0.93722546  1
  O2-  O243  1  0.45835983  0.91077013  0.26960689  1
  O2-  O244  1  0.45939942  0.91849423  0.59607602  1
  O2-  O245  1  0.45385916  0.91521515  0.93236918  1
  O2-  O246  1  0.95491413  0.42338310  0.26453900  1
  O2-  O247  1  0.95320910  0.42469111  0.60576238  1
  O2-  O248  1  0.95721687  0.41602449  0.94017957  1
  O2-  O249  1  0.95925020  0.91717949  0.26420673  1
  O2-  O250  1  0.95840070  0.91701157  0.60052779  1
  O2-  O251  1  0.95916107  0.91295513  0.93996142  1
  O2-  O252  1  0.33513231  0.29400185  0.25893030  1
  O2-  O253  1  0.33413005  0.28736531  0.60151539  1
  O2-  O254  1  0.33102067  0.30120849  0.94031625  1
  O2-  O255  1  0.33483104  0.79279310  0.27436871  1
  O2-  O256  1  0.32580041  0.79682331  0.59759219  1
  O2-  O257  1  0.33045005  0.78372682  0.93399754  1
  O2-  O258  1  0.82818299  0.29511828  0.26607224  1
  O2-  O259  1  0.82838620  0.29928623  0.60316773  1
  O2-  O260  1  0.83841066  0.29483354  0.93820624  1
  O2-  O261  1  0.83291750  0.78957452  0.26215066  1
  O2-  O262  1  0.83631803  0.78759062  0.59882317  1
  O2-  O263  1  0.83440846  0.79733662  0.94241294  1
  O2-  O264  1  0.41931806  0.04951507  0.06079974  1
  O2-  O265  1  0.41871384  0.04559375  0.39405743  1
  O2-  O266  1  0.42488226  0.04715572  0.73083410  1
  O2-  O267  1  0.41921938  0.54511713  0.06474701  1
  O2-  O268  1  0.42592759  0.54765805  0.39867995  1
  O2-  O269  1  0.41822954  0.54333427  0.72833381  1
  O2-  O270  1  0.91340501  0.03810245  0.06963638  1
  O2-  O271  1  0.91456877  0.03839433  0.40267201  1
  O2-  O272  1  0.91035236  0.04159895  0.72923196  1
  O2-  O273  1  0.91726053  0.54214174  0.07142573  1
  O2-  O274  1  0.91500917  0.55156040  0.39249582  1
  O2-  O275  1  0.91531563  0.54491924  0.73764424  1
  O2-  O276  1  0.29819307  0.16721960  0.06240882  1
  O2-  O277  1  0.30251149  0.16759073  0.38588645  1
  O2-  O278  1  0.29325083  0.16632186  0.73880219  1
  O2-  O279  1  0.28349615  0.66126590  0.06805072  1
  O2-  O280  1  0.29376377  0.66739863  0.40551918  1
  O2-  O281  1  0.30027458  0.66520255  0.72654063  1
  O2-  O282  1  0.78827778  0.16830490  0.06643747  1
  O2-  O283  1  0.78728047  0.16711957  0.40412785  1
  O2-  O284  1  0.79298509  0.16453852  0.72851156  1
  O2-  O285  1  0.79072632  0.66921560  0.07182050  1
  O2-  O286  1  0.78698796  0.66362615  0.39319939  1
  O2-  O287  1  0.78457332  0.66683776  0.73312452  1
