# generated using pymatgen
data_Ca2Al2SiO7
_symmetry_space_group_name_H-M   'P 1'
_cell_length_a   15.45431470
_cell_length_b   15.45412122
_cell_length_c   15.28103040
_cell_angle_alpha   89.99938299
_cell_angle_beta   90.00035985
_cell_angle_gamma   89.98875947
_symmetry_Int_Tables_number   1
_chemical_formula_structural   Ca2Al2SiO7
_chemical_formula_sum   'Ca48 Al48 Si24 O168'
_cell_volume   3649.61201169
_cell_formula_units_Z   24
loop_
 _symmetry_equiv_pos_site_id
 _symmetry_equiv_pos_as_xyz
  1  'x, y, z'
loop_
 _atom_type_symbol
 _atom_type_oxidation_number
  Ca2+  2.0
  Al0+  0.0
  Si0+  0.0
  O2-  -2.0
loop_
 _atom_site_type_symbol
 _atom_site_label
 _atom_site_symmetry_multiplicity
 _atom_site_fract_x
 _atom_site_fract_y
 _atom_site_fract_z
 _atom_site_occupancy
  Ca2+  Ca0  1  0.16416659  0.07599237  0.17766714  1
  Ca2+  Ca1  1  0.16619713  0.07653490  0.50749160  1
  Ca2+  Ca2  1  0.16962766  0.08509463  0.82848355  1
  Ca2+  Ca3  1  0.17264838  0.57767385  0.18101881  1
  Ca2+  Ca4  1  0.17823355  0.58285151  0.49962379  1
  Ca2+  Ca5  1  0.17586787  0.58374872  0.83449170  1
  Ca2+  Ca6  1  0.66970141  0.08333732  0.16867777  1
  Ca2+  Ca7  1  0.67023157  0.07988074  0.50636917  1
  Ca2+  Ca8  1  0.65480250  0.07446164  0.83834708  1
  Ca2+  Ca9  1  0.66676118  0.58333968  0.17218016  1
  Ca2+  Ca10  1  0.66779761  0.58693844  0.50772899  1
  Ca2+  Ca11  1  0.67103976  0.58842935  0.83178892  1
  Ca2+  Ca12  1  0.07660106  0.33356139  0.16744415  1
  Ca2+  Ca13  1  0.08328985  0.32217528  0.48967560  1
  Ca2+  Ca14  1  0.07864571  0.32813451  0.82842954  1
  Ca2+  Ca15  1  0.08351940  0.82966968  0.16707524  1
  Ca2+  Ca16  1  0.09095423  0.83034003  0.49209121  1
  Ca2+  Ca17  1  0.07418157  0.84063496  0.83016267  1
  Ca2+  Ca18  1  0.57009059  0.32886862  0.16170435  1
  Ca2+  Ca19  1  0.57716054  0.32805290  0.49499456  1
  Ca2+  Ca20  1  0.58057506  0.31989692  0.83031036  1
  Ca2+  Ca21  1  0.57331034  0.83353846  0.16376185  1
  Ca2+  Ca22  1  0.57844877  0.82430350  0.49563009  1
  Ca2+  Ca23  1  0.58018112  0.83695776  0.82653983  1
  Ca2+  Ca24  1  0.33202060  0.41959403  0.17993785  1
  Ca2+  Ca25  1  0.33460446  0.42307398  0.49973795  1
  Ca2+  Ca26  1  0.33989153  0.42157543  0.83562150  1
  Ca2+  Ca27  1  0.33234800  0.91427930  0.17406999  1
  Ca2+  Ca28  1  0.32236908  0.91554230  0.50469787  1
  Ca2+  Ca29  1  0.33352058  0.92162206  0.83485078  1
  Ca2+  Ca30  1  0.83396060  0.40935061  0.17246882  1
  Ca2+  Ca31  1  0.83656963  0.42292599  0.50268997  1
  Ca2+  Ca32  1  0.83601990  0.42121374  0.83694210  1
  Ca2+  Ca33  1  0.82918048  0.91988418  0.17071350  1
  Ca2+  Ca34  1  0.82855376  0.92385501  0.50430500  1
  Ca2+  Ca35  1  0.81823826  0.91362158  0.84112188  1
  Ca2+  Ca36  1  0.41578812  0.17960881  0.15959065  1
  Ca2+  Ca37  1  0.41769929  0.16583547  0.49820101  1
  Ca2+  Ca38  1  0.42424004  0.16485128  0.82817451  1
  Ca2+  Ca39  1  0.41411522  0.67634794  0.16908210  1
  Ca2+  Ca40  1  0.42230902  0.66557596  0.49042107  1
  Ca2+  Ca41  1  0.42195685  0.67290313  0.82619568  1
  Ca2+  Ca42  1  0.91804956  0.17160440  0.16922037  1
  Ca2+  Ca43  1  0.92667055  0.16688060  0.49005889  1
  Ca2+  Ca44  1  0.92090770  0.17232743  0.82776641  1
  Ca2+  Ca45  1  0.92701342  0.67075485  0.16359952  1
  Ca2+  Ca46  1  0.92231293  0.66760447  0.49479664  1
  Ca2+  Ca47  1  0.91340140  0.67195557  0.82952313  1
  Al0+  Al48  1  -0.00033377  -0.00142113  -0.00384531  1
  Al0+  Al49  1  -0.00139047  0.00007581  0.33819807  1
  Al0+  Al50  1  -0.00255605  0.00171789  0.66711957  1
  Al0+  Al51  1  0.00234671  0.49945144  -0.00428573  1
  Al0+  Al52  1  0.00022422  0.50001783  0.33008775  1
  Al0+  Al53  1  -0.00030118  0.50272690  0.67235415  1
  Al0+  Al54  1  0.49832034  -0.00183754  0.00075722  1
  Al0+  Al55  1  0.50131222  -0.00169414  0.33080908  1
  Al0+  Al56  1  0.49827089  0.00043208  0.66646733  1
  Al0+  Al57  1  0.50195611  0.50090792  -0.00189579  1
  Al0+  Al58  1  0.50303305  0.49851922  0.32885574  1
  Al0+  Al59  1  0.50121576  0.50045368  0.66946713  1
  Al0+  Al60  1  0.24921990  0.25163124  -0.00295641  1
  Al0+  Al61  1  0.24975519  0.24880261  0.32859389  1
  Al0+  Al62  1  0.24807986  0.24997247  0.66700618  1
  Al0+  Al63  1  0.25188180  0.74931070  -0.00402220  1
  Al0+  Al64  1  0.25093095  0.74947894  0.33280034  1
  Al0+  Al65  1  0.24693236  0.74952692  0.67783530  1
  Al0+  Al66  1  0.75172833  0.25044523  -0.00822685  1
  Al0+  Al67  1  0.75100555  0.24975135  0.33684435  1
  Al0+  Al68  1  0.74852552  0.25192143  0.66193046  1
  Al0+  Al69  1  0.75191309  0.75019226  0.00515232  1
  Al0+  Al70  1  0.74913408  0.74941549  0.32982536  1
  Al0+  Al71  1  0.74977164  0.75052441  0.67028697  1
  Al0+  Al72  1  0.68073709  0.93111610  0.67840048  1
  Al0+  Al73  1  0.82093861  0.57033791  0.68025363  1
  Al0+  Al74  1  0.32017805  0.07190938  0.68160516  1
  Al0+  Al75  1  0.07150598  0.17617520  0.31812273  1
  Al0+  Al76  1  0.93029929  0.32107379  0.98441644  1
  Al0+  Al77  1  0.17576554  0.92809115  0.68446351  1
  Al0+  Al78  1  0.57061698  0.68064602  0.65459992  1
  Al0+  Al79  1  0.42957406  0.31897669  0.32179998  1
  Al0+  Al80  1  0.07114352  0.67972711  0.32227266  1
  Al0+  Al81  1  0.42864894  0.82108218  0.32042626  1
  Al0+  Al82  1  0.56960478  0.17932013  0.98660309  1
  Al0+  Al83  1  0.42907509  0.81967802  0.98415798  1
  Al0+  Al84  1  0.81884545  0.07099590  0.34731072  1
  Al0+  Al85  1  0.32274834  0.56959976  0.34701584  1
  Al0+  Al86  1  0.57314141  0.67749095  0.31722165  1
  Al0+  Al87  1  0.06951887  0.17990023  0.65190765  1
  Al0+  Al88  1  0.67754866  0.92890015  0.01654696  1
  Al0+  Al89  1  0.17685758  0.42674485  0.34816211  1
  Al0+  Al90  1  0.42669918  0.32386883  0.98353710  1
  Al0+  Al91  1  0.18041762  0.92970331  0.34458896  1
  Al0+  Al92  1  0.57000791  0.17686962  0.65036561  1
  Al0+  Al93  1  0.32295899  0.57013601  0.68180756  1
  Al0+  Al94  1  0.92877272  0.32132109  0.32020521  1
  Al0+  Al95  1  0.92944084  0.82030230  0.98709437  1
  Si0+  Si96  1  0.67993735  0.42914068  0.34784190  1
  Si0+  Si97  1  0.92814651  0.82003149  0.65196316  1
  Si0+  Si98  1  0.92841282  0.32524903  0.64956199  1
  Si0+  Si99  1  0.67686438  0.92619384  0.35096007  1
  Si0+  Si100  1  0.31946468  0.07128571  0.01570303  1
  Si0+  Si101  1  0.42495898  0.82109203  0.65088370  1
  Si0+  Si102  1  0.17899316  0.42972926  0.01509762  1
  Si0+  Si103  1  0.57366934  0.17712514  0.31788500  1
  Si0+  Si104  1  0.17801670  0.92879275  0.01552468  1
  Si0+  Si105  1  0.68128632  0.42815752  0.01462066  1
  Si0+  Si106  1  0.42803152  0.32265312  0.64977712  1
  Si0+  Si107  1  0.07125596  0.67939457  0.65271060  1
  Si0+  Si108  1  0.57391419  0.67850748  0.98299394  1
  Si0+  Si109  1  0.82136385  0.57240894  0.34618606  1
  Si0+  Si110  1  0.82079785  0.07500909  0.68414555  1
  Si0+  Si111  1  0.17819559  0.42850364  0.68451426  1
  Si0+  Si112  1  0.82314329  0.57026640  0.01734275  1
  Si0+  Si113  1  0.32218711  0.57100740  0.01595362  1
  Si0+  Si114  1  0.07228769  0.67793397  0.98129427  1
  Si0+  Si115  1  0.92699152  0.82271432  0.31838960  1
  Si0+  Si116  1  0.82342555  0.07303586  0.01544452  1
  Si0+  Si117  1  0.07248513  0.17592823  0.98242436  1
  Si0+  Si118  1  0.67767085  0.42663358  0.68497849  1
  Si0+  Si119  1  0.32456700  0.07328375  0.34705593  1
  O2-  O120  1  0.24720923  0.00122402  0.05796350  1
  O2-  O121  1  0.25471866  0.00516353  0.39022013  1
  O2-  O122  1  0.24953746  -0.00115061  0.73355069  1
  O2-  O123  1  0.25383577  0.49686073  0.05709312  1
  O2-  O124  1  0.25111013  0.49704918  0.39735007  1
  O2-  O125  1  0.24946423  0.49429702  0.72984921  1
  O2-  O126  1  0.75285407  0.00559223  0.05944633  1
  O2-  O127  1  0.74413454  -0.00362203  0.39452399  1
  O2-  O128  1  0.74981972  0.00958055  0.72903447  1
  O2-  O129  1  0.75229085  0.49887775  0.05901597  1
  O2-  O130  1  0.75001594  0.50203153  0.38879787  1
  O2-  O131  1  0.74812946  0.49447812  0.72848793  1
  O2-  O132  1  0.00182143  0.25100025  0.26911334  1
  O2-  O133  1  -0.00572830  0.25450284  0.60600500  1
  O2-  O134  1  0.00307681  0.24460117  0.93897245  1
  O2-  O135  1  -0.00318615  0.75464502  0.27503700  1
  O2-  O136  1  0.00411805  0.75409649  0.61006476  1
  O2-  O137  1  0.00394849  0.74701361  0.93743159  1
  O2-  O138  1  0.49995936  0.24038975  0.27456502  1
  O2-  O139  1  0.49484319  0.25203333  0.60530442  1
  O2-  O140  1  0.49654340  0.24963023  0.93483461  1
  O2-  O141  1  0.50166511  0.75041717  0.26908833  1
  O2-  O142  1  0.49173363  0.75017050  0.60738890  1
  O2-  O143  1  0.50666820  0.74779019  0.93821676  1
  O2-  O144  1  0.07287180  0.17462162  0.08759271  1
  O2-  O145  1  0.06894456  0.17551799  0.43162655  1
  O2-  O146  1  0.06731970  0.18286811  0.76564417  1
  O2-  O147  1  0.07183710  0.67724483  0.08692636  1
  O2-  O148  1  0.06932746  0.68031031  0.43570896  1
  O2-  O149  1  0.06845402  0.67758714  0.75803529  1
  O2-  O150  1  0.56908464  0.18302017  0.10047796  1
  O2-  O151  1  0.57406479  0.17918112  0.42360445  1
  O2-  O152  1  0.56971087  0.17817069  0.76332879  1
  O2-  O153  1  0.57205569  0.67700005  0.08833352  1
  O2-  O154  1  0.57551380  0.67889593  0.43103553  1
  O2-  O155  1  0.57154111  0.68353530  0.76788779  1
  O2-  O156  1  0.17691984  0.43021324  0.23388828  1
  O2-  O157  1  0.17634715  0.43040740  0.57953848  1
  O2-  O158  1  0.17681735  0.43263237  0.90979925  1
  O2-  O159  1  0.18011910  0.92989031  0.23074749  1
  O2-  O160  1  0.17701609  0.92622101  0.57088098  1
  O2-  O161  1  0.17733198  0.92982449  0.91073181  1
  O2-  O162  1  0.68099600  0.42782432  0.24240385  1
  O2-  O163  1  0.67732220  0.42691592  0.57923242  1
  O2-  O164  1  0.68249296  0.42991314  0.90965588  1
  O2-  O165  1  0.67809152  0.92646964  0.24529905  1
  O2-  O166  1  0.68507228  0.92993409  0.56543222  1
  O2-  O167  1  0.67881843  0.92794819  0.90315954  1
  O2-  O168  1  0.42749177  0.32391096  0.09719606  1
  O2-  O169  1  0.43360048  0.32060234  0.43486073  1
  O2-  O170  1  0.43100807  0.32287511  0.75545919  1
  O2-  O171  1  0.42557173  0.81764022  0.09688622  1
  O2-  O172  1  0.42915846  0.82055947  0.43399125  1
  O2-  O173  1  0.42799880  0.82044372  0.75694448  1
  O2-  O174  1  0.93080833  0.32226102  0.09692888  1
  O2-  O175  1  0.92772347  0.32106145  0.43360444  1
  O2-  O176  1  0.93035028  0.32507412  0.75564164  1
  O2-  O177  1  0.93193862  0.81889857  0.10017155  1
  O2-  O178  1  0.92438419  0.81995326  0.42421823  1
  O2-  O179  1  0.92725909  0.81688857  0.75731222  1
  O2-  O180  1  0.32417120  0.07226279  0.24100570  1
  O2-  O181  1  0.31909758  0.07099427  0.56793285  1
  O2-  O182  1  0.31869399  0.07079651  0.91076653  1
  O2-  O183  1  0.32004724  0.56915369  0.23290575  1
  O2-  O184  1  0.32249148  0.57016705  0.56914820  1
  O2-  O185  1  0.32000678  0.57090177  0.91057882  1
  O2-  O186  1  0.81710480  0.07076921  0.23371773  1
  O2-  O187  1  0.82130640  0.07178390  0.57853970  1
  O2-  O188  1  0.82544249  0.07154391  0.90989358  1
  O2-  O189  1  0.82092379  0.57243044  0.24090570  1
  O2-  O190  1  0.82217703  0.57003765  0.56696709  1
  O2-  O191  1  0.82220769  0.57061616  0.91211386  1
  O2-  O192  1  0.03762866  0.07884431  0.26548994  1
  O2-  O193  1  0.03854187  0.08256103  0.59928396  1
  O2-  O194  1  0.04732229  0.08299423  0.93492080  1
  O2-  O195  1  0.03861420  0.58569867  0.26457303  1
  O2-  O196  1  0.03958860  0.58847649  0.60610949  1
  O2-  O197  1  0.04549931  0.58563598  0.93336477  1
  O2-  O198  1  0.55568816  0.08144465  0.27363732  1
  O2-  O199  1  0.53950496  0.08071373  0.59552834  1
  O2-  O200  1  0.53948994  0.08104275  0.93542684  1
  O2-  O201  1  0.54726853  0.57944982  0.26282428  1
  O2-  O202  1  0.54560166  0.58127501  0.60337803  1
  O2-  O203  1  0.54876536  0.58517825  0.93600595  1
  O2-  O204  1  0.17007855  0.19969746  0.26400760  1
  O2-  O205  1  0.16657133  0.20960064  0.59890829  1
  O2-  O206  1  0.16485550  0.20429550  0.93544955  1
  O2-  O207  1  0.16567995  0.71085103  0.26550600  1
  O2-  O208  1  0.16477608  0.70468441  0.60818585  1
  O2-  O209  1  0.16577193  0.70327623  0.93547248  1
  O2-  O210  1  0.66469976  0.20940544  0.27162684  1
  O2-  O211  1  0.66697901  0.20844655  0.59657170  1
  O2-  O212  1  0.66717171  0.20681638  0.93134902  1
  O2-  O213  1  0.67135997  0.70500270  0.26218379  1
  O2-  O214  1  0.66698467  0.71365823  0.60119682  1
  O2-  O215  1  0.66949130  0.70212426  0.94081479  1
  O2-  O216  1  0.08811424  0.46145396  0.06246173  1
  O2-  O217  1  0.07863775  0.45716693  0.40028956  1
  O2-  O218  1  0.08630651  0.45826553  0.73321724  1
  O2-  O219  1  0.08496814  0.95472535  0.06199194  1
  O2-  O220  1  0.08325659  0.95568808  0.39977034  1
  O2-  O221  1  0.07697930  0.95989683  0.73613499  1
  O2-  O222  1  0.58899817  0.45668230  0.06190945  1
  O2-  O223  1  0.58913071  0.45670913  0.39644117  1
  O2-  O224  1  0.58582034  0.45354962  0.73312055  1
  O2-  O225  1  0.58060020  0.95897284  0.07029783  1
  O2-  O226  1  0.58275794  0.95012595  0.39667676  1
  O2-  O227  1  0.58248478  0.95787261  0.73079755  1
  O2-  O228  1  0.20085312  0.33544653  0.06027515  1
  O2-  O229  1  0.20470528  0.32696755  0.39803927  1
  O2-  O230  1  0.20075757  0.33454292  0.73103993  1
  O2-  O231  1  0.20731428  0.83549950  0.05959295  1
  O2-  O232  1  0.21199673  0.83405617  0.39969488  1
  O2-  O233  1  0.19890291  0.83003677  0.74086648  1
  O2-  O234  1  0.71010661  0.33602678  0.06067528  1
  O2-  O235  1  0.70833944  0.33893936  0.39812295  1
  O2-  O236  1  0.70358702  0.33279472  0.73099251  1
  O2-  O237  1  0.71141003  0.83322262  0.07116961  1
  O2-  O238  1  0.70502191  0.83248498  0.39574032  1
  O2-  O239  1  0.71541157  0.83721451  0.73558808  1
  O2-  O240  1  0.46527876  0.41233166  0.26464407  1
  O2-  O241  1  0.45722005  0.41555707  0.60470638  1
  O2-  O242  1  0.45877542  0.42150074  0.93112633  1
  O2-  O243  1  0.45617857  0.91933076  0.26458497  1
  O2-  O244  1  0.45120459  0.91389351  0.60524807  1
  O2-  O245  1  0.45755121  0.91689936  0.93156357  1
  O2-  O246  1  0.95359141  0.41953438  0.26503849  1
  O2-  O247  1  0.95584791  0.41969354  0.60638952  1
  O2-  O248  1  0.96365157  0.41677389  0.92896754  1
  O2-  O249  1  0.95255937  0.91573024  0.27282605  1
  O2-  O250  1  0.94958951  0.91430484  0.60717154  1
  O2-  O251  1  0.95848085  0.91605705  0.93022223  1
  O2-  O252  1  0.33332360  0.29308688  0.26475273  1
  O2-  O253  1  0.33294346  0.30003610  0.60656115  1
  O2-  O254  1  0.32703753  0.29961674  0.93143674  1
  O2-  O255  1  0.33236573  0.79042952  0.26427433  1
  O2-  O256  1  0.32873759  0.79597116  0.61117667  1
  O2-  O257  1  0.33376083  0.78716074  0.92816855  1
  O2-  O258  1  0.83075695  0.28960752  0.26693620  1
  O2-  O259  1  0.83289852  0.30538114  0.60564306  1
  O2-  O260  1  0.83467607  0.29401252  0.92700604  1
  O2-  O261  1  0.83493292  0.79588443  0.26996185  1
  O2-  O262  1  0.83924136  0.78628131  0.60356549  1
  O2-  O263  1  0.83309719  0.78697202  0.93387928  1
  O2-  O264  1  0.41006773  0.04234943  0.06383917  1
  O2-  O265  1  0.41898262  0.04844305  0.39257340  1
  O2-  O266  1  0.41819802  0.04302425  0.73540608  1
  O2-  O267  1  0.41626102  0.54745452  0.06044213  1
  O2-  O268  1  0.42239118  0.54039471  0.39701156  1
  O2-  O269  1  0.41931236  0.54067656  0.73799180  1
  O2-  O270  1  0.91663406  0.04441901  0.06157788  1
  O2-  O271  1  0.91355479  0.03843528  0.40394628  1
  O2-  O272  1  0.91318456  0.04775244  0.73111903  1
  O2-  O273  1  0.91668421  0.54230187  0.06129576  1
  O2-  O274  1  0.91250999  0.54431312  0.39433290  1
  O2-  O275  1  0.91658569  0.54223063  0.73893858  1
  O2-  O276  1  0.29314451  0.16516686  0.06084476  1
  O2-  O277  1  0.30137204  0.16714005  0.39260252  1
  O2-  O278  1  0.29054516  0.17012304  0.73578579  1
  O2-  O279  1  0.29068852  0.66249647  0.06205633  1
  O2-  O280  1  0.29202532  0.66685353  0.40002394  1
  O2-  O281  1  0.28903059  0.66391945  0.73987484  1
  O2-  O282  1  0.79796872  0.16794884  0.05923712  1
  O2-  O283  1  0.78921529  0.16670086  0.40403113  1
  O2-  O284  1  0.79954423  0.17143911  0.72612423  1
  O2-  O285  1  0.79638813  0.66127671  0.06657177  1
  O2-  O286  1  0.79477623  0.66461928  0.39411738  1
  O2-  O287  1  0.78735874  0.66493969  0.73689286  1
