# generated using pymatgen
data_Ca2Al2SiO7
_symmetry_space_group_name_H-M   'P 1'
_cell_length_a   15.46476915
_cell_length_b   15.46445376
_cell_length_c   15.28838459
_cell_angle_alpha   90.01135622
_cell_angle_beta   89.99744790
_cell_angle_gamma   90.00390554
_symmetry_Int_Tables_number   1
_chemical_formula_structural   Ca2Al2SiO7
_chemical_formula_sum   'Ca48 Al48 Si24 O168'
_cell_volume   3656.28141529
_cell_formula_units_Z   24
loop_
 _symmetry_equiv_pos_site_id
 _symmetry_equiv_pos_as_xyz
  1  'x, y, z'
loop_
 _atom_type_symbol
 _atom_type_oxidation_number
  Ca2+  2.0
  Al0+  0.0
  Si0+  0.0
  O2-  -2.0
loop_
 _atom_site_type_symbol
 _atom_site_label
 _atom_site_symmetry_multiplicity
 _atom_site_fract_x
 _atom_site_fract_y
 _atom_site_fract_z
 _atom_site_occupancy
  Ca2+  Ca0  1  0.16422590  0.07157338  0.17242468  1
  Ca2+  Ca1  1  0.16800876  0.07456963  0.51260746  1
  Ca2+  Ca2  1  0.15321106  0.07218309  0.83271953  1
  Ca2+  Ca3  1  0.17294845  0.58578084  0.16597597  1
  Ca2+  Ca4  1  0.17280420  0.59000537  0.50866302  1
  Ca2+  Ca5  1  0.17718012  0.59369862  0.83316213  1
  Ca2+  Ca6  1  0.66602419  0.08604933  0.16747158  1
  Ca2+  Ca7  1  0.67268228  0.07653731  0.51375601  1
  Ca2+  Ca8  1  0.66714964  0.08447033  0.82951801  1
  Ca2+  Ca9  1  0.66857594  0.57236235  0.17303257  1
  Ca2+  Ca10  1  0.68042497  0.57424137  0.50720709  1
  Ca2+  Ca11  1  0.67252052  0.57265753  0.83698944  1
  Ca2+  Ca12  1  0.06795997  0.33850923  0.16158416  1
  Ca2+  Ca13  1  0.07036862  0.33161700  0.49814469  1
  Ca2+  Ca14  1  0.07082013  0.32930405  0.82137237  1
  Ca2+  Ca15  1  0.08086574  0.83898714  0.16731665  1
  Ca2+  Ca16  1  0.07649448  0.83510115  0.50080491  1
  Ca2+  Ca17  1  0.08221911  0.83247587  0.82316836  1
  Ca2+  Ca18  1  0.59052213  0.33133496  0.15821653  1
  Ca2+  Ca19  1  0.59361590  0.33120050  0.50340059  1
  Ca2+  Ca20  1  0.59018075  0.32657290  0.82742841  1
  Ca2+  Ca21  1  0.57499972  0.82441671  0.15968731  1
  Ca2+  Ca22  1  0.57684346  0.83737916  0.49437458  1
  Ca2+  Ca23  1  0.58525275  0.82661731  0.82596915  1
  Ca2+  Ca24  1  0.33731685  0.42513382  0.16746745  1
  Ca2+  Ca25  1  0.33057953  0.42473382  0.50909261  1
  Ca2+  Ca26  1  0.33389151  0.42717546  0.83396754  1
  Ca2+  Ca27  1  0.32230638  0.91132627  0.17280049  1
  Ca2+  Ca28  1  0.32300622  0.91626788  0.50821953  1
  Ca2+  Ca29  1  0.32121494  0.92355516  0.83272775  1
  Ca2+  Ca30  1  0.82592226  0.41731550  0.17499428  1
  Ca2+  Ca31  1  0.83076101  0.41967858  0.50617139  1
  Ca2+  Ca32  1  0.82839256  0.41009952  0.83461435  1
  Ca2+  Ca33  1  0.83326561  0.91885566  0.17362260  1
  Ca2+  Ca34  1  0.83346108  0.91873814  0.51221913  1
  Ca2+  Ca35  1  0.83561969  0.92062217  0.82820581  1
  Ca2+  Ca36  1  0.42565147  0.17119023  0.15951426  1
  Ca2+  Ca37  1  0.42323066  0.15682283  0.50251355  1
  Ca2+  Ca38  1  0.42683539  0.16081626  0.82500719  1
  Ca2+  Ca39  1  0.42023141  0.66894337  0.15945149  1
  Ca2+  Ca40  1  0.41716027  0.67231376  0.49669603  1
  Ca2+  Ca41  1  0.42094655  0.65861863  0.83000779  1
  Ca2+  Ca42  1  0.91299560  0.18075370  0.16257064  1
  Ca2+  Ca43  1  0.91275592  0.17448425  0.50440600  1
  Ca2+  Ca44  1  0.91599692  0.17584366  0.82324323  1
  Ca2+  Ca45  1  0.91133499  0.67124929  0.16719109  1
  Ca2+  Ca46  1  0.91060725  0.67438558  0.49851065  1
  Ca2+  Ca47  1  0.92440582  0.67148364  0.81820814  1
  Al0+  Al48  1  -0.00174788  0.00109210  0.00744483  1
  Al0+  Al49  1  0.00078705  -0.00154473  0.33353658  1
  Al0+  Al50  1  -0.00160223  0.00050811  0.66805097  1
  Al0+  Al51  1  -0.00033770  0.50340938  -0.00512680  1
  Al0+  Al52  1  0.00150166  0.50082339  0.33031701  1
  Al0+  Al53  1  0.00238223  0.50096270  0.66069612  1
  Al0+  Al54  1  0.49875503  -0.00036880  -0.00264085  1
  Al0+  Al55  1  0.49890262  -0.00001558  0.32464828  1
  Al0+  Al56  1  0.49877285  -0.00157626  0.66969153  1
  Al0+  Al57  1  0.50064165  0.50028032  0.00489170  1
  Al0+  Al58  1  0.50036330  0.49752440  0.33803441  1
  Al0+  Al59  1  0.50081706  0.49912979  0.67172450  1
  Al0+  Al60  1  0.24887622  0.24900181  0.00127741  1
  Al0+  Al61  1  0.25326218  0.24934481  0.33080204  1
  Al0+  Al62  1  0.25300799  0.25146019  0.66691799  1
  Al0+  Al63  1  0.24890945  0.75177689  0.00939828  1
  Al0+  Al64  1  0.24946228  0.75138079  0.33263650  1
  Al0+  Al65  1  0.25154995  0.75145949  0.67162159  1
  Al0+  Al66  1  0.74992340  0.24962927  -0.00334371  1
  Al0+  Al67  1  0.75074689  0.24845928  0.33254042  1
  Al0+  Al68  1  0.74821408  0.24771407  0.66435669  1
  Al0+  Al69  1  0.74844629  0.75121522  -0.00396690  1
  Al0+  Al70  1  0.74943068  0.74891635  0.33003632  1
  Al0+  Al71  1  0.74951717  0.74691322  0.66978338  1
  Al0+  Al72  1  0.56947358  0.17923054  0.98464520  1
  Al0+  Al73  1  0.32018006  0.57164885  0.67911968  1
  Al0+  Al74  1  0.92822607  0.82108803  0.31873627  1
  Al0+  Al75  1  0.68311067  0.42923117  0.01408128  1
  Al0+  Al76  1  0.92745729  0.81960196  0.65303884  1
  Al0+  Al77  1  0.32201053  0.07369411  0.68113145  1
  Al0+  Al78  1  0.93015944  0.32041862  0.31817956  1
  Al0+  Al79  1  0.17875400  0.93204076  0.01718391  1
  Al0+  Al80  1  0.67896322  0.42618927  0.35014543  1
  Al0+  Al81  1  0.17930560  0.92975501  0.35059597  1
  Al0+  Al82  1  0.42844636  0.82020740  0.31911288  1
  Al0+  Al83  1  0.56971088  0.67828731  0.98531633  1
  Al0+  Al84  1  0.82270516  0.57246573  0.34770689  1
  Al0+  Al85  1  0.32005040  0.56885646  0.01529092  1
  Al0+  Al86  1  0.17818099  0.93142556  0.68177329  1
  Al0+  Al87  1  0.92753981  0.32153746  0.65002542  1
  Al0+  Al88  1  0.82532990  0.57093788  0.68247198  1
  Al0+  Al89  1  0.07364670  0.17833714  0.65279758  1
  Al0+  Al90  1  0.93008069  0.32219349  0.98601123  1
  Al0+  Al91  1  0.82045653  0.07040276  0.68162607  1
  Al0+  Al92  1  0.07494608  0.68016837  0.65206797  1
  Al0+  Al93  1  0.56826731  0.17817730  0.65156356  1
  Al0+  Al94  1  0.68162124  0.42900409  0.68337832  1
  Al0+  Al95  1  0.67686084  0.92618026  0.68049863  1
  Si0+  Si96  1  0.07361757  0.67830486  0.31427549  1
  Si0+  Si97  1  0.32491410  0.07301562  0.01892952  1
  Si0+  Si98  1  0.17511301  0.42692136  0.01546052  1
  Si0+  Si99  1  0.43110679  0.81946453  0.65343283  1
  Si0+  Si100  1  0.42570601  0.32289685  0.98371842  1
  Si0+  Si101  1  0.32371913  0.07272876  0.34877105  1
  Si0+  Si102  1  0.67673087  0.92681324  0.01638566  1
  Si0+  Si103  1  0.32022222  0.57046258  0.34805550  1
  Si0+  Si104  1  0.07090177  0.17677683  0.98653907  1
  Si0+  Si105  1  0.67715799  0.92963548  0.34339906  1
  Si0+  Si106  1  0.42548212  0.82027693  0.98161821  1
  Si0+  Si107  1  0.82019873  0.06952499  0.34685874  1
  Si0+  Si108  1  0.57086293  0.67571052  0.65132854  1
  Si0+  Si109  1  0.17970329  0.42741091  0.34614033  1
  Si0+  Si110  1  0.07448668  0.17821782  0.31635354  1
  Si0+  Si111  1  0.57049774  0.67616509  0.31749562  1
  Si0+  Si112  1  0.42944174  0.32481710  0.64953696  1
  Si0+  Si113  1  0.82390480  0.57541830  0.01628817  1
  Si0+  Si114  1  0.57025072  0.17988874  0.31810841  1
  Si0+  Si115  1  0.07152203  0.68195864  0.98631036  1
  Si0+  Si116  1  0.42769682  0.32308778  0.31765044  1
  Si0+  Si117  1  0.92856480  0.82330011  0.98601898  1
  Si0+  Si118  1  0.81810441  0.06934253  0.01681265  1
  Si0+  Si119  1  0.17785343  0.42687024  0.68155513  1
  O2-  O120  1  0.25431889  0.00672202  0.06382247  1
  O2-  O121  1  0.25347819  0.00664474  0.39316506  1
  O2-  O122  1  0.24358608  0.00978642  0.73198188  1
  O2-  O123  1  0.24668194  0.49211700  0.06183366  1
  O2-  O124  1  0.24917191  0.49958851  0.38927785  1
  O2-  O125  1  0.24348039  0.49896758  0.72550273  1
  O2-  O126  1  0.74674418  -0.00161135  0.05978442  1
  O2-  O127  1  0.75135994  -0.00450991  0.38684300  1
  O2-  O128  1  0.74962723  -0.00319731  0.73168701  1
  O2-  O129  1  0.75728629  0.50472083  0.06073264  1
  O2-  O130  1  0.75281144  0.49784149  0.39652810  1
  O2-  O131  1  0.75685034  0.49679194  0.73415165  1
  O2-  O132  1  0.00689689  0.24738017  0.27056877  1
  O2-  O133  1  0.00201931  0.25013223  0.60171396  1
  O2-  O134  1  0.01030373  0.25196795  0.94276142  1
  O2-  O135  1  0.00187027  0.74510695  0.27111622  1
  O2-  O136  1  -0.00137027  0.74719525  0.60185926  1
  O2-  O137  1  -0.00254224  0.75006358  0.94562000  1
  O2-  O138  1  0.50160031  0.25398289  0.27708883  1
  O2-  O139  1  0.49383270  0.25268989  0.60374619  1
  O2-  O140  1  0.49147447  0.25167508  0.94002745  1
  O2-  O141  1  0.50203300  0.74469872  0.27203267  1
  O2-  O142  1  0.50357578  0.75057532  0.60930182  1
  O2-  O143  1  0.49494302  0.75285692  0.93710359  1
  O2-  O144  1  0.06674192  0.17504750  0.09249918  1
  O2-  O145  1  0.07619049  0.18058131  0.42115255  1
  O2-  O146  1  0.07097487  0.18156573  0.76702328  1
  O2-  O147  1  0.07181087  0.68115981  0.09161384  1
  O2-  O148  1  0.07913213  0.67944387  0.41886453  1
  O2-  O149  1  0.07757184  0.68517469  0.76630376  1
  O2-  O150  1  0.56966231  0.18089512  0.09884921  1
  O2-  O151  1  0.56867985  0.17500667  0.42237760  1
  O2-  O152  1  0.56710553  0.17886937  0.76444948  1
  O2-  O153  1  0.56805282  0.68090050  0.09897761  1
  O2-  O154  1  0.56837817  0.67769397  0.42295457  1
  O2-  O155  1  0.56747565  0.67507411  0.75649764  1
  O2-  O156  1  0.18216767  0.42842542  0.24071186  1
  O2-  O157  1  0.18214580  0.42581859  0.57548312  1
  O2-  O158  1  0.17526940  0.42821091  0.91056053  1
  O2-  O159  1  0.18036902  0.93110393  0.23689760  1
  O2-  O160  1  0.18204840  0.92830352  0.56840897  1
  O2-  O161  1  0.17668757  0.93202214  0.90499296  1
  O2-  O162  1  0.67830214  0.42632005  0.23596658  1
  O2-  O163  1  0.67998377  0.43196048  0.56985973  1
  O2-  O164  1  0.68370860  0.42784330  0.90203302  1
  O2-  O165  1  0.67698933  0.93335616  0.23785347  1
  O2-  O166  1  0.67429379  0.92915417  0.56592954  1
  O2-  O167  1  0.67751847  0.92501338  0.91222898  1
  O2-  O168  1  0.42688432  0.32185687  0.09012400  1
  O2-  O169  1  0.42203963  0.32473884  0.42169841  1
  O2-  O170  1  0.43190516  0.32834855  0.75495950  1
  O2-  O171  1  0.42741885  0.81835951  0.08786812  1
  O2-  O172  1  0.43052878  0.82029183  0.43222309  1
  O2-  O173  1  0.43092440  0.81764084  0.75842283  1
  O2-  O174  1  0.92923755  0.32036543  0.09978620  1
  O2-  O175  1  0.92963945  0.31818531  0.43015415  1
  O2-  O176  1  0.92858608  0.31934605  0.76384287  1
  O2-  O177  1  0.92878831  0.82355101  0.09159567  1
  O2-  O178  1  0.92699647  0.82393818  0.43050738  1
  O2-  O179  1  0.92989400  0.81937255  0.76733017  1
  O2-  O180  1  0.32411673  0.07296359  0.24293381  1
  O2-  O181  1  0.32467966  0.06603488  0.56719165  1
  O2-  O182  1  0.32728626  0.07127098  0.91424197  1
  O2-  O183  1  0.32079798  0.56891190  0.24277943  1
  O2-  O184  1  0.32117860  0.57096588  0.56537813  1
  O2-  O185  1  0.31849375  0.56977386  0.90271613  1
  O2-  O186  1  0.81712450  0.07113875  0.24099611  1
  O2-  O187  1  0.81766712  0.06980755  0.56734610  1
  O2-  O188  1  0.82063721  0.06773136  0.91272654  1
  O2-  O189  1  0.81900536  0.57235346  0.23338422  1
  O2-  O190  1  0.82028632  0.57288253  0.56900266  1
  O2-  O191  1  0.82386520  0.57668975  0.91149894  1
  O2-  O192  1  0.04608991  0.08487031  0.27110385  1
  O2-  O193  1  0.04464695  0.08022779  0.60065792  1
  O2-  O194  1  0.03640133  0.08573069  0.94087155  1
  O2-  O195  1  0.05247328  0.58394859  0.26691682  1
  O2-  O196  1  0.05720808  0.57951258  0.60008946  1
  O2-  O197  1  0.04943619  0.58987507  0.93731090  1
  O2-  O198  1  0.54036366  0.09053126  0.26558018  1
  O2-  O199  1  0.53581865  0.08095492  0.59820063  1
  O2-  O200  1  0.54222236  0.08078719  0.93267469  1
  O2-  O201  1  0.54257087  0.58216461  0.27263859  1
  O2-  O202  1  0.53695840  0.58646923  0.60320164  1
  O2-  O203  1  0.53736952  0.58149971  0.93357903  1
  O2-  O204  1  0.16909557  0.20123989  0.26936340  1
  O2-  O205  1  0.17403480  0.20362626  0.60139344  1
  O2-  O206  1  0.16823842  0.19146941  0.94468882  1
  O2-  O207  1  0.16558870  0.70798156  0.26568591  1
  O2-  O208  1  0.17293576  0.71260090  0.59935480  1
  O2-  O209  1  0.16323144  0.71368051  0.94158042  1
  O2-  O210  1  0.66237614  0.20521885  0.26972328  1
  O2-  O211  1  0.66402836  0.20744944  0.59593554  1
  O2-  O212  1  0.66538724  0.21054921  0.93178266  1
  O2-  O213  1  0.66306281  0.70136356  0.26952592  1
  O2-  O214  1  0.66345353  0.69996938  0.60532053  1
  O2-  O215  1  0.66591443  0.70977485  0.93115096  1
  O2-  O216  1  0.08325735  0.45926375  0.06268067  1
  O2-  O217  1  0.08751907  0.45293665  0.39228294  1
  O2-  O218  1  0.08334416  0.44858628  0.72557135  1
  O2-  O219  1  0.08267280  0.96437056  0.07361253  1
  O2-  O220  1  0.08158950  0.95874874  0.40189974  1
  O2-  O221  1  0.07934138  0.95535235  0.73533017  1
  O2-  O222  1  0.58561643  0.45820957  0.06824164  1
  O2-  O223  1  0.57955844  0.45215032  0.40247444  1
  O2-  O224  1  0.58418932  0.46022725  0.73647855  1
  O2-  O225  1  0.58388693  0.95433992  0.06292446  1
  O2-  O226  1  0.58585259  0.96110469  0.38954914  1
  O2-  O227  1  0.58021496  0.95537316  0.73574299  1
  O2-  O228  1  0.19505350  0.33148921  0.06169657  1
  O2-  O229  1  0.20987368  0.33602517  0.39236546  1
  O2-  O230  1  0.20637098  0.33588097  0.73097739  1
  O2-  O231  1  0.20970506  0.83662148  0.07393766  1
  O2-  O232  1  0.21257972  0.83296605  0.40144571  1
  O2-  O233  1  0.21500345  0.83678463  0.73685927  1
  O2-  O234  1  0.71431097  0.33185253  0.06779718  1
  O2-  O235  1  0.70697682  0.32664467  0.40016255  1
  O2-  O236  1  0.70538300  0.32841248  0.73221596  1
  O2-  O237  1  0.70583138  0.83559059  0.06513771  1
  O2-  O238  1  0.69761434  0.83532064  0.38732191  1
  O2-  O239  1  0.70218075  0.82775950  0.73380570  1
  O2-  O240  1  0.45421506  0.41558708  0.26984314  1
  O2-  O241  1  0.45942374  0.41678123  0.60121011  1
  O2-  O242  1  0.45282047  0.41649884  0.94032503  1
  O2-  O243  1  0.45932255  0.91526004  0.26087910  1
  O2-  O244  1  0.45731221  0.91057228  0.60443557  1
  O2-  O245  1  0.44927914  0.91493921  0.93848902  1
  O2-  O246  1  0.96102494  0.41723412  0.26338388  1
  O2-  O247  1  0.95634936  0.41931141  0.59632293  1
  O2-  O248  1  0.95597165  0.42019647  0.93288229  1
  O2-  O249  1  0.96052148  0.91760008  0.26299386  1
  O2-  O250  1  0.95437128  0.91875640  0.60184960  1
  O2-  O251  1  0.95935719  0.91524478  0.94157719  1
  O2-  O252  1  0.33825375  0.29369640  0.26505101  1
  O2-  O253  1  0.33441838  0.30525358  0.60404885  1
  O2-  O254  1  0.32968891  0.30235219  0.94001195  1
  O2-  O255  1  0.33280051  0.78792272  0.26410098  1
  O2-  O256  1  0.34077794  0.78830133  0.60550094  1
  O2-  O257  1  0.33098966  0.79332802  0.93972269  1
  O2-  O258  1  0.83423349  0.28484930  0.26392672  1
  O2-  O259  1  0.83078000  0.28864657  0.59695265  1
  O2-  O260  1  0.83679290  0.28401021  0.93265070  1
  O2-  O261  1  0.83076638  0.79270078  0.26227626  1
  O2-  O262  1  0.82770845  0.79245830  0.60083538  1
  O2-  O263  1  0.83552426  0.80088522  0.93980304  1
  O2-  O264  1  0.41806156  0.04539939  0.06645567  1
  O2-  O265  1  0.41769031  0.04385035  0.39220473  1
  O2-  O266  1  0.41556505  0.03580577  0.73713425  1
  O2-  O267  1  0.41530903  0.53843242  0.07247131  1
  O2-  O268  1  0.41148111  0.54294378  0.39600074  1
  O2-  O269  1  0.41429228  0.53721661  0.73508412  1
  O2-  O270  1  0.90810729  0.04114726  0.06840790  1
  O2-  O271  1  0.91280735  0.04451148  0.39183751  1
  O2-  O272  1  0.91794249  0.04437219  0.73682108  1
  O2-  O273  1  0.91936033  0.55336920  0.06082978  1
  O2-  O274  1  0.92423835  0.54966240  0.39548471  1
  O2-  O275  1  0.92732833  0.54953052  0.73055878  1
  O2-  O276  1  0.30275945  0.16866656  0.06403085  1
  O2-  O277  1  0.30360849  0.16816581  0.39339299  1
  O2-  O278  1  0.30838755  0.17630397  0.73028842  1
  O2-  O279  1  0.28689798  0.66394351  0.07174510  1
  O2-  O280  1  0.29223960  0.66240038  0.39395012  1
  O2-  O281  1  0.29205711  0.66670699  0.73673103  1
  O2-  O282  1  0.78748561  0.16043680  0.06443657  1
  O2-  O283  1  0.78919483  0.15935280  0.39462117  1
  O2-  O284  1  0.78785740  0.16679746  0.73487443  1
  O2-  O285  1  0.79572948  0.66939114  0.06168712  1
  O2-  O286  1  0.79121534  0.67097591  0.39932604  1
  O2-  O287  1  0.79395721  0.66743488  0.73697338  1
