# generated using pymatgen
data_Ca2Al2SiO7
_symmetry_space_group_name_H-M   'P 1'
_cell_length_a   15.45665882
_cell_length_b   15.45608646
_cell_length_c   15.28290612
_cell_angle_alpha   89.99614445
_cell_angle_beta   89.99530480
_cell_angle_gamma   90.01208094
_symmetry_Int_Tables_number   1
_chemical_formula_structural   Ca2Al2SiO7
_chemical_formula_sum   'Ca48 Al48 Si24 O168'
_cell_volume   3651.07784454
_cell_formula_units_Z   24
loop_
 _symmetry_equiv_pos_site_id
 _symmetry_equiv_pos_as_xyz
  1  'x, y, z'
loop_
 _atom_type_symbol
 _atom_type_oxidation_number
  Ca2+  2.0
  Al0+  0.0
  Si0+  0.0
  O2-  -2.0
loop_
 _atom_site_type_symbol
 _atom_site_label
 _atom_site_symmetry_multiplicity
 _atom_site_fract_x
 _atom_site_fract_y
 _atom_site_fract_z
 _atom_site_occupancy
  Ca2+  Ca0  1  0.18224432  0.08483279  0.17083190  1
  Ca2+  Ca1  1  0.17440246  0.08512550  0.50974840  1
  Ca2+  Ca2  1  0.17608745  0.08527233  0.83158599  1
  Ca2+  Ca3  1  0.17246196  0.57627259  0.17127940  1
  Ca2+  Ca4  1  0.17779615  0.58310970  0.50759568  1
  Ca2+  Ca5  1  0.16803323  0.58114882  0.83439117  1
  Ca2+  Ca6  1  0.66450297  0.07851543  0.17258017  1
  Ca2+  Ca7  1  0.66692550  0.08381498  0.49673097  1
  Ca2+  Ca8  1  0.67250636  0.07957985  0.84602143  1
  Ca2+  Ca9  1  0.66193118  0.57341271  0.16803836  1
  Ca2+  Ca10  1  0.66907941  0.57563106  0.51548907  1
  Ca2+  Ca11  1  0.66182125  0.57421274  0.82928240  1
  Ca2+  Ca12  1  0.07799022  0.33581785  0.16358883  1
  Ca2+  Ca13  1  0.07739872  0.32849239  0.49745871  1
  Ca2+  Ca14  1  0.08645569  0.32861244  0.82814753  1
  Ca2+  Ca15  1  0.08362057  0.83167639  0.16247288  1
  Ca2+  Ca16  1  0.08389503  0.83406252  0.50527872  1
  Ca2+  Ca17  1  0.07617060  0.83249462  0.81814173  1
  Ca2+  Ca18  1  0.58005147  0.32093373  0.16307340  1
  Ca2+  Ca19  1  0.57401992  0.33094518  0.49508020  1
  Ca2+  Ca20  1  0.58359530  0.33064445  0.82805319  1
  Ca2+  Ca21  1  0.58145167  0.83863129  0.15906295  1
  Ca2+  Ca22  1  0.58794370  0.82624437  0.49792826  1
  Ca2+  Ca23  1  0.57872088  0.83308386  0.83009963  1
  Ca2+  Ca24  1  0.33046726  0.41768429  0.17219825  1
  Ca2+  Ca25  1  0.34417042  0.42263708  0.50668071  1
  Ca2+  Ca26  1  0.33309455  0.42036013  0.83284402  1
  Ca2+  Ca27  1  0.34454242  0.92816183  0.16755378  1
  Ca2+  Ca28  1  0.32923139  0.93280531  0.50812661  1
  Ca2+  Ca29  1  0.33287299  0.92456140  0.83622918  1
  Ca2+  Ca30  1  0.82667709  0.41034980  0.16934659  1
  Ca2+  Ca31  1  0.82735183  0.41839392  0.50746533  1
  Ca2+  Ca32  1  0.82215385  0.42058780  0.83577158  1
  Ca2+  Ca33  1  0.82120714  0.92932044  0.17215853  1
  Ca2+  Ca34  1  0.83087737  0.91826476  0.50213115  1
  Ca2+  Ca35  1  0.82971183  0.91909177  0.83914999  1
  Ca2+  Ca36  1  0.42616488  0.15917645  0.16223212  1
  Ca2+  Ca37  1  0.41442239  0.17637213  0.49295984  1
  Ca2+  Ca38  1  0.41819039  0.16908645  0.82861910  1
  Ca2+  Ca39  1  0.41443201  0.67455454  0.16241243  1
  Ca2+  Ca40  1  0.42016156  0.65990496  0.49774541  1
  Ca2+  Ca41  1  0.41934973  0.67159986  0.82537756  1
  Ca2+  Ca42  1  0.90883715  0.16712231  0.16534031  1
  Ca2+  Ca43  1  0.92152262  0.16786769  0.49372753  1
  Ca2+  Ca44  1  0.92346657  0.16307835  0.82615685  1
  Ca2+  Ca45  1  0.91863991  0.66893078  0.16240228  1
  Ca2+  Ca46  1  0.91761866  0.66888564  0.50309133  1
  Ca2+  Ca47  1  0.92082787  0.67238568  0.81918464  1
  Al0+  Al48  1  0.00128533  0.00036377  0.00336947  1
  Al0+  Al49  1  -0.00101942  -0.00155920  0.33353751  1
  Al0+  Al50  1  0.00047299  0.00039461  0.66015085  1
  Al0+  Al51  1  0.00089839  0.49947435  0.00286256  1
  Al0+  Al52  1  0.00049210  0.49944531  0.32857424  1
  Al0+  Al53  1  -0.00033694  0.50135076  0.66578757  1
  Al0+  Al54  1  0.50033252  -0.00038475  -0.00459355  1
  Al0+  Al55  1  0.49891138  -0.00210727  0.34188036  1
  Al0+  Al56  1  0.50164751  0.00090550  0.66917314  1
  Al0+  Al57  1  0.49997696  0.50056977  0.00512199  1
  Al0+  Al58  1  0.49982736  0.49956892  0.33051607  1
  Al0+  Al59  1  0.49910724  0.49963117  0.66914699  1
  Al0+  Al60  1  0.24936244  0.25120852  0.00880835  1
  Al0+  Al61  1  0.24681142  0.25174762  0.33299044  1
  Al0+  Al62  1  0.25105082  0.25138630  0.66152218  1
  Al0+  Al63  1  0.25056878  0.75024648  -0.00543186  1
  Al0+  Al64  1  0.25039633  0.74747256  0.33546095  1
  Al0+  Al65  1  0.24914510  0.75197520  0.66961601  1
  Al0+  Al66  1  0.75053121  0.25268219  0.00101424  1
  Al0+  Al67  1  0.74994154  0.24897805  0.33096525  1
  Al0+  Al68  1  0.74891636  0.24859796  0.67020165  1
  Al0+  Al69  1  0.75095239  0.74876812  0.00195788  1
  Al0+  Al70  1  0.75114774  0.74928022  0.33302121  1
  Al0+  Al71  1  0.74982775  0.74993382  0.66278847  1
  Al0+  Al72  1  0.17826595  0.93130023  0.68144446  1
  Al0+  Al73  1  0.32252288  0.07464796  0.68266631  1
  Al0+  Al74  1  0.82186234  0.57221162  0.68069677  1
  Al0+  Al75  1  0.67893888  0.92825971  0.01310856  1
  Al0+  Al76  1  0.07072589  0.18072781  0.65379215  1
  Al0+  Al77  1  0.67793438  0.42730705  0.68096847  1
  Al0+  Al78  1  0.31983549  0.07190173  0.34793609  1
  Al0+  Al79  1  0.82379667  0.07195671  0.01383064  1
  Al0+  Al80  1  0.56780670  0.17753592  0.31913311  1
  Al0+  Al81  1  0.92980518  0.32038795  0.31923275  1
  Al0+  Al82  1  0.67791295  0.42949840  0.01607741  1
  Al0+  Al83  1  0.67783203  0.92698320  0.35116531  1
  Al0+  Al84  1  0.43120475  0.31945271  0.65556387  1
  Al0+  Al85  1  0.56753127  0.68059555  0.65411589  1
  Al0+  Al86  1  0.32121044  0.57168241  0.68099030  1
  Al0+  Al87  1  0.57141764  0.18036943  0.98531303  1
  Al0+  Al88  1  0.32068942  0.56901704  0.34700097  1
  Al0+  Al89  1  0.07349996  0.67711742  0.65055085  1
  Al0+  Al90  1  0.17916860  0.42975771  0.01387216  1
  Al0+  Al91  1  0.42673964  0.32325477  0.31593362  1
  Al0+  Al92  1  0.92776917  0.82186963  0.64991103  1
  Al0+  Al93  1  0.32042326  0.06991559  0.01308129  1
  Al0+  Al94  1  0.82062306  0.07223623  0.35081942  1
  Al0+  Al95  1  0.42996525  0.82127267  0.98508440  1
  Si0+  Si96  1  0.82313954  0.57083021  0.01775762  1
  Si0+  Si97  1  0.42747783  0.82477604  0.64852587  1
  Si0+  Si98  1  0.17707268  0.92624054  0.34891353  1
  Si0+  Si99  1  0.07237841  0.17980240  0.98653059  1
  Si0+  Si100  1  0.92759572  0.82094710  0.31467115  1
  Si0+  Si101  1  0.92961064  0.32238440  0.98336807  1
  Si0+  Si102  1  0.57491152  0.17544498  0.65032061  1
  Si0+  Si103  1  0.92547202  0.32169040  0.65258557  1
  Si0+  Si104  1  0.17535571  0.42933211  0.35155731  1
  Si0+  Si105  1  0.32143691  0.57403763  0.01645215  1
  Si0+  Si106  1  0.42901058  0.81821147  0.32125946  1
  Si0+  Si107  1  0.07030755  0.67805406  0.98503784  1
  Si0+  Si108  1  0.93034879  0.82077803  0.98672765  1
  Si0+  Si109  1  0.07144996  0.68016224  0.31649084  1
  Si0+  Si110  1  0.42636671  0.32275168  0.98430386  1
  Si0+  Si111  1  0.17808749  0.92599692  0.01604431  1
  Si0+  Si112  1  0.17705415  0.42839850  0.68083734  1
  Si0+  Si113  1  0.57308113  0.67564006  0.98334449  1
  Si0+  Si114  1  0.07136230  0.17552315  0.31431971  1
  Si0+  Si115  1  0.82109930  0.07063432  0.68051341  1
  Si0+  Si116  1  0.57333280  0.67824405  0.31766049  1
  Si0+  Si117  1  0.67972520  0.92778682  0.68216415  1
  Si0+  Si118  1  0.67997991  0.42989241  0.34765201  1
  Si0+  Si119  1  0.82278725  0.57087876  0.34714483  1
  O2-  O120  1  0.24774893  -0.00711671  0.06077448  1
  O2-  O121  1  0.24079958  -0.00012138  0.39157593  1
  O2-  O122  1  0.25221986  0.00043806  0.73229559  1
  O2-  O123  1  0.25475015  0.50354714  0.06052625  1
  O2-  O124  1  0.25034111  0.49097030  0.39482355  1
  O2-  O125  1  0.24234003  0.50016370  0.72567757  1
  O2-  O126  1  0.74824679  0.00298611  0.06276135  1
  O2-  O127  1  0.74962077  -0.00054411  0.40109440  1
  O2-  O128  1  0.74930076  0.00085919  0.72313245  1
  O2-  O129  1  0.75255213  0.50491132  0.06311413  1
  O2-  O130  1  0.75082263  0.50147184  0.38932272  1
  O2-  O131  1  0.75149849  0.49882693  0.73026359  1
  O2-  O132  1  0.00166602  0.24353573  0.27018845  1
  O2-  O133  1  -0.00513155  0.25459688  0.60761463  1
  O2-  O134  1  -0.00146597  0.24816779  0.94321261  1
  O2-  O135  1  0.00105044  0.75147436  0.27276039  1
  O2-  O136  1  0.00051466  0.74890301  0.60105516  1
  O2-  O137  1  0.00126452  0.75060483  0.94351084  1
  O2-  O138  1  0.49354889  0.24629616  0.26647123  1
  O2-  O139  1  0.50401305  0.24290136  0.60888028  1
  O2-  O140  1  0.49650659  0.25601724  0.93972323  1
  O2-  O141  1  0.50307084  0.75064602  0.27689035  1
  O2-  O142  1  0.49347557  0.75389181  0.60334479  1
  O2-  O143  1  0.50542131  0.74592246  0.94060365  1
  O2-  O144  1  0.07276105  0.18112926  0.09146996  1
  O2-  O145  1  0.07098991  0.17716378  0.41988871  1
  O2-  O146  1  0.06945596  0.18208753  0.76768305  1
  O2-  O147  1  0.06958428  0.67908553  0.09085270  1
  O2-  O148  1  0.07136488  0.67974642  0.42067578  1
  O2-  O149  1  0.07072736  0.67765772  0.76484410  1
  O2-  O150  1  0.56978369  0.17890018  0.09821550  1
  O2-  O151  1  0.56828407  0.18144630  0.43277011  1
  O2-  O152  1  0.57786124  0.17552414  0.75596437  1
  O2-  O153  1  0.57184482  0.67448673  0.08947380  1
  O2-  O154  1  0.57389763  0.67647601  0.42252503  1
  O2-  O155  1  0.56648694  0.68266675  0.76728545  1
  O2-  O156  1  0.17199248  0.43457465  0.24567529  1
  O2-  O157  1  0.17673680  0.42813225  0.57539727  1
  O2-  O158  1  0.17780452  0.43089215  0.90089575  1
  O2-  O159  1  0.17850093  0.92385496  0.24278144  1
  O2-  O160  1  0.17951963  0.93418018  0.56749664  1
  O2-  O161  1  0.17522527  0.92670410  0.91119393  1
  O2-  O162  1  0.68081796  0.43243843  0.24225573  1
  O2-  O163  1  0.67968923  0.42777859  0.56686398  1
  O2-  O164  1  0.67894134  0.43080227  0.90341728  1
  O2-  O165  1  0.67915016  0.92442094  0.23765572  1
  O2-  O166  1  0.67992137  0.92739404  0.57727596  1
  O2-  O167  1  0.68314308  0.92669238  0.89920860  1
  O2-  O168  1  0.42679544  0.32199061  0.08977780  1
  O2-  O169  1  0.43229129  0.32636671  0.42932614  1
  O2-  O170  1  0.43091237  0.31930947  0.76900875  1
  O2-  O171  1  0.42876782  0.81869278  0.09906866  1
  O2-  O172  1  0.42731811  0.81450510  0.42586616  1
  O2-  O173  1  0.43122907  0.82499569  0.75428633  1
  O2-  O174  1  0.93155119  0.32458123  0.08856269  1
  O2-  O175  1  0.93281408  0.32344433  0.43228893  1
  O2-  O176  1  0.92514328  0.31914169  0.75839202  1
  O2-  O177  1  0.93243163  0.81804195  0.09212944  1
  O2-  O178  1  0.92600344  0.81915759  0.41905915  1
  O2-  O179  1  0.92802330  0.82230507  0.76431479  1
  O2-  O180  1  0.32143638  0.06730492  0.23438754  1
  O2-  O181  1  0.32027778  0.07465653  0.56897466  1
  O2-  O182  1  0.31722020  0.07200826  0.90062883  1
  O2-  O183  1  0.31607937  0.57342679  0.23369637  1
  O2-  O184  1  0.32284613  0.56775181  0.56783603  1
  O2-  O185  1  0.32033146  0.57468541  0.91112757  1
  O2-  O186  1  0.82013919  0.06970027  0.23741105  1
  O2-  O187  1  0.81978729  0.07254713  0.57576806  1
  O2-  O188  1  0.82731209  0.06745111  0.89975229  1
  O2-  O189  1  0.82213337  0.57127988  0.24165604  1
  O2-  O190  1  0.81986058  0.56976868  0.56641193  1
  O2-  O191  1  0.82663917  0.56984315  0.91288428  1
  O2-  O192  1  0.04895602  0.08037373  0.26941015  1
  O2-  O193  1  0.03986238  0.08645030  0.59677739  1
  O2-  O194  1  0.04722818  0.08637392  0.94044139  1
  O2-  O195  1  0.04159112  0.58952263  0.26700391  1
  O2-  O196  1  0.04607690  0.57844589  0.59664682  1
  O2-  O197  1  0.04058227  0.58652470  0.93875079  1
  O2-  O198  1  0.54076370  0.07608827  0.27029024  1
  O2-  O199  1  0.55226548  0.08099506  0.60491835  1
  O2-  O200  1  0.54212151  0.08412572  0.93045491  1
  O2-  O201  1  0.54319337  0.58804663  0.26821951  1
  O2-  O202  1  0.53741780  0.58381371  0.60026353  1
  O2-  O203  1  0.54460663  0.58255130  0.93763140  1
  O2-  O204  1  0.16406112  0.20363433  0.26749484  1
  O2-  O205  1  0.16492595  0.21315025  0.59689844  1
  O2-  O206  1  0.16309903  0.21224970  0.93965095  1
  O2-  O207  1  0.16298747  0.70866329  0.26760963  1
  O2-  O208  1  0.17198768  0.70712272  0.59804209  1
  O2-  O209  1  0.16289840  0.70168794  0.93815461  1
  O2-  O210  1  0.66612864  0.20756061  0.26680419  1
  O2-  O211  1  0.66794292  0.20281821  0.60346729  1
  O2-  O212  1  0.66899522  0.21163369  0.93248089  1
  O2-  O213  1  0.66586902  0.70308756  0.26941621  1
  O2-  O214  1  0.66372301  0.71026248  0.59865747  1
  O2-  O215  1  0.66854300  0.69812366  0.93976226  1
  O2-  O216  1  0.08394846  0.46316245  0.07055713  1
  O2-  O217  1  0.08419957  0.46258907  0.39801829  1
  O2-  O218  1  0.08254373  0.44956957  0.72752511  1
  O2-  O219  1  0.08567684  0.95200835  0.06487587  1
  O2-  O220  1  0.08135340  0.94537016  0.39250294  1
  O2-  O221  1  0.07911504  0.96128517  0.73265958  1
  O2-  O222  1  0.58209513  0.46045550  0.07235234  1
  O2-  O223  1  0.58830895  0.45936020  0.39337654  1
  O2-  O224  1  0.58258544  0.46029864  0.73626132  1
  O2-  O225  1  0.57961417  0.95447672  0.06392248  1
  O2-  O226  1  0.57996476  0.95105931  0.40635905  1
  O2-  O227  1  0.58758799  0.95354560  0.72976980  1
  O2-  O228  1  0.20662916  0.33506717  0.07273791  1
  O2-  O229  1  0.19082663  0.33257617  0.39339204  1
  O2-  O230  1  0.20692979  0.33659458  0.72765647  1
  O2-  O231  1  0.20196287  0.83097122  0.06085906  1
  O2-  O232  1  0.20659515  0.83421380  0.39540794  1
  O2-  O233  1  0.20152544  0.83195774  0.73441599  1
  O2-  O234  1  0.71182368  0.33482989  0.07085835  1
  O2-  O235  1  0.70816221  0.33853902  0.39371763  1
  O2-  O236  1  0.70625307  0.32937073  0.73570910  1
  O2-  O237  1  0.70720532  0.82946640  0.06668934  1
  O2-  O238  1  0.71015928  0.82782870  0.40199591  1
  O2-  O239  1  0.70882672  0.83684896  0.72938634  1
  O2-  O240  1  0.45920634  0.42034795  0.26116228  1
  O2-  O241  1  0.46422811  0.41494174  0.60083737  1
  O2-  O242  1  0.44991260  0.41880279  0.94187765  1
  O2-  O243  1  0.45520480  0.91100574  0.27555115  1
  O2-  O244  1  0.45693309  0.91782898  0.60295788  1
  O2-  O245  1  0.46027325  0.91582739  0.92787143  1
  O2-  O246  1  0.96245407  0.41607016  0.26187212  1
  O2-  O247  1  0.94906851  0.41567313  0.60694010  1
  O2-  O248  1  0.96163266  0.41339123  0.93648646  1
  O2-  O249  1  0.95452259  0.91306490  0.26723204  1
  O2-  O250  1  0.95762759  0.91837627  0.59408530  1
  O2-  O251  1  0.95778611  0.91317634  0.94031854  1
  O2-  O252  1  0.32358397  0.30399189  0.26905222  1
  O2-  O253  1  0.33516008  0.29350394  0.59798714  1
  O2-  O254  1  0.33184863  0.29595489  0.94074921  1
  O2-  O255  1  0.33855213  0.78733403  0.27162126  1
  O2-  O256  1  0.33217987  0.80335999  0.60607205  1
  O2-  O257  1  0.33332921  0.79096400  0.92982624  1
  O2-  O258  1  0.83310723  0.29177518  0.26430038  1
  O2-  O259  1  0.83264410  0.29402369  0.60577693  1
  O2-  O260  1  0.83695118  0.29931980  0.93650949  1
  O2-  O261  1  0.83758127  0.78869933  0.26549846  1
  O2-  O262  1  0.83091079  0.79203542  0.59482858  1
  O2-  O263  1  0.83824298  0.79310513  0.93991571  1
  O2-  O264  1  0.41667570  0.03649925  0.06522905  1
  O2-  O265  1  0.41299957  0.03794566  0.40495388  1
  O2-  O266  1  0.42212914  0.04713045  0.73392334  1
  O2-  O267  1  0.41537537  0.55233919  0.06326324  1
  O2-  O268  1  0.41972288  0.54238349  0.39840334  1
  O2-  O269  1  0.41456606  0.53692674  0.73781738  1
  O2-  O270  1  0.92085828  0.04182744  0.06967377  1
  O2-  O271  1  0.92056012  0.04296510  0.40100605  1
  O2-  O272  1  0.91315157  0.04215261  0.72609842  1
  O2-  O273  1  0.91539340  0.54302059  0.06637792  1
  O2-  O274  1  0.91485788  0.54206398  0.39261418  1
  O2-  O275  1  0.92108320  0.54657719  0.73363138  1
  O2-  O276  1  0.28821465  0.16422980  0.07032737  1
  O2-  O277  1  0.29040722  0.17046719  0.39861656  1
  O2-  O278  1  0.28988892  0.17242616  0.73416780  1
  O2-  O279  1  0.29202824  0.66690215  0.06275873  1
  O2-  O280  1  0.28686320  0.66409268  0.40208519  1
  O2-  O281  1  0.29501785  0.66952576  0.73413338  1
  O2-  O282  1  0.80086790  0.17266541  0.06255412  1
  O2-  O283  1  0.79360422  0.17158102  0.40262145  1
  O2-  O284  1  0.79585124  0.16207534  0.73024457  1
  O2-  O285  1  0.80041723  0.66522828  0.06409317  1
  O2-  O286  1  0.79768680  0.66326283  0.39337677  1
  O2-  O287  1  0.79184329  0.67046619  0.73266613  1
