# generated using pymatgen
data_Ca2Al2SiO7
_symmetry_space_group_name_H-M   'P 1'
_cell_length_a   15.45913434
_cell_length_b   15.45848226
_cell_length_c   15.28502841
_cell_angle_alpha   89.99126151
_cell_angle_beta   90.00125118
_cell_angle_gamma   89.98886603
_symmetry_Int_Tables_number   1
_chemical_formula_structural   Ca2Al2SiO7
_chemical_formula_sum   'Ca48 Al48 Si24 O168'
_cell_volume   3652.73579041
_cell_formula_units_Z   24
loop_
 _symmetry_equiv_pos_site_id
 _symmetry_equiv_pos_as_xyz
  1  'x, y, z'
loop_
 _atom_type_symbol
 _atom_type_oxidation_number
  Ca2+  2.0
  Al0+  0.0
  Si0+  0.0
  O2-  -2.0
loop_
 _atom_site_type_symbol
 _atom_site_label
 _atom_site_symmetry_multiplicity
 _atom_site_fract_x
 _atom_site_fract_y
 _atom_site_fract_z
 _atom_site_occupancy
  Ca2+  Ca0  1  0.16087150  0.07980531  0.17359545  1
  Ca2+  Ca1  1  0.16627116  0.08944579  0.49855827  1
  Ca2+  Ca2  1  0.16017816  0.08023929  0.84111738  1
  Ca2+  Ca3  1  0.16366371  0.57483845  0.17442662  1
  Ca2+  Ca4  1  0.17129686  0.58162647  0.50078019  1
  Ca2+  Ca5  1  0.16820575  0.58006154  0.84321409  1
  Ca2+  Ca6  1  0.67320391  0.08310035  0.17369814  1
  Ca2+  Ca7  1  0.67586811  0.08287212  0.49957682  1
  Ca2+  Ca8  1  0.66778744  0.08389955  0.84264811  1
  Ca2+  Ca9  1  0.67279866  0.57899188  0.17988553  1
  Ca2+  Ca10  1  0.67217721  0.58454225  0.50103135  1
  Ca2+  Ca11  1  0.67266083  0.58689352  0.83163631  1
  Ca2+  Ca12  1  0.08674371  0.32711705  0.16037354  1
  Ca2+  Ca13  1  0.08472580  0.32691042  0.49422199  1
  Ca2+  Ca14  1  0.07979147  0.33015405  0.83186610  1
  Ca2+  Ca15  1  0.07792400  0.82326785  0.16169733  1
  Ca2+  Ca16  1  0.07673559  0.82259620  0.48860733  1
  Ca2+  Ca17  1  0.08352851  0.83143583  0.83807008  1
  Ca2+  Ca18  1  0.57655632  0.33548703  0.16638159  1
  Ca2+  Ca19  1  0.57526542  0.34190575  0.49075538  1
  Ca2+  Ca20  1  0.58478912  0.32713611  0.83279910  1
  Ca2+  Ca21  1  0.57655487  0.82751355  0.16495735  1
  Ca2+  Ca22  1  0.58289423  0.81843689  0.49386711  1
  Ca2+  Ca23  1  0.57412803  0.82835766  0.82976495  1
  Ca2+  Ca24  1  0.32187128  0.41768486  0.17708090  1
  Ca2+  Ca25  1  0.32926428  0.42350847  0.49505155  1
  Ca2+  Ca26  1  0.32662518  0.42497477  0.83809583  1
  Ca2+  Ca27  1  0.32926354  0.92056858  0.16841384  1
  Ca2+  Ca28  1  0.33342090  0.92423770  0.50011955  1
  Ca2+  Ca29  1  0.32609447  0.91686924  0.84507826  1
  Ca2+  Ca30  1  0.82881321  0.41919889  0.17482047  1
  Ca2+  Ca31  1  0.83538243  0.42874224  0.50295682  1
  Ca2+  Ca32  1  0.84366037  0.41839158  0.83556090  1
  Ca2+  Ca33  1  0.84304649  0.92085758  0.17361575  1
  Ca2+  Ca34  1  0.84272847  0.92212496  0.49696253  1
  Ca2+  Ca35  1  0.83417200  0.91732585  0.84042162  1
  Ca2+  Ca36  1  0.41780102  0.16976670  0.16730740  1
  Ca2+  Ca37  1  0.41472691  0.17518385  0.48785349  1
  Ca2+  Ca38  1  0.42239944  0.16562676  0.83356004  1
  Ca2+  Ca39  1  0.42094924  0.66266622  0.16569402  1
  Ca2+  Ca40  1  0.42470714  0.65224949  0.49356955  1
  Ca2+  Ca41  1  0.41635444  0.67052369  0.82691123  1
  Ca2+  Ca42  1  0.92499866  0.17160590  0.16204290  1
  Ca2+  Ca43  1  0.92582403  0.17121204  0.49368322  1
  Ca2+  Ca44  1  0.92823354  0.17969190  0.82929524  1
  Ca2+  Ca45  1  0.92355401  0.66994338  0.16467276  1
  Ca2+  Ca46  1  0.91408770  0.66972826  0.48853535  1
  Ca2+  Ca47  1  0.92228977  0.66615453  0.83305193  1
  Al0+  Al48  1  -0.00019532  -0.00031641  -0.00179258  1
  Al0+  Al49  1  -0.00013722  0.00051852  0.33306102  1
  Al0+  Al50  1  0.00040215  0.00050479  0.66524380  1
  Al0+  Al51  1  0.00083545  0.50103021  -0.00127514  1
  Al0+  Al52  1  -0.00147512  0.49838058  0.33873598  1
  Al0+  Al53  1  -0.00031395  0.50019213  0.66798326  1
  Al0+  Al54  1  0.50093138  -0.00137518  -0.00662458  1
  Al0+  Al55  1  0.49985043  -0.00053773  0.33929627  1
  Al0+  Al56  1  0.49970613  -0.00061003  0.66682574  1
  Al0+  Al57  1  0.50224958  0.49929844  -0.00200378  1
  Al0+  Al58  1  0.49844648  0.49856349  0.32794874  1
  Al0+  Al59  1  0.50051584  0.49960263  0.67058882  1
  Al0+  Al60  1  0.25294763  0.25116240  -0.00190073  1
  Al0+  Al61  1  0.25101805  0.24940889  0.33238644  1
  Al0+  Al62  1  0.25202859  0.24910855  0.66634763  1
  Al0+  Al63  1  0.25151983  0.75235816  -0.00158654  1
  Al0+  Al64  1  0.25015923  0.75072414  0.33435869  1
  Al0+  Al65  1  0.24991616  0.75295259  0.66970691  1
  Al0+  Al66  1  0.74948647  0.25046327  -0.00673190  1
  Al0+  Al67  1  0.74941512  0.24741584  0.34364824  1
  Al0+  Al68  1  0.75100953  0.25003811  0.66344534  1
  Al0+  Al69  1  0.74928638  0.75063356  -0.00159936  1
  Al0+  Al70  1  0.74697525  0.75103413  0.32709739  1
  Al0+  Al71  1  0.74817013  0.74967182  0.66845914  1
  Al0+  Al72  1  0.32091831  0.06996822  0.34566782  1
  Al0+  Al73  1  0.56879011  0.67982363  0.65283301  1
  Al0+  Al74  1  0.92853467  0.82054972  0.31902762  1
  Al0+  Al75  1  0.07146590  0.67906092  0.98495834  1
  Al0+  Al76  1  0.07289494  0.67527856  0.32003855  1
  Al0+  Al77  1  0.92837033  0.32196026  0.98720605  1
  Al0+  Al78  1  0.56981639  0.17998619  0.98865296  1
  Al0+  Al79  1  0.07198972  0.17851358  0.64955352  1
  Al0+  Al80  1  0.92904939  0.32347518  0.64787231  1
  Al0+  Al81  1  0.07070471  0.18166178  0.31879252  1
  Al0+  Al82  1  0.92772302  0.82135897  0.98409135  1
  Al0+  Al83  1  0.82118927  0.57191924  0.68256478  1
  Al0+  Al84  1  0.56837958  0.67828983  0.31863927  1
  Al0+  Al85  1  0.17933789  0.42951902  0.01316446  1
  Al0+  Al86  1  0.67761688  0.42815145  0.34714257  1
  Al0+  Al87  1  0.17780995  0.93027124  0.01538643  1
  Al0+  Al88  1  0.42996078  0.32025003  0.31925710  1
  Al0+  Al89  1  0.82261687  0.06984168  0.34706931  1
  Al0+  Al90  1  0.43043338  0.81956214  0.98718904  1
  Al0+  Al91  1  0.17674267  0.42726058  0.34843597  1
  Al0+  Al92  1  0.31991888  0.57270880  0.34547470  1
  Al0+  Al93  1  0.81994146  0.57237793  0.34638636  1
  Al0+  Al94  1  0.07380355  0.17889351  0.98634142  1
  Al0+  Al95  1  0.32135493  0.57106751  0.68119859  1
  Si0+  Si96  1  0.92818252  0.82002091  0.65251537  1
  Si0+  Si97  1  0.42828012  0.32391270  0.98092218  1
  Si0+  Si98  1  0.32464983  0.07143275  0.01555207  1
  Si0+  Si99  1  0.82121417  0.07078964  0.68394715  1
  Si0+  Si100  1  0.67742355  0.92864424  0.01481947  1
  Si0+  Si101  1  0.67625514  0.92799565  0.35070290  1
  Si0+  Si102  1  0.57246911  0.67586937  0.98180900  1
  Si0+  Si103  1  0.17744510  0.92845731  0.35099678  1
  Si0+  Si104  1  0.81889759  0.07079040  0.01322143  1
  Si0+  Si105  1  0.67920257  0.42736600  0.01423075  1
  Si0+  Si106  1  0.57177225  0.17626408  0.65010330  1
  Si0+  Si107  1  0.17924898  0.42753076  0.68424175  1
  Si0+  Si108  1  0.32375788  0.57281152  0.01588944  1
  Si0+  Si109  1  0.07268813  0.68015567  0.65322958  1
  Si0+  Si110  1  0.42757027  0.82561925  0.31783961  1
  Si0+  Si111  1  0.43153508  0.31950837  0.65246792  1
  Si0+  Si112  1  0.67810517  0.42707215  0.68542790  1
  Si0+  Si113  1  0.67872280  0.93009071  0.68307670  1
  Si0+  Si114  1  0.57312719  0.17562992  0.31976613  1
  Si0+  Si115  1  0.17878624  0.93067001  0.68232911  1
  Si0+  Si116  1  0.92493117  0.32139113  0.31867431  1
  Si0+  Si117  1  0.82013820  0.57172417  0.01488517  1
  Si0+  Si118  1  0.42594992  0.82274252  0.64800549  1
  Si0+  Si119  1  0.32256800  0.07163873  0.68337213  1
  O2-  O120  1  0.24991256  0.00946844  0.05935817  1
  O2-  O121  1  0.24713354  -0.00377181  0.39566101  1
  O2-  O122  1  0.24996534  0.00229247  0.72458652  1
  O2-  O123  1  0.25475613  0.50444859  0.05856706  1
  O2-  O124  1  0.24402032  0.50526585  0.39655946  1
  O2-  O125  1  0.24434695  0.49977009  0.72895986  1
  O2-  O126  1  0.75116736  -0.00343819  0.05659577  1
  O2-  O127  1  0.74836432  -0.00620190  0.39424702  1
  O2-  O128  1  0.74811326  0.00196982  0.72722253  1
  O2-  O129  1  0.74887907  0.49974830  0.05536976  1
  O2-  O130  1  0.74961166  0.49928589  0.39804531  1
  O2-  O131  1  0.74976929  0.49300343  0.72956272  1
  O2-  O132  1  -0.00321079  0.25717032  0.27302873  1
  O2-  O133  1  0.00213775  0.25201690  0.59923056  1
  O2-  O134  1  0.00410458  0.25339349  0.93741685  1
  O2-  O135  1  -0.00108028  0.74627776  0.27126073  1
  O2-  O136  1  -0.00243569  0.74726448  0.61144123  1
  O2-  O137  1  -0.00068878  0.75029961  0.93250631  1
  O2-  O138  1  0.50691394  0.24584355  0.27523858  1
  O2-  O139  1  0.50217104  0.24821385  0.60902374  1
  O2-  O140  1  0.49602773  0.25341837  0.93774419  1
  O2-  O141  1  0.49144031  0.75221111  0.27420904  1
  O2-  O142  1  0.49114191  0.75105200  0.60452219  1
  O2-  O143  1  0.50091711  0.74182494  0.93845583  1
  O2-  O144  1  0.07054565  0.17825124  0.09966088  1
  O2-  O145  1  0.06963571  0.18131010  0.43190156  1
  O2-  O146  1  0.07065474  0.17652860  0.76296796  1
  O2-  O147  1  0.06912166  0.67786471  0.09783748  1
  O2-  O148  1  0.07341312  0.68008520  0.43456654  1
  O2-  O149  1  0.07383945  0.68331315  0.75819898  1
  O2-  O150  1  0.57056251  0.18029152  0.10126090  1
  O2-  O151  1  0.56990273  0.17377609  0.42567401  1
  O2-  O152  1  0.57041961  0.17487365  0.75556371  1
  O2-  O153  1  0.57285858  0.67586060  0.08708144  1
  O2-  O154  1  0.56864905  0.67981368  0.43198799  1
  O2-  O155  1  0.56817468  0.68436588  0.76619045  1
  O2-  O156  1  0.18001104  0.42523386  0.23480867  1
  O2-  O157  1  0.18186113  0.42610276  0.57904803  1
  O2-  O158  1  0.18242093  0.43089448  0.89945754  1
  O2-  O159  1  0.17776873  0.92973878  0.24563734  1
  O2-  O160  1  0.18002302  0.92911082  0.57753163  1
  O2-  O161  1  0.18077629  0.93117272  0.90137224  1
  O2-  O162  1  0.67948724  0.42801345  0.23276994  1
  O2-  O163  1  0.67431452  0.42882388  0.58050033  1
  O2-  O164  1  0.67712373  0.42746448  0.90908336  1
  O2-  O165  1  0.67117465  0.93153142  0.24517794  1
  O2-  O166  1  0.67810371  0.93136221  0.57832651  1
  O2-  O167  1  0.67666262  0.93070632  0.90921269  1
  O2-  O168  1  0.42968080  0.32561267  0.08594063  1
  O2-  O169  1  0.43086436  0.31902243  0.43304616  1
  O2-  O170  1  0.43290049  0.31673262  0.75784817  1
  O2-  O171  1  0.43418805  0.82228775  0.09986165  1
  O2-  O172  1  0.43185373  0.83019809  0.42345317  1
  O2-  O173  1  0.42792833  0.82509804  0.75372865  1
  O2-  O174  1  0.92206319  0.31818916  0.10030710  1
  O2-  O175  1  0.92452431  0.31812564  0.42410030  1
  O2-  O176  1  0.93033449  0.32071804  0.76164380  1
  O2-  O177  1  0.92628034  0.81980148  0.09677316  1
  O2-  O178  1  0.93074581  0.82113474  0.43371487  1
  O2-  O179  1  0.92877972  0.82215836  0.75739713  1
  O2-  O180  1  0.32396479  0.06716799  0.23290425  1
  O2-  O181  1  0.32576642  0.07072333  0.57857307  1
  O2-  O182  1  0.32758974  0.06771276  0.90931620  1
  O2-  O183  1  0.32184731  0.56943247  0.23193465  1
  O2-  O184  1  0.32160471  0.56812124  0.56883502  1
  O2-  O185  1  0.32465630  0.57066673  0.90962998  1
  O2-  O186  1  0.81988577  0.07083257  0.23364111  1
  O2-  O187  1  0.82088754  0.06768087  0.57900926  1
  O2-  O188  1  0.81476286  0.06962898  0.90769558  1
  O2-  O189  1  0.81771031  0.57125177  0.23238395  1
  O2-  O190  1  0.81785684  0.57633579  0.57025250  1
  O2-  O191  1  0.81781979  0.57266817  0.90943975  1
  O2-  O192  1  0.03815707  0.08478583  0.26731318  1
  O2-  O193  1  0.04137146  0.07984487  0.59727513  1
  O2-  O194  1  0.04162563  0.08214706  0.93270705  1
  O2-  O195  1  0.04549528  0.57561298  0.26988071  1
  O2-  O196  1  0.05051610  0.58617375  0.60944834  1
  O2-  O197  1  0.04182659  0.58215213  0.92970668  1
  O2-  O198  1  0.54507220  0.08265511  0.27377723  1
  O2-  O199  1  0.54319650  0.08433346  0.60354862  1
  O2-  O200  1  0.53997168  0.08489909  0.92992897  1
  O2-  O201  1  0.53827789  0.58353969  0.26164901  1
  O2-  O202  1  0.54094504  0.58099746  0.60257673  1
  O2-  O203  1  0.55107502  0.58135967  0.93515221  1
  O2-  O204  1  0.16797208  0.20813232  0.26554136  1
  O2-  O205  1  0.17334812  0.20361178  0.60047743  1
  O2-  O206  1  0.17402483  0.20239907  0.93378291  1
  O2-  O207  1  0.17135466  0.70501588  0.26770557  1
  O2-  O208  1  0.16292052  0.71311924  0.60563173  1
  O2-  O209  1  0.16993356  0.70830188  0.93235097  1
  O2-  O210  1  0.66843596  0.19775952  0.27658162  1
  O2-  O211  1  0.66476041  0.20035289  0.60440264  1
  O2-  O212  1  0.66348690  0.21163939  0.92873499  1
  O2-  O213  1  0.66215699  0.71176096  0.26115902  1
  O2-  O214  1  0.66434513  0.71550402  0.59980512  1
  O2-  O215  1  0.66421629  0.70608546  0.93497249  1
  O2-  O216  1  0.08204894  0.45850711  0.06632112  1
  O2-  O217  1  0.07780116  0.44830704  0.40286004  1
  O2-  O218  1  0.08465036  0.45070613  0.72869300  1
  O2-  O219  1  0.07978081  0.95749675  0.06811840  1
  O2-  O220  1  0.08533388  0.95639747  0.39849709  1
  O2-  O221  1  0.08657551  0.95827247  0.72969499  1
  O2-  O222  1  0.58639582  0.45382095  0.06121684  1
  O2-  O223  1  0.57945416  0.45909312  0.39809801  1
  O2-  O224  1  0.58637160  0.45500543  0.73498228  1
  O2-  O225  1  0.58703186  0.96046408  0.06202839  1
  O2-  O226  1  0.58597487  0.95639223  0.40243419  1
  O2-  O227  1  0.58590288  0.95750913  0.73070510  1
  O2-  O228  1  0.21145419  0.33214320  0.06538744  1
  O2-  O229  1  0.21432728  0.33213381  0.40229947  1
  O2-  O230  1  0.21031810  0.33490483  0.73050071  1
  O2-  O231  1  0.21303632  0.83461202  0.06831056  1
  O2-  O232  1  0.20256573  0.83534010  0.39854776  1
  O2-  O233  1  0.20700930  0.84008544  0.73237036  1
  O2-  O234  1  0.70690384  0.33523559  0.06047259  1
  O2-  O235  1  0.69839237  0.32899519  0.40205232  1
  O2-  O236  1  0.70053843  0.33067699  0.72889943  1
  O2-  O237  1  0.70033685  0.83508254  0.06081431  1
  O2-  O238  1  0.69986743  0.83352762  0.39475108  1
  O2-  O239  1  0.70718148  0.83934899  0.73170989  1
  O2-  O240  1  0.46086837  0.41362194  0.26045432  1
  O2-  O241  1  0.46073614  0.41113607  0.60681035  1
  O2-  O242  1  0.45759424  0.41611753  0.93279672  1
  O2-  O243  1  0.46000859  0.91668808  0.27007180  1
  O2-  O244  1  0.45589572  0.91594561  0.60262978  1
  O2-  O245  1  0.46512185  0.91292892  0.92791359  1
  O2-  O246  1  0.94424531  0.41713812  0.27590630  1
  O2-  O247  1  0.95486578  0.42383370  0.59814617  1
  O2-  O248  1  0.95464833  0.42035538  0.93398644  1
  O2-  O249  1  0.95969141  0.91814795  0.26695898  1
  O2-  O250  1  0.95794062  0.91145347  0.60535131  1
  O2-  O251  1  0.95503853  0.91970729  0.93041175  1
  O2-  O252  1  0.33632905  0.28496210  0.26371557  1
  O2-  O253  1  0.34022998  0.29133842  0.60530457  1
  O2-  O254  1  0.33615103  0.29893318  0.93224662  1
  O2-  O255  1  0.33192161  0.80680227  0.27474909  1
  O2-  O256  1  0.33053847  0.80275546  0.60425838  1
  O2-  O257  1  0.33429783  0.79344179  0.93036688  1
  O2-  O258  1  0.83144948  0.29062088  0.27479706  1
  O2-  O259  1  0.82953865  0.29454734  0.59752680  1
  O2-  O260  1  0.83256862  0.29088148  0.92917717  1
  O2-  O261  1  0.82856051  0.80012870  0.26650184  1
  O2-  O262  1  0.83541060  0.79473685  0.60667474  1
  O2-  O263  1  0.82799033  0.79471230  0.93098737  1
  O2-  O264  1  0.41628823  0.03810537  0.06107564  1
  O2-  O265  1  0.41640921  0.03993540  0.40440699  1
  O2-  O266  1  0.41446621  0.04199637  0.73144681  1
  O2-  O267  1  0.41891509  0.54635972  0.05915684  1
  O2-  O268  1  0.41611253  0.53578095  0.39778370  1
  O2-  O269  1  0.41653622  0.53781476  0.73769108  1
  O2-  O270  1  0.91125118  0.04545827  0.05943277  1
  O2-  O271  1  0.91730079  0.03673070  0.40429081  1
  O2-  O272  1  0.91238310  0.03974622  0.73065850  1
  O2-  O273  1  0.91216112  0.54535647  0.06085146  1
  O2-  O274  1  0.91751362  0.54701053  0.40212302  1
  O2-  O275  1  0.91934518  0.54438678  0.73642663  1
  O2-  O276  1  0.30909590  0.16872447  0.05640500  1
  O2-  O277  1  0.29034335  0.16537744  0.40130388  1
  O2-  O278  1  0.29887299  0.16434404  0.73112773  1
  O2-  O279  1  0.30243242  0.66775232  0.05909266  1
  O2-  O280  1  0.30139500  0.67339491  0.39935124  1
  O2-  O281  1  0.29415326  0.67040444  0.73304672  1
  O2-  O282  1  0.78600809  0.16163298  0.05891483  1
  O2-  O283  1  0.79017787  0.16240867  0.40780512  1
  O2-  O284  1  0.79347045  0.16358168  0.72935428  1
  O2-  O285  1  0.79044121  0.66346938  0.06125070  1
  O2-  O286  1  0.78864349  0.67160081  0.39686727  1
  O2-  O287  1  0.78550203  0.66725902  0.73798244  1
