# generated using pymatgen
data_Ca2Al2SiO7
_symmetry_space_group_name_H-M   'P 1'
_cell_length_a   15.45491241
_cell_length_b   15.45431633
_cell_length_c   15.28117671
_cell_angle_alpha   89.99809003
_cell_angle_beta   90.00905725
_cell_angle_gamma   89.98849866
_symmetry_Int_Tables_number   1
_chemical_formula_structural   Ca2Al2SiO7
_chemical_formula_sum   'Ca48 Al48 Si24 O168'
_cell_volume   3649.83413587
_cell_formula_units_Z   24
loop_
 _symmetry_equiv_pos_site_id
 _symmetry_equiv_pos_as_xyz
  1  'x, y, z'
loop_
 _atom_type_symbol
 _atom_type_oxidation_number
  Ca2+  2.0
  Al0+  0.0
  Si0+  0.0
  O2-  -2.0
loop_
 _atom_site_type_symbol
 _atom_site_label
 _atom_site_symmetry_multiplicity
 _atom_site_fract_x
 _atom_site_fract_y
 _atom_site_fract_z
 _atom_site_occupancy
  Ca2+  Ca0  1  0.15819320  0.07532298  0.17123882  1
  Ca2+  Ca1  1  0.15797951  0.07933130  0.50101672  1
  Ca2+  Ca2  1  0.16754049  0.08184184  0.84152469  1
  Ca2+  Ca3  1  0.16958059  0.58015329  0.16981491  1
  Ca2+  Ca4  1  0.17650508  0.58220298  0.50123109  1
  Ca2+  Ca5  1  0.16827700  0.57715971  0.84612413  1
  Ca2+  Ca6  1  0.66544073  0.07614991  0.17485604  1
  Ca2+  Ca7  1  0.66539709  0.08293216  0.49664776  1
  Ca2+  Ca8  1  0.66406455  0.07899914  0.84570328  1
  Ca2+  Ca9  1  0.66647773  0.57812193  0.17043979  1
  Ca2+  Ca10  1  0.67722718  0.58989477  0.50546817  1
  Ca2+  Ca11  1  0.66609795  0.58321249  0.83834068  1
  Ca2+  Ca12  1  0.07774229  0.32434942  0.15680414  1
  Ca2+  Ca13  1  0.08421530  0.31873764  0.49336488  1
  Ca2+  Ca14  1  0.08424809  0.32652299  0.83343507  1
  Ca2+  Ca15  1  0.07959009  0.83376070  0.16154865  1
  Ca2+  Ca16  1  0.07454294  0.83447199  0.48870825  1
  Ca2+  Ca17  1  0.08815448  0.82758612  0.83606425  1
  Ca2+  Ca18  1  0.58668384  0.32414185  0.16131117  1
  Ca2+  Ca19  1  0.57298100  0.33133519  0.49178448  1
  Ca2+  Ca20  1  0.58279366  0.33159344  0.83306154  1
  Ca2+  Ca21  1  0.58215248  0.83077871  0.15563159  1
  Ca2+  Ca22  1  0.58300114  0.83134077  0.49774741  1
  Ca2+  Ca23  1  0.57732148  0.82850081  0.83131650  1
  Ca2+  Ca24  1  0.33032957  0.42033395  0.17234149  1
  Ca2+  Ca25  1  0.34142995  0.41733531  0.50082843  1
  Ca2+  Ca26  1  0.33006862  0.41518108  0.83946045  1
  Ca2+  Ca27  1  0.32256141  0.91224714  0.16901304  1
  Ca2+  Ca28  1  0.32766860  0.91591036  0.50276950  1
  Ca2+  Ca29  1  0.33285699  0.91334548  0.84188818  1
  Ca2+  Ca30  1  0.83140621  0.41807371  0.16783129  1
  Ca2+  Ca31  1  0.83456529  0.42927222  0.50457708  1
  Ca2+  Ca32  1  0.83063598  0.42146989  0.84301721  1
  Ca2+  Ca33  1  0.82239548  0.91912834  0.17704338  1
  Ca2+  Ca34  1  0.82998017  0.91896774  0.49400457  1
  Ca2+  Ca35  1  0.82451872  0.92038283  0.84068897  1
  Ca2+  Ca36  1  0.42725106  0.16772383  0.16616803  1
  Ca2+  Ca37  1  0.41927446  0.17981280  0.49123481  1
  Ca2+  Ca38  1  0.42255807  0.17067353  0.83156234  1
  Ca2+  Ca39  1  0.41945857  0.67165612  0.15855544  1
  Ca2+  Ca40  1  0.42183736  0.66783224  0.49693922  1
  Ca2+  Ca41  1  0.42670082  0.67676524  0.83076329  1
  Ca2+  Ca42  1  0.92304059  0.16477842  0.16146004  1
  Ca2+  Ca43  1  0.92470605  0.15937566  0.49197236  1
  Ca2+  Ca44  1  0.92614634  0.17199894  0.83458572  1
  Ca2+  Ca45  1  0.91673742  0.67158734  0.16370218  1
  Ca2+  Ca46  1  0.91126176  0.67027831  0.49243661  1
  Ca2+  Ca47  1  0.92119744  0.66282470  0.83281349  1
  Al0+  Al48  1  0.00064620  0.00024402  -0.00228150  1
  Al0+  Al49  1  -0.00296345  -0.00302676  0.33210108  1
  Al0+  Al50  1  -0.00080725  -0.00155371  0.66679207  1
  Al0+  Al51  1  0.00073778  0.50080157  -0.00190532  1
  Al0+  Al52  1  0.00196339  0.49859849  0.33954195  1
  Al0+  Al53  1  0.00048735  0.49942548  0.67054490  1
  Al0+  Al54  1  0.49904860  0.00147415  -0.00281976  1
  Al0+  Al55  1  0.49684165  -0.00048396  0.33593039  1
  Al0+  Al56  1  0.49804785  -0.00026434  0.66391027  1
  Al0+  Al57  1  0.50201723  0.50087849  0.00128354  1
  Al0+  Al58  1  0.49831630  0.50136736  0.33376347  1
  Al0+  Al59  1  0.50128473  0.50095295  0.66087968  1
  Al0+  Al60  1  0.25066305  0.25008708  0.00292436  1
  Al0+  Al61  1  0.24932417  0.24903376  0.32363733  1
  Al0+  Al62  1  0.25022473  0.24761600  0.65880707  1
  Al0+  Al63  1  0.24927304  0.75144903  -0.00348690  1
  Al0+  Al64  1  0.24992039  0.74820363  0.34344069  1
  Al0+  Al65  1  0.25007425  0.74892455  0.66491733  1
  Al0+  Al66  1  0.75109333  0.25222562  -0.00493080  1
  Al0+  Al67  1  0.75054784  0.24981424  0.33659490  1
  Al0+  Al68  1  0.75225181  0.25073225  0.66722260  1
  Al0+  Al69  1  0.75050747  0.75098451  -0.00065807  1
  Al0+  Al70  1  0.74954732  0.75029930  0.33588025  1
  Al0+  Al71  1  0.75167730  0.75076544  0.67035777  1
  Al0+  Al72  1  0.57115639  0.17986572  0.98700421  1
  Al0+  Al73  1  0.17968335  0.92951442  0.01274141  1
  Al0+  Al74  1  0.42904695  0.32402342  0.31424481  1
  Al0+  Al75  1  0.06809404  0.17742717  0.31786783  1
  Al0+  Al76  1  0.07034324  0.68013178  0.98865240  1
  Al0+  Al77  1  0.67493141  0.92830996  0.34933158  1
  Al0+  Al78  1  0.32122189  0.56995601  0.34771895  1
  Al0+  Al79  1  0.82142432  0.57198745  0.68374702  1
  Al0+  Al80  1  0.17847643  0.92991485  0.34760612  1
  Al0+  Al81  1  0.42721270  0.82197656  0.64829775  1
  Al0+  Al82  1  0.43016804  0.31949607  0.65436056  1
  Al0+  Al83  1  0.92827691  0.81783635  0.31925056  1
  Al0+  Al84  1  0.67812522  0.92971881  0.01218981  1
  Al0+  Al85  1  0.67886261  0.42917738  0.01351296  1
  Al0+  Al86  1  0.06848623  0.17913150  0.65193045  1
  Al0+  Al87  1  0.17823330  0.42783899  0.01347522  1
  Al0+  Al88  1  0.07280713  0.17745708  0.98456666  1
  Al0+  Al89  1  0.57356826  0.67746944  0.98614518  1
  Al0+  Al90  1  0.82011782  0.07163278  0.34742613  1
  Al0+  Al91  1  0.42846657  0.82159433  0.98720452  1
  Al0+  Al92  1  0.92905693  0.32244781  0.98504575  1
  Al0+  Al93  1  0.57214462  0.17865344  0.31885957  1
  Al0+  Al94  1  0.57256006  0.68106398  0.64994608  1
  Al0+  Al95  1  0.82080532  0.56987290  0.34544227  1
  Si0+  Si96  1  0.42844726  0.32328630  0.98483268  1
  Si0+  Si97  1  0.92778200  0.32341728  0.64861914  1
  Si0+  Si98  1  0.92741447  0.82262594  0.98238940  1
  Si0+  Si99  1  0.32134049  0.57160415  0.01426654  1
  Si0+  Si100  1  0.82303411  0.07158950  0.68329244  1
  Si0+  Si101  1  0.93089787  0.81968297  0.65216111  1
  Si0+  Si102  1  0.42592724  0.82003951  0.31946836  1
  Si0+  Si103  1  0.82152053  0.07232127  0.01437125  1
  Si0+  Si104  1  0.18174170  0.42756064  0.68049613  1
  Si0+  Si105  1  0.57120806  0.68125382  0.31844486  1
  Si0+  Si106  1  0.92835894  0.32543101  0.31878358  1
  Si0+  Si107  1  0.82293499  0.57270042  0.01713861  1
  Si0+  Si108  1  0.31976399  0.07126343  0.68047203  1
  Si0+  Si109  1  0.32295558  0.07379074  0.01757562  1
  Si0+  Si110  1  0.17900903  0.42548297  0.35108208  1
  Si0+  Si111  1  0.67746909  0.42759889  0.35070736  1
  Si0+  Si112  1  0.67859458  0.93171244  0.68276734  1
  Si0+  Si113  1  0.32056311  0.07296411  0.35055001  1
  Si0+  Si114  1  0.07397947  0.67682955  0.31949580  1
  Si0+  Si115  1  0.32231744  0.57120208  0.68341131  1
  Si0+  Si116  1  0.57490408  0.17672466  0.65080036  1
  Si0+  Si117  1  0.17791683  0.92849803  0.68238058  1
  Si0+  Si118  1  0.07144337  0.67619386  0.65131595  1
  Si0+  Si119  1  0.67745239  0.42814231  0.68294936  1
  O2-  O120  1  0.25181992  0.00619870  0.05987387  1
  O2-  O121  1  0.25034571  0.00632071  0.39647600  1
  O2-  O122  1  0.25186519  -0.00293652  0.72333625  1
  O2-  O123  1  0.25427954  0.50172147  0.05914211  1
  O2-  O124  1  0.24944089  0.49236520  0.39588188  1
  O2-  O125  1  0.25141465  0.49943621  0.72460161  1
  O2-  O126  1  0.75251390  0.00431843  0.05857282  1
  O2-  O127  1  0.74444502  0.00362026  0.39893799  1
  O2-  O128  1  0.74525120  0.00755022  0.72479127  1
  O2-  O129  1  0.75235225  0.50542338  0.06020140  1
  O2-  O130  1  0.74762964  0.49502152  0.39501878  1
  O2-  O131  1  0.74685965  0.49608625  0.72758691  1
  O2-  O132  1  -0.00657925  0.25352127  0.27460569  1
  O2-  O133  1  -0.00685189  0.25228228  0.60366269  1
  O2-  O134  1  0.00327448  0.25209064  0.93513440  1
  O2-  O135  1  0.00315749  0.74240555  0.27461402  1
  O2-  O136  1  0.00075288  0.74731730  0.60941741  1
  O2-  O137  1  -0.00397891  0.75363275  0.93824304  1
  O2-  O138  1  0.50352001  0.25314017  0.26731126  1
  O2-  O139  1  0.50861439  0.24833899  0.60833420  1
  O2-  O140  1  0.49733404  0.25533029  0.93976089  1
  O2-  O141  1  0.50023589  0.75278721  0.27704792  1
  O2-  O142  1  0.50002876  0.75141350  0.59762922  1
  O2-  O143  1  0.50301783  0.75178724  0.93782867  1
  O2-  O144  1  0.06836357  0.17569653  0.09771551  1
  O2-  O145  1  0.06750805  0.17868017  0.43169101  1
  O2-  O146  1  0.06966592  0.17993825  0.76449712  1
  O2-  O147  1  0.06990918  0.68114655  0.10160030  1
  O2-  O148  1  0.07358514  0.67887886  0.42579047  1
  O2-  O149  1  0.07240756  0.67707540  0.75637945  1
  O2-  O150  1  0.57085727  0.17878750  0.09943440  1
  O2-  O151  1  0.56895804  0.18109348  0.43314143  1
  O2-  O152  1  0.57335448  0.17551626  0.75649386  1
  O2-  O153  1  0.57154295  0.67721111  0.10019293  1
  O2-  O154  1  0.57143882  0.68179049  0.42360404  1
  O2-  O155  1  0.57122591  0.68244888  0.76318626  1
  O2-  O156  1  0.17675110  0.42894673  0.24578616  1
  O2-  O157  1  0.18216335  0.42939938  0.57543358  1
  O2-  O158  1  0.18178567  0.42887372  0.89932745  1
  O2-  O159  1  0.18032877  0.92780689  0.23474502  1
  O2-  O160  1  0.17542369  0.92992061  0.57735143  1
  O2-  O161  1  0.18167312  0.92938947  0.89889650  1
  O2-  O162  1  0.67791614  0.42884284  0.24512605  1
  O2-  O163  1  0.67933337  0.42759460  0.57732499  1
  O2-  O164  1  0.67904266  0.42966186  0.90014974  1
  O2-  O165  1  0.67619436  0.92619682  0.23586617  1
  O2-  O166  1  0.68027238  0.93100348  0.57793768  1
  O2-  O167  1  0.68021642  0.93147155  0.89819859  1
  O2-  O168  1  0.42932389  0.32335200  0.08982058  1
  O2-  O169  1  0.43067073  0.32256497  0.42851493  1
  O2-  O170  1  0.42798827  0.31689428  0.76748581  1
  O2-  O171  1  0.42638523  0.81833888  0.10115546  1
  O2-  O172  1  0.42515810  0.81717951  0.42455436  1
  O2-  O173  1  0.42702050  0.82149656  0.76153333  1
  O2-  O174  1  0.92917751  0.32144997  0.09878843  1
  O2-  O175  1  0.93257522  0.32834711  0.42473199  1
  O2-  O176  1  0.92910428  0.32340214  0.75380898  1
  O2-  O177  1  0.92687310  0.82182017  0.08768090  1
  O2-  O178  1  0.92962423  0.81660600  0.43320520  1
  O2-  O179  1  0.93294712  0.82155681  0.75725931  1
  O2-  O180  1  0.32225669  0.06963826  0.24527199  1
  O2-  O181  1  0.31767230  0.07225222  0.57564244  1
  O2-  O182  1  0.32286135  0.07478878  0.91121667  1
  O2-  O183  1  0.31813170  0.57319592  0.23472979  1
  O2-  O184  1  0.32005387  0.57153893  0.57830060  1
  O2-  O185  1  0.31987814  0.57011679  0.90813364  1
  O2-  O186  1  0.82128559  0.06825709  0.23406759  1
  O2-  O187  1  0.82604823  0.06872036  0.57872410  1
  O2-  O188  1  0.82063580  0.06938630  0.90780499  1
  O2-  O189  1  0.81961352  0.56960447  0.23272757  1
  O2-  O190  1  0.82189698  0.57144755  0.57037154  1
  O2-  O191  1  0.82327967  0.57133929  0.91128219  1
  O2-  O192  1  0.03566113  0.08126390  0.26556873  1
  O2-  O193  1  0.03657182  0.08143973  0.60001596  1
  O2-  O194  1  0.04246796  0.08025803  0.92907011  1
  O2-  O195  1  0.05196354  0.58109196  0.27713807  1
  O2-  O196  1  0.04480870  0.58379475  0.60474403  1
  O2-  O197  1  0.04113408  0.58479388  0.93128698  1
  O2-  O198  1  0.53980844  0.07969745  0.26849095  1
  O2-  O199  1  0.54693071  0.08443206  0.60434105  1
  O2-  O200  1  0.53787662  0.08561497  0.92972150  1
  O2-  O201  1  0.54284792  0.58909406  0.27283326  1
  O2-  O202  1  0.54632789  0.58237333  0.59660738  1
  O2-  O203  1  0.54347079  0.58004450  0.93179316  1
  O2-  O204  1  0.16468007  0.20461720  0.26352445  1
  O2-  O205  1  0.16383370  0.20964005  0.59566603  1
  O2-  O206  1  0.17282944  0.20478722  0.93377621  1
  O2-  O207  1  0.16717702  0.70522094  0.27521636  1
  O2-  O208  1  0.16340574  0.70313804  0.60403420  1
  O2-  O209  1  0.16478557  0.71154245  0.93025205  1
  O2-  O210  1  0.67290799  0.20282032  0.26884248  1
  O2-  O211  1  0.67048092  0.19855998  0.60685792  1
  O2-  O212  1  0.66666286  0.20932617  0.93051348  1
  O2-  O213  1  0.66266584  0.70801049  0.27114086  1
  O2-  O214  1  0.67191918  0.71228647  0.59960580  1
  O2-  O215  1  0.67230196  0.70420729  0.93311041  1
  O2-  O216  1  0.08259167  0.46101653  0.06713803  1
  O2-  O217  1  0.08728846  0.45165246  0.40151421  1
  O2-  O218  1  0.08955966  0.45406612  0.72789984  1
  O2-  O219  1  0.08124905  0.95719712  0.06505813  1
  O2-  O220  1  0.08153777  0.95942636  0.40155291  1
  O2-  O221  1  0.08675758  0.95770078  0.73040708  1
  O2-  O222  1  0.58257695  0.45822627  0.06954079  1
  O2-  O223  1  0.58427628  0.45597720  0.39586691  1
  O2-  O224  1  0.58335208  0.45430176  0.72793726  1
  O2-  O225  1  0.58080965  0.95926133  0.06426857  1
  O2-  O226  1  0.57581833  0.95339596  0.40337733  1
  O2-  O227  1  0.58447603  0.95564557  0.72782289  1
  O2-  O228  1  0.20661742  0.33147661  0.06860341  1
  O2-  O229  1  0.20437420  0.33033980  0.39419425  1
  O2-  O230  1  0.21163355  0.33523700  0.72565985  1
  O2-  O231  1  0.21091945  0.83293975  0.06685422  1
  O2-  O232  1  0.20968961  0.83489951  0.40517089  1
  O2-  O233  1  0.20364357  0.83461519  0.72743124  1
  O2-  O234  1  0.71206476  0.33280551  0.06679650  1
  O2-  O235  1  0.69974095  0.33406087  0.39811045  1
  O2-  O236  1  0.70155268  0.33312775  0.72839037  1
  O2-  O237  1  0.70866449  0.83281442  0.06559229  1
  O2-  O238  1  0.70983330  0.83247462  0.40408700  1
  O2-  O239  1  0.71237895  0.84213566  0.73072457  1
  O2-  O240  1  0.45405893  0.42439513  0.26418348  1
  O2-  O241  1  0.45718194  0.41653536  0.59935548  1
  O2-  O242  1  0.45325522  0.41680495  0.93829768  1
  O2-  O243  1  0.44677155  0.91415259  0.27490434  1
  O2-  O244  1  0.45282281  0.92175172  0.59650719  1
  O2-  O245  1  0.45352842  0.92005217  0.93290890  1
  O2-  O246  1  0.95769868  0.41755725  0.27142707  1
  O2-  O247  1  0.95684268  0.41685679  0.60349020  1
  O2-  O248  1  0.95649819  0.42060579  0.93122251  1
  O2-  O249  1  0.95950759  0.91267975  0.26428312  1
  O2-  O250  1  0.96068718  0.91022931  0.60349335  1
  O2-  O251  1  0.95354402  0.91529322  0.93465171  1
  O2-  O252  1  0.33123959  0.29531803  0.26156786  1
  O2-  O253  1  0.33652730  0.28580920  0.59607115  1
  O2-  O254  1  0.33504585  0.29680529  0.93875194  1
  O2-  O255  1  0.33482998  0.78679662  0.27404360  1
  O2-  O256  1  0.32801688  0.79223915  0.59677570  1
  O2-  O257  1  0.33243665  0.79076296  0.93056373  1
  O2-  O258  1  0.83233048  0.30513652  0.27687712  1
  O2-  O259  1  0.83266734  0.30191210  0.60367759  1
  O2-  O260  1  0.83308727  0.29312788  0.92742644  1
  O2-  O261  1  0.83192362  0.78654972  0.26544699  1
  O2-  O262  1  0.83878568  0.79285310  0.60597362  1
  O2-  O263  1  0.83486257  0.79660656  0.93418109  1
  O2-  O264  1  0.41538524  0.04564492  0.06393141  1
  O2-  O265  1  0.41228345  0.04629594  0.40007240  1
  O2-  O266  1  0.41323560  0.04737367  0.72756566  1
  O2-  O267  1  0.41506565  0.54832587  0.06064951  1
  O2-  O268  1  0.41810185  0.54192287  0.40391132  1
  O2-  O269  1  0.41518118  0.54378464  0.72815402  1
  O2-  O270  1  0.91524055  0.04599006  0.05886806  1
  O2-  O271  1  0.91519919  0.03461580  0.40290834  1
  O2-  O272  1  0.91158865  0.03579418  0.73290140  1
  O2-  O273  1  0.91597671  0.54631011  0.06317015  1
  O2-  O274  1  0.91818557  0.54251562  0.40210107  1
  O2-  O275  1  0.91907796  0.54116991  0.73704162  1
  O2-  O276  1  0.30112842  0.16736982  0.06461749  1
  O2-  O277  1  0.29560651  0.16844345  0.39331468  1
  O2-  O278  1  0.28848701  0.16194143  0.72849519  1
  O2-  O279  1  0.29247672  0.66437669  0.05944160  1
  O2-  O280  1  0.28744117  0.66264718  0.40849337  1
  O2-  O281  1  0.29232994  0.66286234  0.73027623  1
  O2-  O282  1  0.79852746  0.16694731  0.05734518  1
  O2-  O283  1  0.79914728  0.17142929  0.40303635  1
  O2-  O284  1  0.80318046  0.16667338  0.72814679  1
  O2-  O285  1  0.80004679  0.66756379  0.06130993  1
  O2-  O286  1  0.78798221  0.66491233  0.40157644  1
  O2-  O287  1  0.79315832  0.66920954  0.73811852  1
