# generated using pymatgen
data_Ca2Al2SiO7
_symmetry_space_group_name_H-M   'P 1'
_cell_length_a   15.45393687
_cell_length_b   15.45433005
_cell_length_c   15.28099878
_cell_angle_alpha   89.99198810
_cell_angle_beta   90.00450477
_cell_angle_gamma   90.00586180
_symmetry_Int_Tables_number   1
_chemical_formula_structural   Ca2Al2SiO7
_chemical_formula_sum   'Ca48 Al48 Si24 O168'
_cell_volume   3649.56455408
_cell_formula_units_Z   24
loop_
 _symmetry_equiv_pos_site_id
 _symmetry_equiv_pos_as_xyz
  1  'x, y, z'
loop_
 _atom_type_symbol
 _atom_type_oxidation_number
  Ca2+  2.0
  Al0+  0.0
  Si0+  0.0
  O2-  -2.0
loop_
 _atom_site_type_symbol
 _atom_site_label
 _atom_site_symmetry_multiplicity
 _atom_site_fract_x
 _atom_site_fract_y
 _atom_site_fract_z
 _atom_site_occupancy
  Ca2+  Ca0  1  0.16623078  0.08085598  0.16843737  1
  Ca2+  Ca1  1  0.16657204  0.08361752  0.51055786  1
  Ca2+  Ca2  1  0.17412260  0.08143158  0.83737749  1
  Ca2+  Ca3  1  0.17226753  0.58502833  0.16679062  1
  Ca2+  Ca4  1  0.17279146  0.58094267  0.50208753  1
  Ca2+  Ca5  1  0.17126428  0.57730313  0.84636279  1
  Ca2+  Ca6  1  0.66806534  0.08110928  0.17074215  1
  Ca2+  Ca7  1  0.66892618  0.08565683  0.50441517  1
  Ca2+  Ca8  1  0.65903074  0.07552477  0.83888760  1
  Ca2+  Ca9  1  0.66961231  0.57617482  0.17434246  1
  Ca2+  Ca10  1  0.67704890  0.58759150  0.50342381  1
  Ca2+  Ca11  1  0.67305638  0.57595722  0.83825216  1
  Ca2+  Ca12  1  0.07954211  0.33475146  0.16566282  1
  Ca2+  Ca13  1  0.07966456  0.31955870  0.49368520  1
  Ca2+  Ca14  1  0.08870096  0.32957377  0.82792549  1
  Ca2+  Ca15  1  0.07739911  0.82814388  0.15279707  1
  Ca2+  Ca16  1  0.07596442  0.84003305  0.50007621  1
  Ca2+  Ca17  1  0.07579676  0.83967779  0.83068996  1
  Ca2+  Ca18  1  0.58946668  0.32173617  0.15956277  1
  Ca2+  Ca19  1  0.57950637  0.32295778  0.49728360  1
  Ca2+  Ca20  1  0.57789176  0.32320850  0.82816675  1
  Ca2+  Ca21  1  0.58714861  0.82645017  0.16134005  1
  Ca2+  Ca22  1  0.58505661  0.83027964  0.49703066  1
  Ca2+  Ca23  1  0.58589867  0.83775318  0.82921305  1
  Ca2+  Ca24  1  0.32858524  0.42567183  0.16700099  1
  Ca2+  Ca25  1  0.34024379  0.41856335  0.50210118  1
  Ca2+  Ca26  1  0.33118895  0.41883914  0.84161661  1
  Ca2+  Ca27  1  0.32804962  0.92010792  0.16308689  1
  Ca2+  Ca28  1  0.32392295  0.92557408  0.51127119  1
  Ca2+  Ca29  1  0.32295925  0.92823117  0.83870412  1
  Ca2+  Ca30  1  0.83046092  0.41826443  0.17418639  1
  Ca2+  Ca31  1  0.84122597  0.42661453  0.50113480  1
  Ca2+  Ca32  1  0.82890130  0.42096450  0.83863205  1
  Ca2+  Ca33  1  0.83172438  0.91974763  0.16809752  1
  Ca2+  Ca34  1  0.82796502  0.92164951  0.50666682  1
  Ca2+  Ca35  1  0.82632164  0.91149824  0.83594886  1
  Ca2+  Ca36  1  0.42784902  0.16122598  0.15919538  1
  Ca2+  Ca37  1  0.42374026  0.16572302  0.50015313  1
  Ca2+  Ca38  1  0.42082521  0.16378917  0.82586695  1
  Ca2+  Ca39  1  0.41700086  0.66147561  0.16444662  1
  Ca2+  Ca40  1  0.42330290  0.66869008  0.48944161  1
  Ca2+  Ca41  1  0.41562298  0.66621304  0.83164899  1
  Ca2+  Ca42  1  0.91652912  0.16842387  0.16861158  1
  Ca2+  Ca43  1  0.92588991  0.16578104  0.48965850  1
  Ca2+  Ca44  1  0.92533880  0.16765696  0.82723762  1
  Ca2+  Ca45  1  0.92015825  0.67112984  0.15674850  1
  Ca2+  Ca46  1  0.90904868  0.67113306  0.49810960  1
  Ca2+  Ca47  1  0.91975646  0.67570448  0.83027188  1
  Al0+  Al48  1  -0.00100388  0.00153216  -0.00185157  1
  Al0+  Al49  1  -0.00187934  -0.00046771  0.33220653  1
  Al0+  Al50  1  -0.00252681  -0.00117420  0.66135325  1
  Al0+  Al51  1  0.00057976  0.50061959  -0.00151786  1
  Al0+  Al52  1  0.00039668  0.49986630  0.33560473  1
  Al0+  Al53  1  0.00181193  0.50307149  0.67138032  1
  Al0+  Al54  1  0.50183302  -0.00305338  0.00501549  1
  Al0+  Al55  1  0.49621963  -0.00160665  0.32977788  1
  Al0+  Al56  1  0.49970108  -0.00128460  0.66781604  1
  Al0+  Al57  1  0.50188765  0.49783841  0.00702425  1
  Al0+  Al58  1  0.49990442  0.50010740  0.33384231  1
  Al0+  Al59  1  0.50199653  0.49934421  0.66296729  1
  Al0+  Al60  1  0.25146808  0.25212185  0.01002297  1
  Al0+  Al61  1  0.25025604  0.24893198  0.32905266  1
  Al0+  Al62  1  0.25104598  0.25222461  0.66079763  1
  Al0+  Al63  1  0.25155853  0.75057622  0.00238180  1
  Al0+  Al64  1  0.24918908  0.75017818  0.33896734  1
  Al0+  Al65  1  0.24919421  0.74942438  0.66938382  1
  Al0+  Al66  1  0.75010343  0.24928123  -0.00357120  1
  Al0+  Al67  1  0.75003045  0.24876592  0.33154070  1
  Al0+  Al68  1  0.75006798  0.25221477  0.66312674  1
  Al0+  Al69  1  0.74989042  0.75046197  -0.00050893  1
  Al0+  Al70  1  0.74797725  0.74876992  0.33140877  1
  Al0+  Al71  1  0.75225511  0.75027243  0.67133947  1
  Al0+  Al72  1  0.32205547  0.07151641  0.01650881  1
  Al0+  Al73  1  0.92818076  0.82270723  0.98371515  1
  Al0+  Al74  1  0.31987802  0.07326557  0.67990110  1
  Al0+  Al75  1  0.57141519  0.17557254  0.65136018  1
  Al0+  Al76  1  0.57083983  0.68002215  0.31947989  1
  Al0+  Al77  1  0.07322707  0.67868094  0.98473554  1
  Al0+  Al78  1  0.92890101  0.81872386  0.65056244  1
  Al0+  Al79  1  0.68081135  0.42724586  0.01311767  1
  Al0+  Al80  1  0.32054691  0.57029031  0.34951041  1
  Al0+  Al81  1  0.82094064  0.57099293  0.34623384  1
  Al0+  Al82  1  0.57083116  0.17737879  0.98531717  1
  Al0+  Al83  1  0.81951121  0.07014915  0.34685412  1
  Al0+  Al84  1  0.07172387  0.17654804  0.31540157  1
  Al0+  Al85  1  0.56956416  0.17839559  0.31802646  1
  Al0+  Al86  1  0.82176135  0.57095361  0.68286105  1
  Al0+  Al87  1  0.06924536  0.18021169  0.65500183  1
  Al0+  Al88  1  0.42893313  0.32262269  0.65155352  1
  Al0+  Al89  1  0.17652077  0.93067082  0.01499744  1
  Al0+  Al90  1  0.92991869  0.32238853  0.31862542  1
  Al0+  Al91  1  0.32244961  0.57225495  0.01443616  1
  Al0+  Al92  1  0.17633408  0.42829350  0.01618271  1
  Al0+  Al93  1  0.68022245  0.93108329  0.67880376  1
  Al0+  Al94  1  0.68036327  0.92819492  0.01507911  1
  Al0+  Al95  1  0.17538395  0.92839554  0.68190129  1
  Si0+  Si96  1  0.92785666  0.32587603  0.65157334  1
  Si0+  Si97  1  0.17829626  0.92971441  0.34870045  1
  Si0+  Si98  1  0.92859342  0.32163466  0.98397654  1
  Si0+  Si99  1  0.82266184  0.07355930  0.01512806  1
  Si0+  Si100  1  0.57098228  0.67957044  0.65360320  1
  Si0+  Si101  1  0.92812699  0.81957771  0.31847546  1
  Si0+  Si102  1  0.57088867  0.67646705  0.98461490  1
  Si0+  Si103  1  0.42713368  0.81965862  0.65297097  1
  Si0+  Si104  1  0.43031768  0.82018654  0.98428025  1
  Si0+  Si105  1  0.67628973  0.92783042  0.34897810  1
  Si0+  Si106  1  0.42882363  0.32190554  0.98591476  1
  Si0+  Si107  1  0.07373192  0.67675042  0.64822390  1
  Si0+  Si108  1  0.32159100  0.07115257  0.34907936  1
  Si0+  Si109  1  0.07229149  0.67983555  0.32065148  1
  Si0+  Si110  1  0.32378200  0.57114523  0.68023010  1
  Si0+  Si111  1  0.18062308  0.43052482  0.67933727  1
  Si0+  Si112  1  0.82185680  0.07518714  0.68182238  1
  Si0+  Si113  1  0.42788318  0.32313480  0.31329551  1
  Si0+  Si114  1  0.42502202  0.82046578  0.31589742  1
  Si0+  Si115  1  0.07285589  0.18091622  0.98560496  1
  Si0+  Si116  1  0.82062281  0.57104952  0.01634338  1
  Si0+  Si117  1  0.67734262  0.42772089  0.68305212  1
  Si0+  Si118  1  0.17853871  0.42672546  0.35254082  1
  Si0+  Si119  1  0.67803007  0.42631904  0.35160073  1
  O2-  O120  1  0.24614630  0.00356155  0.06736631  1
  O2-  O121  1  0.24635351  0.00392384  0.39048277  1
  O2-  O122  1  0.24607452  0.00274783  0.72948990  1
  O2-  O123  1  0.24651458  0.50368353  0.06347614  1
  O2-  O124  1  0.24915713  0.49335585  0.39793420  1
  O2-  O125  1  0.25275591  0.50051876  0.72145393  1
  O2-  O126  1  0.75530675  0.00312971  0.05910919  1
  O2-  O127  1  0.74162506  -0.00120948  0.39392935  1
  O2-  O128  1  0.74953999  0.01066707  0.72631115  1
  O2-  O129  1  0.75438672  0.50150282  0.06197648  1
  O2-  O130  1  0.74711184  0.49574521  0.39493592  1
  O2-  O131  1  0.74962121  0.49288012  0.72729150  1
  O2-  O132  1  0.00104647  0.25050958  0.26643242  1
  O2-  O133  1  -0.00827067  0.25246617  0.60837603  1
  O2-  O134  1  0.00317792  0.25352289  0.94279913  1
  O2-  O135  1  -0.00132328  0.74764292  0.27792273  1
  O2-  O136  1  0.00606680  0.74622385  0.60307335  1
  O2-  O137  1  0.00331809  0.75286333  0.93472673  1
  O2-  O138  1  0.49602604  0.25369511  0.26968487  1
  O2-  O139  1  0.49937150  0.24842068  0.60238595  1
  O2-  O140  1  0.49312356  0.24993273  0.94036068  1
  O2-  O141  1  0.49504827  0.75295358  0.27172195  1
  O2-  O142  1  0.49837987  0.74869254  0.61055022  1
  O2-  O143  1  0.49929147  0.74645030  0.94160251  1
  O2-  O144  1  0.06956876  0.17970499  0.09037281  1
  O2-  O145  1  0.07100325  0.17613393  0.42928180  1
  O2-  O146  1  0.07017790  0.18379534  0.76859057  1
  O2-  O147  1  0.06931261  0.67916905  0.09928721  1
  O2-  O148  1  0.07414390  0.68252438  0.42580833  1
  O2-  O149  1  0.07384384  0.67408433  0.75306391  1
  O2-  O150  1  0.57221526  0.17912304  0.09863070  1
  O2-  O151  1  0.56742469  0.17767395  0.43096637  1
  O2-  O152  1  0.56968675  0.17655788  0.76496353  1
  O2-  O153  1  0.57150674  0.67789854  0.08969519  1
  O2-  O154  1  0.57146568  0.68406713  0.43329321  1
  O2-  O155  1  0.56841261  0.67782613  0.75889732  1
  O2-  O156  1  0.17788731  0.42971707  0.24731192  1
  O2-  O157  1  0.17878325  0.43297914  0.57432318  1
  O2-  O158  1  0.17922324  0.42649856  0.90184071  1
  O2-  O159  1  0.17968580  0.92721807  0.24392067  1
  O2-  O160  1  0.17853394  0.92820780  0.56744179  1
  O2-  O161  1  0.17731051  0.93370313  0.90178757  1
  O2-  O162  1  0.67950714  0.42794038  0.24572416  1
  O2-  O163  1  0.67524382  0.43002640  0.57762757  1
  O2-  O164  1  0.68216017  0.42974630  0.89978362  1
  O2-  O165  1  0.67928041  0.92653874  0.24345626  1
  O2-  O166  1  0.68195394  0.92761518  0.56556191  1
  O2-  O167  1  0.67967430  0.92838913  0.90192651  1
  O2-  O168  1  0.43229898  0.32311580  0.09136467  1
  O2-  O169  1  0.42929247  0.32234213  0.41913214  1
  O2-  O170  1  0.43044717  0.32789433  0.76492853  1
  O2-  O171  1  0.43202970  0.82016907  0.08953158  1
  O2-  O172  1  0.42497816  0.81987220  0.42198318  1
  O2-  O173  1  0.42677103  0.81743427  0.75799554  1
  O2-  O174  1  0.92632854  0.32105532  0.08869313  1
  O2-  O175  1  0.93399143  0.32314051  0.43249607  1
  O2-  O176  1  0.92961333  0.32621706  0.75757438  1
  O2-  O177  1  0.92711034  0.81947513  0.09814019  1
  O2-  O178  1  0.92782908  0.81948957  0.42360817  1
  O2-  O179  1  0.92689991  0.81678348  0.76292642  1
  O2-  O180  1  0.32390421  0.06763244  0.24437163  1
  O2-  O181  1  0.31922783  0.06965792  0.56564663  1
  O2-  O182  1  0.32114401  0.07097078  0.90296006  1
  O2-  O183  1  0.31716255  0.57176270  0.23718471  1
  O2-  O184  1  0.32356489  0.57205920  0.57511451  1
  O2-  O185  1  0.32523131  0.56826096  0.90013662  1
  O2-  O186  1  0.82050208  0.06644510  0.23373310  1
  O2-  O187  1  0.82221861  0.07240053  0.57605586  1
  O2-  O188  1  0.82297318  0.07585479  0.90948878  1
  O2-  O189  1  0.81932191  0.57207986  0.23337659  1
  O2-  O190  1  0.81913393  0.57115150  0.56937052  1
  O2-  O191  1  0.81800106  0.56981625  0.91056462  1
  O2-  O192  1  0.03995535  0.07860806  0.26301116  1
  O2-  O193  1  0.04053817  0.08403349  0.59927687  1
  O2-  O194  1  0.04344632  0.09035720  0.93680688  1
  O2-  O195  1  0.04840801  0.58655245  0.27559610  1
  O2-  O196  1  0.04671650  0.58338532  0.60144552  1
  O2-  O197  1  0.04377787  0.58032532  0.93087158  1
  O2-  O198  1  0.53793735  0.08094771  0.26510348  1
  O2-  O199  1  0.54317836  0.07705547  0.59772641  1
  O2-  O200  1  0.54079244  0.07864521  0.93569051  1
  O2-  O201  1  0.54216751  0.58212638  0.26729480  1
  O2-  O202  1  0.54599614  0.58839682  0.60389529  1
  O2-  O203  1  0.54364768  0.58386663  0.93830173  1
  O2-  O204  1  0.17121228  0.20247168  0.26377695  1
  O2-  O205  1  0.16375216  0.21317714  0.59840797  1
  O2-  O206  1  0.16623950  0.20909537  0.94174713  1
  O2-  O207  1  0.16297792  0.71110825  0.27313436  1
  O2-  O208  1  0.16866892  0.70069003  0.60272187  1
  O2-  O209  1  0.17439259  0.70154955  0.93497658  1
  O2-  O210  1  0.66685470  0.20720099  0.26505293  1
  O2-  O211  1  0.67053472  0.20511987  0.59885936  1
  O2-  O212  1  0.66676609  0.20936920  0.93044638  1
  O2-  O213  1  0.66577203  0.71154412  0.26230002  1
  O2-  O214  1  0.66206982  0.71091536  0.60750747  1
  O2-  O215  1  0.66219747  0.70536862  0.93690682  1
  O2-  O216  1  0.07702335  0.45523542  0.06823351  1
  O2-  O217  1  0.08636101  0.45515073  0.39984805  1
  O2-  O218  1  0.09013505  0.45789001  0.72970228  1
  O2-  O219  1  0.07714254  0.95709411  0.06737572  1
  O2-  O220  1  0.08524237  0.95526732  0.39479451  1
  O2-  O221  1  0.07523096  0.95463718  0.73067738  1
  O2-  O222  1  0.58637539  0.45707724  0.07051372  1
  O2-  O223  1  0.58422410  0.45236605  0.39637392  1
  O2-  O224  1  0.58571761  0.45895112  0.73045151  1
  O2-  O225  1  0.58497671  0.95603812  0.07181628  1
  O2-  O226  1  0.57981247  0.94859133  0.39148519  1
  O2-  O227  1  0.58200258  0.95468918  0.73308739  1
  O2-  O228  1  0.20526814  0.33300649  0.07419739  1
  O2-  O229  1  0.20346238  0.33133009  0.39578141  1
  O2-  O230  1  0.20776317  0.33880346  0.72639777  1
  O2-  O231  1  0.20750101  0.83286655  0.06756621  1
  O2-  O232  1  0.20805762  0.83975464  0.39892513  1
  O2-  O233  1  0.20534999  0.82984025  0.73375024  1
  O2-  O234  1  0.71345420  0.33114175  0.06639270  1
  O2-  O235  1  0.70325765  0.33288642  0.39718852  1
  O2-  O236  1  0.70005782  0.33300206  0.72842584  1
  O2-  O237  1  0.71050252  0.83104773  0.06930765  1
  O2-  O238  1  0.70509511  0.83510912  0.39507152  1
  O2-  O239  1  0.71365935  0.83625695  0.73484007  1
  O2-  O240  1  0.45270761  0.41752353  0.26915065  1
  O2-  O241  1  0.46085800  0.41983075  0.59507728  1
  O2-  O242  1  0.45865494  0.41460328  0.93943200  1
  O2-  O243  1  0.44802746  0.91380983  0.26884422  1
  O2-  O244  1  0.45528346  0.91042429  0.60416925  1
  O2-  O245  1  0.46275951  0.91004743  0.93651452  1
  O2-  O246  1  0.95865845  0.42132140  0.26539626  1
  O2-  O247  1  0.95913105  0.41836647  0.60626955  1
  O2-  O248  1  0.95282918  0.41427982  0.93642118  1
  O2-  O249  1  0.95704610  0.91036543  0.27067585  1
  O2-  O250  1  0.95622220  0.91534913  0.59411641  1
  O2-  O251  1  0.95248964  0.92269319  0.93134094  1
  O2-  O252  1  0.33338748  0.29969092  0.26888623  1
  O2-  O253  1  0.33120380  0.29858738  0.59497671  1
  O2-  O254  1  0.33236851  0.30153073  0.94327235  1
  O2-  O255  1  0.33194313  0.79160908  0.27068288  1
  O2-  O256  1  0.33580941  0.79132011  0.60405299  1
  O2-  O257  1  0.33819425  0.79510223  0.93656898  1
  O2-  O258  1  0.83122519  0.29473056  0.26635792  1
  O2-  O259  1  0.83243436  0.30860229  0.60644724  1
  O2-  O260  1  0.83933262  0.29045098  0.93310947  1
  O2-  O261  1  0.83635513  0.79247669  0.27118060  1
  O2-  O262  1  0.83291195  0.78355178  0.59667911  1
  O2-  O263  1  0.83026456  0.79014897  0.93100820  1
  O2-  O264  1  0.41723620  0.03466091  0.07070352  1
  O2-  O265  1  0.41154821  0.03840757  0.39793440  1
  O2-  O266  1  0.41694027  0.04090775  0.73235024  1
  O2-  O267  1  0.41880105  0.54074325  0.07009074  1
  O2-  O268  1  0.41886469  0.54241388  0.40263127  1
  O2-  O269  1  0.41643824  0.54453393  0.72651123  1
  O2-  O270  1  0.91597606  0.04955802  0.06208463  1
  O2-  O271  1  0.91538853  0.03598660  0.40134657  1
  O2-  O272  1  0.91406022  0.04542139  0.72768288  1
  O2-  O273  1  0.91520376  0.54762286  0.05988158  1
  O2-  O274  1  0.91817511  0.54334275  0.40188474  1
  O2-  O275  1  0.91919123  0.54365529  0.73698158  1
  O2-  O276  1  0.29995956  0.17027667  0.07057250  1
  O2-  O277  1  0.29869868  0.16559438  0.39323663  1
  O2-  O278  1  0.29447150  0.17346083  0.73015297  1
  O2-  O279  1  0.29982543  0.67142034  0.06796486  1
  O2-  O280  1  0.28818310  0.66641753  0.40522035  1
  O2-  O281  1  0.29697229  0.66258063  0.72852249  1
  O2-  O282  1  0.79483041  0.16589344  0.06202578  1
  O2-  O283  1  0.79291052  0.16795149  0.40030197  1
  O2-  O284  1  0.80372924  0.17168109  0.72548575  1
  O2-  O285  1  0.79321825  0.66403740  0.06169649  1
  O2-  O286  1  0.78633223  0.66707142  0.40076432  1
  O2-  O287  1  0.78614759  0.66442725  0.73838098  1
