# generated using pymatgen
data_Ca2Al2SiO7
_symmetry_space_group_name_H-M   'P 1'
_cell_length_a   15.45596037
_cell_length_b   15.45556372
_cell_length_c   15.28184668
_cell_angle_alpha   89.99550650
_cell_angle_beta   89.99856752
_cell_angle_gamma   90.00625379
_symmetry_Int_Tables_number   1
_chemical_formula_structural   Ca2Al2SiO7
_chemical_formula_sum   'Ca48 Al48 Si24 O168'
_cell_volume   3650.53636930
_cell_formula_units_Z   24
loop_
 _symmetry_equiv_pos_site_id
 _symmetry_equiv_pos_as_xyz
  1  'x, y, z'
loop_
 _atom_type_symbol
 _atom_type_oxidation_number
  Ca2+  2.0
  Al0+  0.0
  Si0+  0.0
  O2-  -2.0
loop_
 _atom_site_type_symbol
 _atom_site_label
 _atom_site_symmetry_multiplicity
 _atom_site_fract_x
 _atom_site_fract_y
 _atom_site_fract_z
 _atom_site_occupancy
  Ca2+  Ca0  1  0.16670737  0.08548721  0.17445672  1
  Ca2+  Ca1  1  0.15953727  0.07818035  0.49863062  1
  Ca2+  Ca2  1  0.17275151  0.08257764  0.84250171  1
  Ca2+  Ca3  1  0.17094165  0.57831908  0.17451689  1
  Ca2+  Ca4  1  0.16416353  0.57371069  0.50540125  1
  Ca2+  Ca5  1  0.15192812  0.57749891  0.83299673  1
  Ca2+  Ca6  1  0.67806389  0.08375573  0.17132075  1
  Ca2+  Ca7  1  0.67823055  0.08450875  0.50529914  1
  Ca2+  Ca8  1  0.67700017  0.09146936  0.83618221  1
  Ca2+  Ca9  1  0.67250803  0.57883027  0.17367836  1
  Ca2+  Ca10  1  0.67203503  0.57006303  0.50614797  1
  Ca2+  Ca11  1  0.68076396  0.58148981  0.83566487  1
  Ca2+  Ca12  1  0.08874274  0.32215197  0.16522243  1
  Ca2+  Ca13  1  0.08055756  0.33262218  0.49583252  1
  Ca2+  Ca14  1  0.07761495  0.32806592  0.82614522  1
  Ca2+  Ca15  1  0.07942528  0.83195853  0.16595830  1
  Ca2+  Ca16  1  0.07257695  0.83157805  0.49511628  1
  Ca2+  Ca17  1  0.07700977  0.81933061  0.82448580  1
  Ca2+  Ca18  1  0.57914182  0.33323958  0.16526487  1
  Ca2+  Ca19  1  0.58710630  0.33292541  0.49429347  1
  Ca2+  Ca20  1  0.58995435  0.32250351  0.82718340  1
  Ca2+  Ca21  1  0.58563293  0.83725499  0.16721655  1
  Ca2+  Ca22  1  0.57962587  0.83590608  0.49525348  1
  Ca2+  Ca23  1  0.57607279  0.83560747  0.82540589  1
  Ca2+  Ca24  1  0.32898106  0.42025322  0.18043587  1
  Ca2+  Ca25  1  0.32455058  0.41514382  0.49884872  1
  Ca2+  Ca26  1  0.32494102  0.41478911  0.83294898  1
  Ca2+  Ca27  1  0.32498972  0.92574570  0.17163711  1
  Ca2+  Ca28  1  0.32574437  0.91189320  0.50362645  1
  Ca2+  Ca29  1  0.33440617  0.92059796  0.83800383  1
  Ca2+  Ca30  1  0.82941336  0.42268958  0.16988088  1
  Ca2+  Ca31  1  0.82628241  0.41509418  0.51187339  1
  Ca2+  Ca32  1  0.83768995  0.42355831  0.82974747  1
  Ca2+  Ca33  1  0.83286174  0.92627741  0.17702492  1
  Ca2+  Ca34  1  0.84070343  0.92563032  0.50158681  1
  Ca2+  Ca35  1  0.84005502  0.92670800  0.83423270  1
  Ca2+  Ca36  1  0.42002325  0.17240916  0.15999545  1
  Ca2+  Ca37  1  0.42601079  0.17449713  0.49462639  1
  Ca2+  Ca38  1  0.43029530  0.15945208  0.82925961  1
  Ca2+  Ca39  1  0.41561512  0.66495403  0.16643866  1
  Ca2+  Ca40  1  0.41469375  0.66660244  0.49669161  1
  Ca2+  Ca41  1  0.41881335  0.67534447  0.82533414  1
  Ca2+  Ca42  1  0.92537921  0.15933901  0.16461185  1
  Ca2+  Ca43  1  0.91506434  0.16976181  0.49534876  1
  Ca2+  Ca44  1  0.91568794  0.16854595  0.82783223  1
  Ca2+  Ca45  1  0.91860072  0.67282588  0.15962678  1
  Ca2+  Ca46  1  0.91369935  0.67380914  0.49911959  1
  Ca2+  Ca47  1  0.92051685  0.66526712  0.82370814  1
  Al0+  Al48  1  0.00026638  -0.00102401  -0.00127010  1
  Al0+  Al49  1  0.00125476  0.00012963  0.33230251  1
  Al0+  Al50  1  0.00210804  -0.00223965  0.67090620  1
  Al0+  Al51  1  -0.00127322  0.49969035  0.00400735  1
  Al0+  Al52  1  0.00073395  0.50075350  0.33466935  1
  Al0+  Al53  1  0.00019889  0.49686194  0.66557713  1
  Al0+  Al54  1  0.49810124  0.00144566  0.00175436  1
  Al0+  Al55  1  0.50101456  0.00025120  0.33312995  1
  Al0+  Al56  1  0.50038766  0.00058646  0.65564864  1
  Al0+  Al57  1  0.49842536  0.50100370  -0.00337882  1
  Al0+  Al58  1  0.50090996  0.50098480  0.33614721  1
  Al0+  Al59  1  0.49750795  0.49865009  0.67314749  1
  Al0+  Al60  1  0.24981346  0.25003319  -0.00095207  1
  Al0+  Al61  1  0.25167184  0.25160659  0.32971192  1
  Al0+  Al62  1  0.25259184  0.24927208  0.67198945  1
  Al0+  Al63  1  0.24853068  0.74851269  -0.00408902  1
  Al0+  Al64  1  0.25086338  0.75191485  0.33856405  1
  Al0+  Al65  1  0.24978284  0.74888534  0.66028271  1
  Al0+  Al66  1  0.74870219  0.25037294  0.00234651  1
  Al0+  Al67  1  0.75125131  0.25061288  0.33680982  1
  Al0+  Al68  1  0.75120770  0.24772764  0.66659714  1
  Al0+  Al69  1  0.74891326  0.74979460  0.00260120  1
  Al0+  Al70  1  0.74862781  0.75164789  0.33084726  1
  Al0+  Al71  1  0.74826397  0.75068382  0.66605255  1
  Al0+  Al72  1  0.82181025  0.07150659  0.01421406  1
  Al0+  Al73  1  0.43157313  0.32149525  0.32028301  1
  Al0+  Al74  1  0.56977165  0.18032576  0.98748781  1
  Al0+  Al75  1  0.32090362  0.07122024  0.01382995  1
  Al0+  Al76  1  0.57186524  0.18104569  0.65087847  1
  Al0+  Al77  1  0.67693391  0.42643686  0.68373355  1
  Al0+  Al78  1  0.42996028  0.82063403  0.65148398  1
  Al0+  Al79  1  0.17941644  0.42802658  0.68214849  1
  Al0+  Al80  1  0.82037210  0.57191659  0.68000194  1
  Al0+  Al81  1  0.06918540  0.18132382  0.32152273  1
  Al0+  Al82  1  0.17802341  0.42737135  0.34799136  1
  Al0+  Al83  1  0.93097309  0.31749976  0.65421441  1
  Al0+  Al84  1  0.92888121  0.81995476  0.31787782  1
  Al0+  Al85  1  0.92728786  0.82256697  0.65160600  1
  Al0+  Al86  1  0.68113296  0.43045801  0.34522587  1
  Al0+  Al87  1  0.06934094  0.67632666  0.64872519  1
  Al0+  Al88  1  0.32163165  0.57170391  0.34852553  1
  Al0+  Al89  1  0.82212268  0.06992935  0.34920159  1
  Al0+  Al90  1  0.67766830  0.92791161  0.34893416  1
  Al0+  Al91  1  0.06964361  0.67839540  0.98752510  1
  Al0+  Al92  1  0.82217702  0.06874474  0.68180061  1
  Al0+  Al93  1  0.07140269  0.17763485  0.98547834  1
  Al0+  Al94  1  0.18002177  0.93099639  0.34690609  1
  Al0+  Al95  1  0.82136478  0.57149970  0.01528243  1
  Si0+  Si96  1  0.56917193  0.67998846  0.31789499  1
  Si0+  Si97  1  0.17921720  0.42939009  0.01544022  1
  Si0+  Si98  1  0.32172534  0.57208464  0.01348097  1
  Si0+  Si99  1  0.17941381  0.92628800  0.01505620  1
  Si0+  Si100  1  0.18007798  0.92730949  0.68329436  1
  Si0+  Si101  1  0.67639022  0.92809669  0.01499381  1
  Si0+  Si102  1  0.32238552  0.06909464  0.68024016  1
  Si0+  Si103  1  0.32314560  0.07383726  0.35014692  1
  Si0+  Si104  1  0.32030073  0.57375579  0.68609982  1
  Si0+  Si105  1  0.92596021  0.82145056  0.98321922  1
  Si0+  Si106  1  0.92544230  0.32474864  0.31609980  1
  Si0+  Si107  1  0.42667988  0.82284458  0.31587242  1
  Si0+  Si108  1  0.07340041  0.67781543  0.31662860  1
  Si0+  Si109  1  0.57195799  0.67775609  0.98484395  1
  Si0+  Si110  1  0.57130491  0.67577512  0.65047040  1
  Si0+  Si111  1  0.92798443  0.32130930  0.98498332  1
  Si0+  Si112  1  0.82289619  0.57374129  0.34868075  1
  Si0+  Si113  1  0.57402348  0.17778254  0.31512266  1
  Si0+  Si114  1  0.42641757  0.32257897  0.65075865  1
  Si0+  Si115  1  0.42700055  0.32431983  0.98141922  1
  Si0+  Si116  1  0.67599426  0.42938148  0.01688752  1
  Si0+  Si117  1  0.67503608  0.92937033  0.68247111  1
  Si0+  Si118  1  0.42945107  0.81974599  0.98731434  1
  Si0+  Si119  1  0.07606733  0.17681951  0.65234352  1
  O2-  O120  1  0.24239209  0.00021680  0.05980799  1
  O2-  O121  1  0.25580364  0.00444957  0.39512031  1
  O2-  O122  1  0.25100498  -0.00086473  0.72451124  1
  O2-  O123  1  0.25260026  0.49958348  0.05546116  1
  O2-  O124  1  0.24692323  0.50265152  0.39758877  1
  O2-  O125  1  0.25116841  0.50570138  0.73078740  1
  O2-  O126  1  0.74765952  -0.00556077  0.05791366  1
  O2-  O127  1  0.74864258  -0.00057157  0.39952529  1
  O2-  O128  1  0.74729164  -0.00706255  0.72831746  1
  O2-  O129  1  0.74393770  0.49893700  0.06091855  1
  O2-  O130  1  0.76066055  0.49933043  0.39205532  1
  O2-  O131  1  0.74746882  0.50101517  0.73182286  1
  O2-  O132  1  -0.00408588  0.25719977  0.27281263  1
  O2-  O133  1  0.00631885  0.24328329  0.60799319  1
  O2-  O134  1  -0.00574667  0.24998515  0.94036658  1
  O2-  O135  1  0.00193154  0.74295877  0.27117263  1
  O2-  O136  1  -0.00360050  0.74814117  0.60069790  1
  O2-  O137  1  -0.00690708  0.75070840  0.94032205  1
  O2-  O138  1  0.50461071  0.24614285  0.27135871  1
  O2-  O139  1  0.50066891  0.26040788  0.60662545  1
  O2-  O140  1  0.49598180  0.25550823  0.93850167  1
  O2-  O141  1  0.49898464  0.75248608  0.27430507  1
  O2-  O142  1  0.50317206  0.74445570  0.60508310  1
  O2-  O143  1  0.50188702  0.75057325  0.94411412  1
  O2-  O144  1  0.07336000  0.17983980  0.09849799  1
  O2-  O145  1  0.06855589  0.18135023  0.43458603  1
  O2-  O146  1  0.07721109  0.17842901  0.75833191  1
  O2-  O147  1  0.07250798  0.68090748  0.10055398  1
  O2-  O148  1  0.07310333  0.67864009  0.42165096  1
  O2-  O149  1  0.06898750  0.67915596  0.76309624  1
  O2-  O150  1  0.56781278  0.18226894  0.10038386  1
  O2-  O151  1  0.57278636  0.17841138  0.42058939  1
  O2-  O152  1  0.56903537  0.17819617  0.76449921  1
  O2-  O153  1  0.57026391  0.67551722  0.08996330  1
  O2-  O154  1  0.56759812  0.67958326  0.42261447  1
  O2-  O155  1  0.56912225  0.67879880  0.75676649  1
  O2-  O156  1  0.18092001  0.42781649  0.23356063  1
  O2-  O157  1  0.18290188  0.42532512  0.56977263  1
  O2-  O158  1  0.17909104  0.42986553  0.91026417  1
  O2-  O159  1  0.18233840  0.93059605  0.23332207  1
  O2-  O160  1  0.17971260  0.92903824  0.57827389  1
  O2-  O161  1  0.18433648  0.92419128  0.90935385  1
  O2-  O162  1  0.67991754  0.43419253  0.23152197  1
  O2-  O163  1  0.67805075  0.42870147  0.56998375  1
  O2-  O164  1  0.67497969  0.43054037  0.91178828  1
  O2-  O165  1  0.67801740  0.92980328  0.23461473  1
  O2-  O166  1  0.67207367  0.93268563  0.57751458  1
  O2-  O167  1  0.67323184  0.92673800  0.90953665  1
  O2-  O168  1  0.42805658  0.32699605  0.08699785  1
  O2-  O169  1  0.43246998  0.31950019  0.43323511  1
  O2-  O170  1  0.42300132  0.31815518  0.75652491  1
  O2-  O171  1  0.42844485  0.81777218  0.09231071  1
  O2-  O172  1  0.42658069  0.82243055  0.42057026  1
  O2-  O173  1  0.43138877  0.82131014  0.76576290  1
  O2-  O174  1  0.92999758  0.32313341  0.09063435  1
  O2-  O175  1  0.92420802  0.32399166  0.42145095  1
  O2-  O176  1  0.93262540  0.31685551  0.76791048  1
  O2-  O177  1  0.92696253  0.82113624  0.08894900  1
  O2-  O178  1  0.93000295  0.81939517  0.43045554  1
  O2-  O179  1  0.93182342  0.82443110  0.76565284  1
  O2-  O180  1  0.32245239  0.07165159  0.24412939  1
  O2-  O181  1  0.32077217  0.06946562  0.57538676  1
  O2-  O182  1  0.32335118  0.06561777  0.90036461  1
  O2-  O183  1  0.32103243  0.57110399  0.23368957  1
  O2-  O184  1  0.32188574  0.57317187  0.58104021  1
  O2-  O185  1  0.32404773  0.57355606  0.90884597  1
  O2-  O186  1  0.82151627  0.06917269  0.23507894  1
  O2-  O187  1  0.82264600  0.06959307  0.56940110  1
  O2-  O188  1  0.82078143  0.07134697  0.90108696  1
  O2-  O189  1  0.81976440  0.57411700  0.24246313  1
  O2-  O190  1  0.81771574  0.57073530  0.56644978  1
  O2-  O191  1  0.82098080  0.57159051  0.90271084  1
  O2-  O192  1  0.03949273  0.08531400  0.26520298  1
  O2-  O193  1  0.05275890  0.08146581  0.61019998  1
  O2-  O194  1  0.04614438  0.07901185  0.93233196  1
  O2-  O195  1  0.05222913  0.58241486  0.27115238  1
  O2-  O196  1  0.04376757  0.57728407  0.59777416  1
  O2-  O197  1  0.03915851  0.58073687  0.93553658  1
  O2-  O198  1  0.54836026  0.08370245  0.26950061  1
  O2-  O199  1  0.53659070  0.08793315  0.59374019  1
  O2-  O200  1  0.53660563  0.08369118  0.93368989  1
  O2-  O201  1  0.53900721  0.58989329  0.26805842  1
  O2-  O202  1  0.54330312  0.58152232  0.60705832  1
  O2-  O203  1  0.54230437  0.58776806  0.93493551  1
  O2-  O204  1  0.16641324  0.21033793  0.26597558  1
  O2-  O205  1  0.16988077  0.20288517  0.60730370  1
  O2-  O206  1  0.16810389  0.20963326  0.93134414  1
  O2-  O207  1  0.16703773  0.70765169  0.27190291  1
  O2-  O208  1  0.16800105  0.70489402  0.59750123  1
  O2-  O209  1  0.16567409  0.70867451  0.93074914  1
  O2-  O210  1  0.66767724  0.20523138  0.27013335  1
  O2-  O211  1  0.66853503  0.20880393  0.59736575  1
  O2-  O212  1  0.66666396  0.21120848  0.93343276  1
  O2-  O213  1  0.66013527  0.70710217  0.26759972  1
  O2-  O214  1  0.66449146  0.69944820  0.60405665  1
  O2-  O215  1  0.66373345  0.70516054  0.93746050  1
  O2-  O216  1  0.08872959  0.45758666  0.06415003  1
  O2-  O217  1  0.07813843  0.45199372  0.39981664  1
  O2-  O218  1  0.08279187  0.45678574  0.73677772  1
  O2-  O219  1  0.08377084  0.94603886  0.05815051  1
  O2-  O220  1  0.08547902  0.96379634  0.40190147  1
  O2-  O221  1  0.08996451  0.95375969  0.73417962  1
  O2-  O222  1  0.58138865  0.45658740  0.06151687  1
  O2-  O223  1  0.58744676  0.46577499  0.40060712  1
  O2-  O224  1  0.57683241  0.45011262  0.73661377  1
  O2-  O225  1  0.58363972  0.95489744  0.06259094  1
  O2-  O226  1  0.57705863  0.95234807  0.39957746  1
  O2-  O227  1  0.58157186  0.95915966  0.72814270  1
  O2-  O228  1  0.20738748  0.33745783  0.06191306  1
  O2-  O229  1  0.21117143  0.33051934  0.40054807  1
  O2-  O230  1  0.21397097  0.33277437  0.73895691  1
  O2-  O231  1  0.21147410  0.83477027  0.06230793  1
  O2-  O232  1  0.21102392  0.83605199  0.40306491  1
  O2-  O233  1  0.21046058  0.83526445  0.72890123  1
  O2-  O234  1  0.70170328  0.33660660  0.06392689  1
  O2-  O235  1  0.70553631  0.33296079  0.39904724  1
  O2-  O236  1  0.70973891  0.32928275  0.73559244  1
  O2-  O237  1  0.69778994  0.83342261  0.06157735  1
  O2-  O238  1  0.70151528  0.82767699  0.39939134  1
  O2-  O239  1  0.69300313  0.83313078  0.72657659  1
  O2-  O240  1  0.46334577  0.41832228  0.26573916  1
  O2-  O241  1  0.44364926  0.41966238  0.60937245  1
  O2-  O242  1  0.45046879  0.41838461  0.93411587  1
  O2-  O243  1  0.45399584  0.91511029  0.26787816  1
  O2-  O244  1  0.45950772  0.91495506  0.59342365  1
  O2-  O245  1  0.45622338  0.91169273  0.93972971  1
  O2-  O246  1  0.94891251  0.41983163  0.27075300  1
  O2-  O247  1  0.96006960  0.41306248  0.59891510  1
  O2-  O248  1  0.95769622  0.41384729  0.93899856  1
  O2-  O249  1  0.96418561  0.91500446  0.26355445  1
  O2-  O250  1  0.96307858  0.91956831  0.59950355  1
  O2-  O251  1  0.95381160  0.91398854  0.93665608  1
  O2-  O252  1  0.33593977  0.29177541  0.26329433  1
  O2-  O253  1  0.33572443  0.28906410  0.60323429  1
  O2-  O254  1  0.33339439  0.29833157  0.93616095  1
  O2-  O255  1  0.33546620  0.79395648  0.26743538  1
  O2-  O256  1  0.33397155  0.79075947  0.59674302  1
  O2-  O257  1  0.33945558  0.79009108  0.93711257  1
  O2-  O258  1  0.83227845  0.29845553  0.26878532  1
  O2-  O259  1  0.83537496  0.28645657  0.59963932  1
  O2-  O260  1  0.83312001  0.29894794  0.94073127  1
  O2-  O261  1  0.83130632  0.79162865  0.26314117  1
  O2-  O262  1  0.82632488  0.80030423  0.60128181  1
  O2-  O263  1  0.83068666  0.79867708  0.93924609  1
  O2-  O264  1  0.41486496  0.03680497  0.07086733  1
  O2-  O265  1  0.41738719  0.04900702  0.39440103  1
  O2-  O266  1  0.41418134  0.03733148  0.72587870  1
  O2-  O267  1  0.41469539  0.54703125  0.06105267  1
  O2-  O268  1  0.41867802  0.54214349  0.40231636  1
  O2-  O269  1  0.41340458  0.54875294  0.73476422  1
  O2-  O270  1  0.91949392  0.04077283  0.06670339  1
  O2-  O271  1  0.91966906  0.03975860  0.40105778  1
  O2-  O272  1  0.91938268  0.03917251  0.73715216  1
  O2-  O273  1  0.91619346  0.53905990  0.07208653  1
  O2-  O274  1  0.91901503  0.55681885  0.39133805  1
  O2-  O275  1  0.91789633  0.53977645  0.73269747  1
  O2-  O276  1  0.29423202  0.16976770  0.06591394  1
  O2-  O277  1  0.29778833  0.16718134  0.39493002  1
  O2-  O278  1  0.29778387  0.16017941  0.73075918  1
  O2-  O279  1  0.29266677  0.66358053  0.06131286  1
  O2-  O280  1  0.29929376  0.67151009  0.40014442  1
  O2-  O281  1  0.29592632  0.66873015  0.73073863  1
  O2-  O282  1  0.78985367  0.16763311  0.06856726  1
  O2-  O283  1  0.79541009  0.16920174  0.40051184  1
  O2-  O284  1  0.78887105  0.16408854  0.73613484  1
  O2-  O285  1  0.79021423  0.66834946  0.06943147  1
  O2-  O286  1  0.79002353  0.66483562  0.39382907  1
  O2-  O287  1  0.79235988  0.67101426  0.73414401  1
