# generated using pymatgen
data_Ca2Al2SiO7
_symmetry_space_group_name_H-M   'P 1'
_cell_length_a   15.46191684
_cell_length_b   15.46141375
_cell_length_c   15.28707468
_cell_angle_alpha   89.99465251
_cell_angle_beta   89.98626914
_cell_angle_gamma   89.99506850
_symmetry_Int_Tables_number   1
_chemical_formula_structural   Ca2Al2SiO7
_chemical_formula_sum   'Ca48 Al48 Si24 O168'
_cell_volume   3654.57523252
_cell_formula_units_Z   24
loop_
 _symmetry_equiv_pos_site_id
 _symmetry_equiv_pos_as_xyz
  1  'x, y, z'
loop_
 _atom_type_symbol
 _atom_type_oxidation_number
  Ca2+  2.0
  Al0+  0.0
  Si0+  0.0
  O2-  -2.0
loop_
 _atom_site_type_symbol
 _atom_site_label
 _atom_site_symmetry_multiplicity
 _atom_site_fract_x
 _atom_site_fract_y
 _atom_site_fract_z
 _atom_site_occupancy
  Ca2+  Ca0  1  0.17767201  0.09260808  0.17273811  1
  Ca2+  Ca1  1  0.16800325  0.09265626  0.50155947  1
  Ca2+  Ca2  1  0.16835432  0.08293829  0.83877316  1
  Ca2+  Ca3  1  0.16575239  0.58406768  0.16599061  1
  Ca2+  Ca4  1  0.15995151  0.58538089  0.50161775  1
  Ca2+  Ca5  1  0.16577185  0.58147494  0.84627679  1
  Ca2+  Ca6  1  0.67213534  0.07523840  0.17811131  1
  Ca2+  Ca7  1  0.68288782  0.07396934  0.50262759  1
  Ca2+  Ca8  1  0.67201150  0.07908363  0.83242412  1
  Ca2+  Ca9  1  0.67256614  0.57880930  0.18027830  1
  Ca2+  Ca10  1  0.67747806  0.58306398  0.49643257  1
  Ca2+  Ca11  1  0.67678738  0.58506889  0.83322018  1
  Ca2+  Ca12  1  0.07260006  0.33281738  0.16627249  1
  Ca2+  Ca13  1  0.07513588  0.32202807  0.49280672  1
  Ca2+  Ca14  1  0.08220997  0.33113650  0.83372213  1
  Ca2+  Ca15  1  0.08050879  0.82390725  0.16721312  1
  Ca2+  Ca16  1  0.06929711  0.82321618  0.49366119  1
  Ca2+  Ca17  1  0.08147268  0.82037537  0.82474745  1
  Ca2+  Ca18  1  0.57188329  0.33982630  0.16498027  1
  Ca2+  Ca19  1  0.57677375  0.33791963  0.48902819  1
  Ca2+  Ca20  1  0.57445736  0.33477438  0.83336678  1
  Ca2+  Ca21  1  0.58561474  0.82795190  0.16553886  1
  Ca2+  Ca22  1  0.59172642  0.83198452  0.49329454  1
  Ca2+  Ca23  1  0.57803885  0.83813091  0.83128682  1
  Ca2+  Ca24  1  0.32740197  0.41212891  0.16942874  1
  Ca2+  Ca25  1  0.33233114  0.41720392  0.50097295  1
  Ca2+  Ca26  1  0.32322129  0.42411499  0.84764062  1
  Ca2+  Ca27  1  0.33621623  0.92586578  0.17107863  1
  Ca2+  Ca28  1  0.33079553  0.92356244  0.49977908  1
  Ca2+  Ca29  1  0.33164320  0.92179003  0.84548452  1
  Ca2+  Ca30  1  0.83125193  0.41773644  0.17781387  1
  Ca2+  Ca31  1  0.84300656  0.42772488  0.49722962  1
  Ca2+  Ca32  1  0.84038540  0.42209708  0.83722206  1
  Ca2+  Ca33  1  0.82970975  0.92015513  0.18066758  1
  Ca2+  Ca34  1  0.83095044  0.91486031  0.50524025  1
  Ca2+  Ca35  1  0.83615351  0.91691177  0.82868187  1
  Ca2+  Ca36  1  0.41165145  0.17355019  0.16441466  1
  Ca2+  Ca37  1  0.41856070  0.17245543  0.48948837  1
  Ca2+  Ca38  1  0.41115174  0.17105268  0.83521716  1
  Ca2+  Ca39  1  0.42207138  0.66999474  0.16065963  1
  Ca2+  Ca40  1  0.42768303  0.67026022  0.49028312  1
  Ca2+  Ca41  1  0.41000527  0.67311178  0.83442934  1
  Ca2+  Ca42  1  0.91013586  0.17657979  0.16546127  1
  Ca2+  Ca43  1  0.92281987  0.16199130  0.49044338  1
  Ca2+  Ca44  1  0.92011575  0.17228500  0.82487507  1
  Ca2+  Ca45  1  0.92204973  0.66621216  0.16726296  1
  Ca2+  Ca46  1  0.91419867  0.67221045  0.49228561  1
  Ca2+  Ca47  1  0.92796352  0.66733286  0.82382256  1
  Al0+  Al48  1  -0.00085196  0.00026402  0.00155028  1
  Al0+  Al49  1  0.00493535  -0.00276372  0.32652780  1
  Al0+  Al50  1  0.00227518  -0.00085924  0.66488009  1
  Al0+  Al51  1  0.00001250  0.49957106  -0.00280554  1
  Al0+  Al52  1  0.00216675  0.49743254  0.33113800  1
  Al0+  Al53  1  0.00152159  0.49676583  0.66874609  1
  Al0+  Al54  1  0.50128459  -0.00067892  0.00030813  1
  Al0+  Al55  1  0.49808825  0.00183478  0.34303056  1
  Al0+  Al56  1  0.50003031  0.00288967  0.66982622  1
  Al0+  Al57  1  0.50127002  0.50027656  -0.00453211  1
  Al0+  Al58  1  0.49880055  0.50200967  0.32880222  1
  Al0+  Al59  1  0.49813330  0.50198851  0.66860720  1
  Al0+  Al60  1  0.24929765  0.25083104  0.00307623  1
  Al0+  Al61  1  0.24999221  0.25159148  0.33274208  1
  Al0+  Al62  1  0.24970230  0.25291438  0.66482758  1
  Al0+  Al63  1  0.25097194  0.75030599  -0.00299361  1
  Al0+  Al64  1  0.25103992  0.75072970  0.33168497  1
  Al0+  Al65  1  0.25198094  0.75177373  0.66131174  1
  Al0+  Al66  1  0.74982492  0.25041341  -0.00624257  1
  Al0+  Al67  1  0.74701239  0.24776923  0.33833761  1
  Al0+  Al68  1  0.74685151  0.25025892  0.67005824  1
  Al0+  Al69  1  0.75040608  0.75037896  -0.00093386  1
  Al0+  Al70  1  0.74981295  0.74812297  0.33056921  1
  Al0+  Al71  1  0.74791522  0.74818346  0.67469352  1
  Al0+  Al72  1  0.06904925  0.68147661  0.98637568  1
  Al0+  Al73  1  0.07311786  0.67567310  0.65118864  1
  Al0+  Al74  1  0.07294710  0.67668741  0.31670979  1
  Al0+  Al75  1  0.57109155  0.68065359  0.32047512  1
  Al0+  Al76  1  0.82524069  0.07104658  0.34590023  1
  Al0+  Al77  1  0.43170564  0.82062812  0.98780602  1
  Al0+  Al78  1  0.32263575  0.57317618  0.01578195  1
  Al0+  Al79  1  0.92786810  0.81832439  0.65256471  1
  Al0+  Al80  1  0.07223518  0.17689333  0.31738200  1
  Al0+  Al81  1  0.92770519  0.82026264  0.31753905  1
  Al0+  Al82  1  0.32076658  0.06997808  0.01371853  1
  Al0+  Al83  1  0.82142360  0.56806214  0.68127505  1
  Al0+  Al84  1  0.42755356  0.32118559  0.98524593  1
  Al0+  Al85  1  0.17749375  0.42964090  0.01782662  1
  Al0+  Al86  1  0.42987185  0.32181384  0.31992063  1
  Al0+  Al87  1  0.67981228  0.92749889  0.34715099  1
  Al0+  Al88  1  0.07086852  0.17984406  0.65466364  1
  Al0+  Al89  1  0.92773837  0.32017826  0.98491515  1
  Al0+  Al90  1  0.92629884  0.31788116  0.32045015  1
  Al0+  Al91  1  0.31783414  0.07238594  0.34921271  1
  Al0+  Al92  1  0.82329991  0.56826416  0.34618648  1
  Al0+  Al93  1  0.67541446  0.42790318  0.34638946  1
  Al0+  Al94  1  0.82481269  0.07138070  0.68281208  1
  Al0+  Al95  1  0.67848713  0.92830131  0.68462513  1
  Si0+  Si96  1  0.57003906  0.17637004  0.31866739  1
  Si0+  Si97  1  0.57158065  0.17774382  0.98225875  1
  Si0+  Si98  1  0.68016245  0.92958354  0.01538915  1
  Si0+  Si99  1  0.17967501  0.92439653  0.35145116  1
  Si0+  Si100  1  0.42954772  0.82476246  0.65074582  1
  Si0+  Si101  1  0.57464125  0.67734454  0.98048617  1
  Si0+  Si102  1  0.82091104  0.07253318  0.01404499  1
  Si0+  Si103  1  0.31970526  0.07324785  0.68277446  1
  Si0+  Si104  1  0.18035760  0.42954124  0.35041083  1
  Si0+  Si105  1  0.67928951  0.42759225  0.01300539  1
  Si0+  Si106  1  0.42846142  0.82426348  0.31833294  1
  Si0+  Si107  1  0.92581540  0.82406399  0.98207836  1
  Si0+  Si108  1  0.07134547  0.17746636  0.98400352  1
  Si0+  Si109  1  0.32163153  0.57260435  0.68066951  1
  Si0+  Si110  1  0.43048950  0.32112429  0.65214623  1
  Si0+  Si111  1  0.67328647  0.42862648  0.68517974  1
  Si0+  Si112  1  0.82009748  0.57026352  0.01434053  1
  Si0+  Si113  1  0.17659969  0.92733481  0.01659808  1
  Si0+  Si114  1  0.18160185  0.92822247  0.68134231  1
  Si0+  Si115  1  0.56863245  0.67926706  0.65267842  1
  Si0+  Si116  1  0.32108276  0.57268358  0.34829790  1
  Si0+  Si117  1  0.18149323  0.42936155  0.68137915  1
  Si0+  Si118  1  0.57059389  0.17847484  0.65059947  1
  Si0+  Si119  1  0.92523744  0.32101304  0.65061946  1
  O2-  O120  1  0.24403863  -0.00240609  0.06042370  1
  O2-  O121  1  0.24218025  -0.00087139  0.39666729  1
  O2-  O122  1  0.25095334  0.00070333  0.72528718  1
  O2-  O123  1  0.25263691  0.49985737  0.06680101  1
  O2-  O124  1  0.24860278  0.50411388  0.39232167  1
  O2-  O125  1  0.24537836  0.50751472  0.72223059  1
  O2-  O126  1  0.75406410  -0.00230374  0.05596332  1
  O2-  O127  1  0.75678456  -0.00499039  0.39565158  1
  O2-  O128  1  0.75302995  -0.00131417  0.73396331  1
  O2-  O129  1  0.74743863  0.50063723  0.05527918  1
  O2-  O130  1  0.75245152  0.49431842  0.39641646  1
  O2-  O131  1  0.74801980  0.49102879  0.72888025  1
  O2-  O132  1  -0.00643118  0.24213460  0.26854821  1
  O2-  O133  1  -0.01152504  0.24639538  0.60886442  1
  O2-  O134  1  0.00179653  0.24445218  0.93878129  1
  O2-  O135  1  -0.00099160  0.74704006  0.26794529  1
  O2-  O136  1  -0.00356031  0.74285227  0.60278291  1
  O2-  O137  1  -0.00379200  0.75719469  0.93856527  1
  O2-  O138  1  0.50591332  0.24861839  0.27321465  1
  O2-  O139  1  0.50306837  0.25320859  0.60889059  1
  O2-  O140  1  0.50123530  0.24550968  0.93770701  1
  O2-  O141  1  0.49944794  0.75844842  0.27455608  1
  O2-  O142  1  0.50214148  0.75487050  0.61009663  1
  O2-  O143  1  0.50304179  0.74401377  0.93730720  1
  O2-  O144  1  0.06990382  0.17677165  0.08885347  1
  O2-  O145  1  0.07474227  0.18333031  0.43132005  1
  O2-  O146  1  0.07631804  0.18473173  0.76786399  1
  O2-  O147  1  0.06688463  0.68185766  0.09882664  1
  O2-  O148  1  0.07382742  0.67951397  0.43020033  1
  O2-  O149  1  0.07541065  0.67814225  0.76500921  1
  O2-  O150  1  0.57378151  0.17808991  0.08735664  1
  O2-  O151  1  0.56517235  0.17604529  0.42442074  1
  O2-  O152  1  0.56757760  0.17789874  0.75597429  1
  O2-  O153  1  0.57795026  0.67942046  0.08563494  1
  O2-  O154  1  0.56780514  0.67942484  0.43420506  1
  O2-  O155  1  0.56410921  0.67644325  0.75778869  1
  O2-  O156  1  0.18163645  0.42778852  0.24587531  1
  O2-  O157  1  0.18584351  0.42572419  0.57642085  1
  O2-  O158  1  0.17881880  0.43049468  0.90313485  1
  O2-  O159  1  0.18606795  0.91976618  0.24613994  1
  O2-  O160  1  0.18621997  0.92679237  0.57683455  1
  O2-  O161  1  0.17783079  0.92903398  0.91028363  1
  O2-  O162  1  0.67313741  0.43219266  0.23240851  1
  O2-  O163  1  0.66509906  0.43244014  0.58065625  1
  O2-  O164  1  0.68009370  0.42791066  0.90750685  1
  O2-  O165  1  0.67694329  0.93069528  0.23285326  1
  O2-  O166  1  0.67553757  0.93042881  0.57188318  1
  O2-  O167  1  0.67866161  0.93059425  0.91040875  1
  O2-  O168  1  0.42993030  0.32052602  0.09772024  1
  O2-  O169  1  0.42955700  0.32139212  0.43396125  1
  O2-  O170  1  0.42967856  0.31972491  0.75710810  1
  O2-  O171  1  0.43656805  0.82307281  0.10034751  1
  O2-  O172  1  0.42673717  0.82111570  0.42450160  1
  O2-  O173  1  0.42738967  0.82388939  0.75590472  1
  O2-  O174  1  0.92277992  0.31832825  0.09721836  1
  O2-  O175  1  0.93198061  0.32104746  0.43410155  1
  O2-  O176  1  0.92936454  0.32251219  0.75657683  1
  O2-  O177  1  0.92287189  0.82329150  0.08701438  1
  O2-  O178  1  0.92690830  0.81872685  0.43112192  1
  O2-  O179  1  0.93308986  0.81740388  0.76674490  1
  O2-  O180  1  0.31983620  0.07103143  0.23619333  1
  O2-  O181  1  0.31943404  0.07424199  0.57799610  1
  O2-  O182  1  0.31904365  0.06864479  0.89965422  1
  O2-  O183  1  0.32231513  0.57259925  0.24384860  1
  O2-  O184  1  0.32710070  0.56913215  0.57567251  1
  O2-  O185  1  0.31953196  0.57224708  0.90104816  1
  O2-  O186  1  0.81778629  0.07178013  0.23152690  1
  O2-  O187  1  0.82314916  0.07115574  0.57004830  1
  O2-  O188  1  0.82018282  0.07274271  0.90897823  1
  O2-  O189  1  0.82102618  0.56756942  0.23218793  1
  O2-  O190  1  0.82013696  0.56813357  0.56886830  1
  O2-  O191  1  0.81864204  0.56984188  0.90886046  1
  O2-  O192  1  0.06131881  0.07509608  0.26651552  1
  O2-  O193  1  0.05104459  0.08078383  0.60197962  1
  O2-  O194  1  0.04746744  0.08263846  0.93800940  1
  O2-  O195  1  0.04856473  0.57734773  0.26544899  1
  O2-  O196  1  0.05097424  0.57385583  0.60351009  1
  O2-  O197  1  0.03722090  0.58538886  0.93190384  1
  O2-  O198  1  0.53851803  0.08434931  0.27243694  1
  O2-  O199  1  0.53769347  0.08872289  0.60305522  1
  O2-  O200  1  0.54536938  0.08464252  0.93538816  1
  O2-  O201  1  0.53580299  0.58745967  0.26344085  1
  O2-  O202  1  0.53480483  0.58957998  0.60443642  1
  O2-  O203  1  0.55378970  0.58315557  0.93372534  1
  O2-  O204  1  0.16743102  0.21549206  0.26459989  1
  O2-  O205  1  0.16525010  0.21813354  0.59935510  1
  O2-  O206  1  0.16479454  0.20419386  0.93811485  1
  O2-  O207  1  0.17141193  0.70835588  0.26477166  1
  O2-  O208  1  0.17117278  0.70692323  0.59833592  1
  O2-  O209  1  0.16655324  0.70960225  0.93208144  1
  O2-  O210  1  0.66499243  0.19539880  0.27397470  1
  O2-  O211  1  0.66390915  0.20220824  0.60509383  1
  O2-  O212  1  0.66280494  0.20633846  0.93223672  1
  O2-  O213  1  0.66614169  0.70747083  0.26272422  1
  O2-  O214  1  0.66224626  0.70265651  0.60876839  1
  O2-  O215  1  0.66673559  0.70793573  0.93268706  1
  O2-  O216  1  0.07902646  0.46014039  0.06878065  1
  O2-  O217  1  0.08870847  0.45476304  0.39890001  1
  O2-  O218  1  0.08785952  0.44780557  0.72878949  1
  O2-  O219  1  0.08191495  0.94983209  0.06192789  1
  O2-  O220  1  0.08370098  0.94333371  0.39362589  1
  O2-  O221  1  0.09010554  0.95371993  0.72955301  1
  O2-  O222  1  0.58604410  0.45278710  0.05788105  1
  O2-  O223  1  0.57861148  0.46338335  0.40015132  1
  O2-  O224  1  0.58241353  0.46164390  0.73519573  1
  O2-  O225  1  0.58986142  0.95945234  0.06338705  1
  O2-  O226  1  0.58256007  0.95711972  0.40237915  1
  O2-  O227  1  0.58033793  0.96288830  0.73815618  1
  O2-  O228  1  0.20491750  0.33099059  0.06951222  1
  O2-  O229  1  0.21399353  0.34063671  0.40002243  1
  O2-  O230  1  0.21767280  0.34123773  0.73159021  1
  O2-  O231  1  0.20503138  0.83483042  0.06138571  1
  O2-  O232  1  0.21300131  0.83439309  0.40145736  1
  O2-  O233  1  0.21305143  0.83699644  0.72952304  1
  O2-  O234  1  0.70744338  0.33551488  0.05891167  1
  O2-  O235  1  0.69289760  0.32732568  0.39844965  1
  O2-  O236  1  0.69094100  0.33253338  0.72932314  1
  O2-  O237  1  0.70509738  0.83593774  0.06082923  1
  O2-  O238  1  0.70379474  0.82762829  0.39794716  1
  O2-  O239  1  0.70022796  0.82922225  0.73955578  1
  O2-  O240  1  0.45776567  0.41776138  0.26432486  1
  O2-  O241  1  0.45595077  0.41468090  0.60656079  1
  O2-  O242  1  0.46000369  0.41687293  0.92865430  1
  O2-  O243  1  0.45108116  0.91994460  0.27630818  1
  O2-  O244  1  0.45461523  0.91823155  0.60557030  1
  O2-  O245  1  0.46460512  0.91617382  0.93097108  1
  O2-  O246  1  0.96022062  0.41409776  0.26620334  1
  O2-  O247  1  0.95872877  0.41167598  0.60413890  1
  O2-  O248  1  0.96070417  0.41559032  0.92997014  1
  O2-  O249  1  0.95742632  0.91696421  0.26150532  1
  O2-  O250  1  0.95881585  0.91621597  0.60127073  1
  O2-  O251  1  0.94944109  0.91930919  0.93771214  1
  O2-  O252  1  0.33493340  0.28823751  0.26649745  1
  O2-  O253  1  0.33990989  0.29154808  0.60379862  1
  O2-  O254  1  0.33079826  0.28979981  0.93115709  1
  O2-  O255  1  0.33718368  0.79576582  0.27060513  1
  O2-  O256  1  0.33980420  0.79567612  0.60046183  1
  O2-  O257  1  0.33494003  0.79339409  0.93109923  1
  O2-  O258  1  0.82495641  0.29509092  0.26982508  1
  O2-  O259  1  0.82760541  0.30561125  0.61025337  1
  O2-  O260  1  0.83212118  0.29045462  0.92717043  1
  O2-  O261  1  0.82998582  0.79261849  0.26313069  1
  O2-  O262  1  0.82615209  0.79253053  0.60600846  1
  O2-  O263  1  0.83262168  0.79697663  0.93527148  1
  O2-  O264  1  0.41781234  0.03852200  0.06613762  1
  O2-  O265  1  0.41244811  0.04125776  0.40762151  1
  O2-  O266  1  0.41172796  0.04736905  0.73036845  1
  O2-  O267  1  0.42479312  0.54890110  0.06238538  1
  O2-  O268  1  0.41129288  0.54147317  0.39715015  1
  O2-  O269  1  0.41036479  0.54057006  0.73187829  1
  O2-  O270  1  0.91428497  0.05029032  0.06047054  1
  O2-  O271  1  0.92765305  0.04844115  0.39189245  1
  O2-  O272  1  0.92427245  0.04457725  0.73586303  1
  O2-  O273  1  0.91115086  0.54114783  0.05995375  1
  O2-  O274  1  0.92188427  0.54030347  0.39981997  1
  O2-  O275  1  0.91847939  0.53669765  0.73619833  1
  O2-  O276  1  0.29218178  0.16685301  0.06692912  1
  O2-  O277  1  0.28787415  0.16950405  0.40370240  1
  O2-  O278  1  0.28999881  0.16537057  0.72927731  1
  O2-  O279  1  0.29529695  0.67239197  0.06692023  1
  O2-  O280  1  0.29672934  0.66530690  0.39658000  1
  O2-  O281  1  0.29985140  0.66770661  0.72455773  1
  O2-  O282  1  0.78795614  0.16352719  0.05951365  1
  O2-  O283  1  0.79387375  0.16679874  0.40252221  1
  O2-  O284  1  0.79268863  0.17030490  0.73573658  1
  O2-  O285  1  0.79327672  0.66327561  0.05991169  1
  O2-  O286  1  0.78975909  0.66509603  0.39824050  1
  O2-  O287  1  0.78782493  0.66188899  0.73918459  1
