# generated using pymatgen
data_Na2MnFe(PO4)2
_symmetry_space_group_name_H-M   'P 1'
_cell_length_a   21.08315225
_cell_length_b   18.93462044
_cell_length_c   20.04258466
_cell_angle_alpha   90.00012469
_cell_angle_beta   90.00193893
_cell_angle_gamma   89.99890118
_symmetry_Int_Tables_number   1
_chemical_formula_structural   Na2MnFe(PO4)2
_chemical_formula_sum   'Na96 Mn48 Fe48 P96 O384'
_cell_volume   8001.02956135
_cell_formula_units_Z   48
loop_
 _symmetry_equiv_pos_site_id
 _symmetry_equiv_pos_as_xyz
  1  'x, y, z'
loop_
 _atom_site_type_symbol
 _atom_site_label
 _atom_site_symmetry_multiplicity
 _atom_site_fract_x
 _atom_site_fract_y
 _atom_site_fract_z
 _atom_site_occupancy
  Na  Na0  1  0.00127119  0.00029073  -0.00003841  1
  Na  Na1  1  0.00178375  0.00023684  0.24935930  1
  Na  Na2  1  0.00020317  -0.00047938  0.50009184  1
  Na  Na3  1  -0.00109956  -0.00035224  0.75024227  1
  Na  Na4  1  -0.00022585  0.33302431  -0.00004537  1
  Na  Na5  1  -0.00167349  0.33280423  0.25031771  1
  Na  Na6  1  0.00000866  0.33358228  0.50008401  1
  Na  Na7  1  0.00294980  0.33516415  0.74926154  1
  Na  Na8  1  0.00042752  0.66603436  0.00083938  1
  Na  Na9  1  0.00162947  0.66763089  0.25010005  1
  Na  Na10  1  -0.00182872  0.66596368  0.49866682  1
  Na  Na11  1  -0.00110563  0.66582485  0.75103459  1
  Na  Na12  1  0.49859340  -0.00052959  0.00110948  1
  Na  Na13  1  0.49974153  -0.00031579  0.24939689  1
  Na  Na14  1  0.50027849  -0.00040145  0.49866008  1
  Na  Na15  1  0.49908509  -0.00072478  0.75114044  1
  Na  Na16  1  0.49836603  0.33269085  -0.00012244  1
  Na  Na17  1  0.50154629  0.33404535  0.25028993  1
  Na  Na18  1  0.50192596  0.33420090  0.49977489  1
  Na  Na19  1  0.49996989  0.33346415  0.75004214  1
  Na  Na20  1  0.50106747  0.66725382  0.00062724  1
  Na  Na21  1  0.50174342  0.66780330  0.24912560  1
  Na  Na22  1  0.49920537  0.66680531  0.49991993  1
  Na  Na23  1  0.49772436  0.66596935  0.74977093  1
  Na  Na24  1  0.25048317  0.00014688  0.12603057  1
  Na  Na25  1  0.24904273  -0.00097673  0.37431039  1
  Na  Na26  1  0.25030331  -0.00009748  0.62414036  1
  Na  Na27  1  0.25121679  0.00036831  0.87533476  1
  Na  Na28  1  0.25134511  0.33412848  0.12527743  1
  Na  Na29  1  0.25004732  0.33363480  0.37443730  1
  Na  Na30  1  0.24830773  0.33330923  0.62519247  1
  Na  Na31  1  0.24943078  0.33337499  0.87510024  1
  Na  Na32  1  0.24833745  0.66609169  0.12429103  1
  Na  Na33  1  0.24982235  0.66646824  0.37514748  1
  Na  Na34  1  0.25383611  0.66783186  0.62502578  1
  Na  Na35  1  0.25099077  0.66654619  0.87524258  1
  Na  Na36  1  0.74887486  -0.00068181  0.12608577  1
  Na  Na37  1  0.74933134  -0.00078144  0.37459577  1
  Na  Na38  1  0.75115804  0.00027493  0.62435082  1
  Na  Na39  1  0.75083450  0.00078833  0.87527548  1
  Na  Na40  1  0.75051128  0.33377910  0.12565869  1
  Na  Na41  1  0.74940021  0.33385682  0.37415815  1
  Na  Na42  1  0.74772222  0.33297467  0.62453450  1
  Na  Na43  1  0.74809556  0.33282303  0.87564067  1
  Na  Na44  1  0.74831627  0.66661651  0.12442256  1
  Na  Na45  1  0.74989169  0.66703257  0.37491248  1
  Na  Na46  1  0.75108781  0.66683591  0.62602904  1
  Na  Na47  1  0.74990498  0.66674651  0.87516743  1
  Na  Na48  1  -0.00147865  0.16658669  -0.00080809  1
  Na  Na49  1  0.00064274  0.16533677  0.24962337  1
  Na  Na50  1  -0.00017284  0.16591056  0.50134159  1
  Na  Na51  1  -0.00055134  0.16636801  0.74961037  1
  Na  Na52  1  0.00206915  0.49974212  0.00117220  1
  Na  Na53  1  0.00031061  0.49979766  0.24971769  1
  Na  Na54  1  0.00001518  0.49905634  0.49927967  1
  Na  Na55  1  -0.00022646  0.50057242  0.74987188  1
  Na  Na56  1  0.00255705  0.83269752  0.00072817  1
  Na  Na57  1  0.00071974  0.83412341  0.25023484  1
  Na  Na58  1  0.00117401  0.83293654  0.49884068  1
  Na  Na59  1  0.00032460  0.83366075  0.75061736  1
  Na  Na60  1  0.49772342  0.16733283  0.00072041  1
  Na  Na61  1  0.49860346  0.16740848  0.24991792  1
  Na  Na62  1  0.50236093  0.16548447  0.49878291  1
  Na  Na63  1  0.49839491  0.16743127  0.75044857  1
  Na  Na64  1  0.50003959  0.49977841  0.00017865  1
  Na  Na65  1  0.50181318  0.49909725  0.24925594  1
  Na  Na66  1  0.49930029  0.49999081  0.50010181  1
  Na  Na67  1  0.49868832  0.50011556  0.75063868  1
  Na  Na68  1  0.50051874  0.83351401  0.00076157  1
  Na  Na69  1  0.50142467  0.83318767  0.24952519  1
  Na  Na70  1  0.50049484  0.83364008  0.49929953  1
  Na  Na71  1  0.50032045  0.83309481  0.75003447  1
  Na  Na72  1  0.25227105  0.16577909  0.12544904  1
  Na  Na73  1  0.24943436  0.16660717  0.37399225  1
  Na  Na74  1  0.24939379  0.16735878  0.62435951  1
  Na  Na75  1  0.25098868  0.16644022  0.87640955  1
  Na  Na76  1  0.24817834  0.50069372  0.12487902  1
  Na  Na77  1  0.24849551  0.50002255  0.37510107  1
  Na  Na78  1  0.25027608  0.49959013  0.62562959  1
  Na  Na79  1  0.25090099  0.49962084  0.87405651  1
  Na  Na80  1  0.24920514  0.83416875  0.12560946  1
  Na  Na81  1  0.25135185  0.83378635  0.37443246  1
  Na  Na82  1  0.25074626  0.83439183  0.62469143  1
  Na  Na83  1  0.25048329  0.83347617  0.87495958  1
  Na  Na84  1  0.75058015  0.16587462  0.12611215  1
  Na  Na85  1  0.74876036  0.16747144  0.37362491  1
  Na  Na86  1  0.75082660  0.16622097  0.62461071  1
  Na  Na87  1  0.75151645  0.16599261  0.87553894  1
  Na  Na88  1  0.74885237  0.50030132  0.12444323  1
  Na  Na89  1  0.75052734  0.49934316  0.37527350  1
  Na  Na90  1  0.75094517  0.49949623  0.62528841  1
  Na  Na91  1  0.74983808  0.49976140  0.87528051  1
  Na  Na92  1  0.74836628  0.83341064  0.12523661  1
  Na  Na93  1  0.74895636  0.83345880  0.37493203  1
  Na  Na94  1  0.74813594  0.83400644  0.62472958  1
  Na  Na95  1  0.74689400  0.83392330  0.87551596  1
  Mn  Mn96  1  0.89249823  0.58339648  0.12706787  1
  Mn  Mn97  1  0.89226131  0.24903817  0.37769898  1
  Mn  Mn98  1  0.35740522  0.41594651  0.75176723  1
  Mn  Mn99  1  0.89193091  0.91566733  0.87819511  1
  Mn  Mn100  1  0.14190685  0.24967618  0.49718977  1
  Mn  Mn101  1  0.60849611  0.08345877  0.62242796  1
  Mn  Mn102  1  0.39212135  0.58366937  0.37673467  1
  Mn  Mn103  1  0.35817305  0.08364852  0.50178269  1
  Mn  Mn104  1  0.10797635  0.08411313  0.87301421  1
  Mn  Mn105  1  0.39250939  0.58330146  0.12727110  1
  Mn  Mn106  1  0.64190737  0.91738497  0.74773856  1
  Mn  Mn107  1  0.64227361  0.58386519  0.24789833  1
  Mn  Mn108  1  0.64134480  0.24951007  0.74826869  1
  Mn  Mn109  1  0.89221841  0.25116343  0.87715556  1
  Mn  Mn110  1  0.85688339  0.75073603  0.00257937  1
  Mn  Mn111  1  0.10749448  0.41604879  0.12259354  1
  Mn  Mn112  1  0.85740811  0.75015833  0.50238185  1
  Mn  Mn113  1  0.89235223  0.58356093  0.37679522  1
  Mn  Mn114  1  0.85813884  0.08238332  0.25267020  1
  Mn  Mn115  1  0.85778040  0.75043733  0.75277659  1
  Mn  Mn116  1  0.39256288  0.24978971  0.62672279  1
  Mn  Mn117  1  0.14210825  0.24970021  0.24724152  1
  Mn  Mn118  1  0.89187296  0.91540873  0.62649752  1
  Mn  Mn119  1  0.64243033  0.24979284  0.24709259  1
  Mn  Mn120  1  0.14265308  0.25009291  0.99802035  1
  Mn  Mn121  1  0.89274907  0.91645049  0.12686185  1
  Mn  Mn122  1  0.35811964  0.08408162  0.75182023  1
  Mn  Mn123  1  0.14241099  0.91722124  0.74753674  1
  Mn  Mn124  1  0.39216184  0.91644555  0.87830128  1
  Mn  Mn125  1  0.60671084  0.08375709  0.12247895  1
  Mn  Mn126  1  0.60709932  0.74950245  0.62260941  1
  Mn  Mn127  1  0.10749489  0.08322806  0.62266017  1
  Mn  Mn128  1  0.89184332  0.25060519  0.62730929  1
  Mn  Mn129  1  0.35853267  0.75032005  0.75254443  1
  Mn  Mn130  1  0.35772726  0.75009670  0.25189371  1
  Mn  Mn131  1  0.60730688  0.08336504  0.87352133  1
  Mn  Mn132  1  0.10847726  0.74941056  0.87298555  1
  Mn  Mn133  1  0.64204177  0.58326474  0.49792105  1
  Mn  Mn134  1  0.14266259  0.58418054  0.49837385  1
  Mn  Mn135  1  0.35797482  0.41700238  0.25231670  1
  Mn  Mn136  1  0.14238767  0.58326545  0.74727425  1
  Mn  Mn137  1  0.60657982  0.41701648  0.87312708  1
  Mn  Mn138  1  0.39322900  0.25013420  0.37754927  1
  Mn  Mn139  1  0.64193167  0.58303419  0.74804958  1
  Mn  Mn140  1  0.10837025  0.75004418  0.37258160  1
  Mn  Mn141  1  0.85743484  0.41621736  0.00209243  1
  Mn  Mn142  1  0.10824535  0.74919448  0.62243540  1
  Mn  Mn143  1  0.85793916  0.41586807  0.75243776  1
  Fe  Fe144  1  0.35673179  0.08301083  0.25211103  1
  Fe  Fe145  1  0.60742037  0.74997291  0.37343050  1
  Fe  Fe146  1  0.60773477  0.08282366  0.37282208  1
  Fe  Fe147  1  0.64293378  0.24965541  0.49835084  1
  Fe  Fe148  1  0.60751374  0.74983088  0.12280496  1
  Fe  Fe149  1  0.64229506  0.24947192  0.99885464  1
  Fe  Fe150  1  0.64214868  0.58319860  0.99749136  1
  Fe  Fe151  1  0.14217021  0.58373038  0.24822749  1
  Fe  Fe152  1  0.85705622  0.41623971  0.50173175  1
  Fe  Fe153  1  0.89297799  0.91687256  0.37647090  1
  Fe  Fe154  1  0.39293224  0.91684584  0.62578954  1
  Fe  Fe155  1  0.35730865  0.08306009  0.00261544  1
  Fe  Fe156  1  0.10703376  0.41736074  0.62243809  1
  Fe  Fe157  1  0.85715317  0.75001071  0.25118341  1
  Fe  Fe158  1  0.14264350  0.24959944  0.74874503  1
  Fe  Fe159  1  0.35830123  0.75003282  0.50104297  1
  Fe  Fe160  1  0.10800649  0.41685667  0.87376061  1
  Fe  Fe161  1  0.85699431  0.41740276  0.25166069  1
  Fe  Fe162  1  0.39340364  0.91664004  0.37636779  1
  Fe  Fe163  1  0.35700459  0.41697510  0.00184103  1
  Fe  Fe164  1  0.39275071  0.91673001  0.12711725  1
  Fe  Fe165  1  0.64193222  0.91729769  0.99872626  1
  Fe  Fe166  1  0.14342943  0.58370661  0.99776494  1
  Fe  Fe167  1  0.35760005  0.41687927  0.50170382  1
  Fe  Fe168  1  0.14308923  0.91633240  0.24817171  1
  Fe  Fe169  1  0.89303716  0.58315461  0.87721082  1
  Fe  Fe170  1  0.39259947  0.58304054  0.62621561  1
  Fe  Fe171  1  0.60783128  0.41724489  0.37348526  1
  Fe  Fe172  1  0.60755565  0.41656423  0.12276448  1
  Fe  Fe173  1  0.10710448  0.41604289  0.37342280  1
  Fe  Fe174  1  0.60708596  0.41700244  0.62302092  1
  Fe  Fe175  1  0.64264340  0.91637233  0.24859981  1
  Fe  Fe176  1  0.39240213  0.58325823  0.87763290  1
  Fe  Fe177  1  0.89252229  0.58328957  0.62665679  1
  Fe  Fe178  1  0.85752295  0.08326142  0.75169633  1
  Fe  Fe179  1  0.10768073  0.08331517  0.12288346  1
  Fe  Fe180  1  0.64208349  0.91736170  0.49748751  1
  Fe  Fe181  1  0.10738770  0.08336364  0.37364327  1
  Fe  Fe182  1  0.60638792  0.74955204  0.87379970  1
  Fe  Fe183  1  0.39287914  0.25013769  0.12676936  1
  Fe  Fe184  1  0.39146911  0.25051852  0.87762775  1
  Fe  Fe185  1  0.14399113  0.91654810  0.99881532  1
  Fe  Fe186  1  0.10785359  0.75063950  0.12318438  1
  Fe  Fe187  1  0.14337498  0.91658526  0.49798177  1
  Fe  Fe188  1  0.35742805  0.75005639  0.00222973  1
  Fe  Fe189  1  0.89208586  0.24957929  0.12592281  1
  Fe  Fe190  1  0.85674463  0.08346655  0.50063233  1
  Fe  Fe191  1  0.85703244  0.08313345  0.00184482  1
  P  P192  1  0.05195343  0.24887004  0.10981102  1
  P  P193  1  0.05332785  0.24938142  0.36004685  1
  P  P194  1  0.05439406  0.25076774  0.61113408  1
  P  P195  1  0.05403356  0.25085284  0.85945599  1
  P  P196  1  0.05570019  0.58439647  0.11065952  1
  P  P197  1  0.05428025  0.58249971  0.35953246  1
  P  P198  1  0.05196092  0.58288267  0.60955066  1
  P  P199  1  0.05419520  0.58254834  0.86134075  1
  P  P200  1  0.05595631  0.91678905  0.11075480  1
  P  P201  1  0.05465550  0.91750044  0.36044522  1
  P  P202  1  0.05403463  0.91624503  0.60885647  1
  P  P203  1  0.05489622  0.91684959  0.86140750  1
  P  P204  1  0.55264387  0.25058337  0.10956571  1
  P  P205  1  0.55556176  0.25006146  0.36112736  1
  P  P206  1  0.55409342  0.25063069  0.60917526  1
  P  P207  1  0.55228431  0.24984262  0.86168594  1
  P  P208  1  0.55441523  0.58319133  0.10943837  1
  P  P209  1  0.55328115  0.58358836  0.36001655  1
  P  P210  1  0.55192012  0.58256916  0.61021754  1
  P  P211  1  0.55260319  0.58416109  0.86127937  1
  P  P212  1  0.55391614  0.91630881  0.11104617  1
  P  P213  1  0.55452503  0.91650275  0.36016005  1
  P  P214  1  0.55283369  0.91681307  0.60904926  1
  P  P215  1  0.55436954  0.91605438  0.86172826  1
  P  P216  1  0.44405338  0.08331576  0.13962582  1
  P  P217  1  0.44701151  0.08233088  0.38808218  1
  P  P218  1  0.44738960  0.08239004  0.63962134  1
  P  P219  1  0.44550024  0.08409286  0.89129595  1
  P  P220  1  0.44676818  0.41615752  0.13876574  1
  P  P221  1  0.44769177  0.41689512  0.39033641  1
  P  P222  1  0.44662897  0.41692908  0.63880569  1
  P  P223  1  0.44506161  0.41671921  0.89060571  1
  P  P224  1  0.44670437  0.75066695  0.13872348  1
  P  P225  1  0.44742622  0.75106179  0.38960883  1
  P  P226  1  0.44509460  0.75050237  0.63833831  1
  P  P227  1  0.44679422  0.74939461  0.89125758  1
  P  P228  1  0.94646769  0.08333138  0.13861138  1
  P  P229  1  0.94747128  0.08195452  0.39040183  1
  P  P230  1  0.94429334  0.08287920  0.63923078  1
  P  P231  1  0.94472339  0.08332584  0.88977354  1
  P  P232  1  0.94562525  0.41589605  0.14039887  1
  P  P233  1  0.94590370  0.41654503  0.38928905  1
  P  P234  1  0.94626073  0.41746713  0.63874449  1
  P  P235  1  0.94825922  0.41771946  0.89020749  1
  P  P236  1  0.94761220  0.75029457  0.14055283  1
  P  P237  1  0.94546917  0.75118239  0.38827440  1
  P  P238  1  0.94685287  0.74915855  0.64014210  1
  P  P239  1  0.94687351  0.74899862  0.89100974  1
  P  P240  1  0.19564939  0.08248415  0.23567829  1
  P  P241  1  0.19630625  0.08245745  0.48397570  1
  P  P242  1  0.19686696  0.08443389  0.73488983  1
  P  P243  1  0.19703674  0.08259471  0.98688556  1
  P  P244  1  0.19522685  0.41706687  0.23599181  1
  P  P245  1  0.19613279  0.41713460  0.48542952  1
  P  P246  1  0.19448349  0.41579581  0.73552812  1
  P  P247  1  0.19724690  0.41738050  0.98463439  1
  P  P248  1  0.19613448  0.75027939  0.23461734  1
  P  P249  1  0.19870099  0.75080650  0.48505146  1
  P  P250  1  0.19737726  0.74990143  0.73461409  1
  P  P251  1  0.19719696  0.75044436  0.98648810  1
  P  P252  1  0.69527769  0.08209340  0.23605800  1
  P  P253  1  0.69707687  0.08361017  0.48400292  1
  P  P254  1  0.69792640  0.08342711  0.73501468  1
  P  P255  1  0.69718956  0.08373101  0.98579254  1
  P  P256  1  0.69582867  0.41706145  0.23530575  1
  P  P257  1  0.69609699  0.41608315  0.48569193  1
  P  P258  1  0.69549267  0.41671179  0.73445376  1
  P  P259  1  0.69481554  0.41608948  0.98632616  1
  P  P260  1  0.69567700  0.75086893  0.23558277  1
  P  P261  1  0.69565641  0.75049498  0.48452627  1
  P  P262  1  0.69510653  0.74974914  0.73618476  1
  P  P263  1  0.69396956  0.75001551  0.98567516  1
  P  P264  1  0.30504603  0.25061645  0.01495316  1
  P  P265  1  0.30496929  0.24939968  0.26383970  1
  P  P266  1  0.30336274  0.25105389  0.51456336  1
  P  P267  1  0.30264673  0.25015535  0.76564243  1
  P  P268  1  0.30368064  0.58317979  0.01389173  1
  P  P269  1  0.30177292  0.58353039  0.26474961  1
  P  P270  1  0.30442165  0.58295976  0.51522408  1
  P  P271  1  0.30549184  0.58303816  0.76464257  1
  P  P272  1  0.30348451  0.91637245  0.01612605  1
  P  P273  1  0.30452713  0.91731630  0.26424620  1
  P  P274  1  0.30466130  0.91627546  0.51360504  1
  P  P275  1  0.30481393  0.91718705  0.76409234  1
  P  P276  1  0.80246793  0.24932704  0.01579427  1
  P  P277  1  0.80497167  0.25069327  0.26367102  1
  P  P278  1  0.80230217  0.24989667  0.51424376  1
  P  P279  1  0.80283180  0.24964788  0.76523924  1
  P  P280  1  0.80289090  0.58336243  0.01386297  1
  P  P281  1  0.80343122  0.58364738  0.26445639  1
  P  P282  1  0.80390102  0.58258345  0.51556192  1
  P  P283  1  0.80510676  0.58293026  0.76519550  1
  P  P284  1  0.80144701  0.91724456  0.01541058  1
  P  P285  1  0.80314684  0.91535630  0.26536032  1
  P  P286  1  0.80278825  0.91751190  0.51310443  1
  P  P287  1  0.80326938  0.91706909  0.76527397  1
  O  O288  1  0.05579098  0.24925448  0.18647076  1
  O  O289  1  0.05595955  0.24959320  0.43687194  1
  O  O290  1  0.05837231  0.24986878  0.68780934  1
  O  O291  1  0.05701555  0.24968073  0.93629171  1
  O  O292  1  0.05935710  0.58374580  0.18745024  1
  O  O293  1  0.05706784  0.58330922  0.43631356  1
  O  O294  1  0.05578656  0.58362762  0.68625825  1
  O  O295  1  0.05949247  0.58335089  0.93804359  1
  O  O296  1  0.05952211  0.91688101  0.18755131  1
  O  O297  1  0.05947719  0.91635350  0.43712446  1
  O  O298  1  0.05698708  0.91659843  0.68569809  1
  O  O299  1  0.05991691  0.91687832  0.93815685  1
  O  O300  1  0.55661781  0.24995236  0.18631434  1
  O  O301  1  0.55950940  0.24972132  0.43786398  1
  O  O302  1  0.55618956  0.24973633  0.68606388  1
  O  O303  1  0.55765475  0.24936152  0.93827357  1
  O  O304  1  0.55722759  0.58333815  0.18624896  1
  O  O305  1  0.55581686  0.58352679  0.43675806  1
  O  O306  1  0.55542891  0.58306391  0.68691569  1
  O  O307  1  0.55761647  0.58339832  0.93791650  1
  O  O308  1  0.55863406  0.91678694  0.18771034  1
  O  O309  1  0.55885311  0.91699770  0.43690156  1
  O  O310  1  0.55631640  0.91700170  0.68584690  1
  O  O311  1  0.55849526  0.91739738  0.93849840  1
  O  O312  1  0.44020983  0.08290556  0.06279894  1
  O  O313  1  0.44189373  0.08299760  0.31147405  1
  O  O314  1  0.44453427  0.08306365  0.56281558  1
  O  O315  1  0.44308308  0.08352017  0.81445818  1
  O  O316  1  0.44146070  0.41699202  0.06219794  1
  O  O317  1  0.44379208  0.41671821  0.31356977  1
  O  O318  1  0.44209624  0.41638316  0.56214431  1
  O  O319  1  0.44263769  0.41627021  0.81377398  1
  O  O320  1  0.44135402  0.75021523  0.06213598  1
  O  O321  1  0.44389031  0.75043242  0.31286302  1
  O  O322  1  0.44162572  0.75057322  0.56153830  1
  O  O323  1  0.44359053  0.75016837  0.81445716  1
  O  O324  1  0.94110230  0.08262239  0.06192504  1
  O  O325  1  0.94400747  0.08246844  0.31369128  1
  O  O326  1  0.93977418  0.08306713  0.56243994  1
  O  O327  1  0.94057456  0.08309099  0.81297588  1
  O  O328  1  0.94275804  0.41675202  0.06356661  1
  O  O329  1  0.94094473  0.41683928  0.31262826  1
  O  O330  1  0.94106737  0.41616506  0.56207104  1
  O  O331  1  0.94462034  0.41708796  0.81351177  1
  O  O332  1  0.94322542  0.75031824  0.06385963  1
  O  O333  1  0.94130609  0.75081124  0.31158507  1
  O  O334  1  0.94361655  0.75016181  0.56331049  1
  O  O335  1  0.94359701  0.75011763  0.81424760  1
  O  O336  1  0.19220315  0.08364450  0.06354389  1
  O  O337  1  0.19094626  0.08339228  0.31233960  1
  O  O338  1  0.19313425  0.08325626  0.56073505  1
  O  O339  1  0.19415361  0.08369767  0.81171109  1
  O  O340  1  0.19346042  0.41660479  0.06138138  1
  O  O341  1  0.19092071  0.41602376  0.31273658  1
  O  O342  1  0.19120039  0.41707079  0.56216607  1
  O  O343  1  0.19092783  0.41702165  0.81231327  1
  O  O344  1  0.19257467  0.75023723  0.06311633  1
  O  O345  1  0.19381277  0.75043037  0.31146599  1
  O  O346  1  0.19504837  0.75021898  0.56170792  1
  O  O347  1  0.19401509  0.74944553  0.81143618  1
  O  O348  1  0.69333583  0.08351773  0.06248644  1
  O  O349  1  0.69102059  0.08290938  0.31278837  1
  O  O350  1  0.69422946  0.08320215  0.56076755  1
  O  O351  1  0.69360058  0.08343528  0.81167686  1
  O  O352  1  0.69127756  0.41629673  0.06314190  1
  O  O353  1  0.69111240  0.41712456  0.31204392  1
  O  O354  1  0.69119361  0.41721411  0.56235664  1
  O  O355  1  0.69184670  0.41705789  0.81127195  1
  O  O356  1  0.69040365  0.74991489  0.06259661  1
  O  O357  1  0.69107122  0.74996432  0.31226778  1
  O  O358  1  0.69264191  0.74980027  0.56135196  1
  O  O359  1  0.69047981  0.74924983  0.81291442  1
  O  O360  1  0.30923460  0.25035337  0.18708594  1
  O  O361  1  0.30684436  0.25045795  0.43777561  1
  O  O362  1  0.30664836  0.25038602  0.68890831  1
  O  O363  1  0.30825599  0.25050091  0.93809691  1
  O  O364  1  0.30594100  0.58331614  0.18805578  1
  O  O365  1  0.30669097  0.58269618  0.43837998  1
  O  O366  1  0.30998664  0.58293359  0.68786041  1
  O  O367  1  0.30823128  0.58338691  0.93718515  1
  O  O368  1  0.30925460  0.91655121  0.18759044  1
  O  O369  1  0.30940619  0.91684125  0.43687331  1
  O  O370  1  0.30910380  0.91719924  0.68734536  1
  O  O371  1  0.30658889  0.91627097  0.93934252  1
  O  O372  1  0.80908335  0.24966985  0.18693686  1
  O  O373  1  0.80569726  0.25036413  0.43750472  1
  O  O374  1  0.80594219  0.25082118  0.68845931  1
  O  O375  1  0.80617827  0.25033420  0.93907350  1
  O  O376  1  0.80593749  0.58366260  0.18766905  1
  O  O377  1  0.80695230  0.58317138  0.43875252  1
  O  O378  1  0.80940815  0.58304854  0.68841340  1
  O  O379  1  0.80829913  0.58309577  0.93724176  1
  O  O380  1  0.80701216  0.91609998  0.18866125  1
  O  O381  1  0.80792743  0.91659954  0.43652995  1
  O  O382  1  0.80621033  0.91584716  0.68846584  1
  O  O383  1  0.80539939  0.91640225  0.93876512  1
  O  O384  1  0.23509259  0.25021575  0.03972844  1
  O  O385  1  0.23490898  0.24961593  0.28782276  1
  O  O386  1  0.23363357  0.25051353  0.53939609  1
  O  O387  1  0.23264063  0.25003947  0.79016118  1
  O  O388  1  0.23330282  0.58335692  0.03766846  1
  O  O389  1  0.23177523  0.58373982  0.28918418  1
  O  O390  1  0.23491543  0.58360178  0.54112429  1
  O  O391  1  0.23530954  0.58298569  0.78820960  1
  O  O392  1  0.23347563  0.91676688  0.04090489  1
  O  O393  1  0.23401113  0.91652971  0.28748642  1
  O  O394  1  0.23425620  0.91710339  0.53727332  1
  O  O395  1  0.23492631  0.91701074  0.78856933  1
  O  O396  1  0.73244445  0.24969459  0.04054101  1
  O  O397  1  0.73486874  0.25045003  0.28762344  1
  O  O398  1  0.73237266  0.24960514  0.53923351  1
  O  O399  1  0.73322639  0.24961824  0.79060976  1
  O  O400  1  0.73241376  0.58352488  0.03706762  1
  O  O401  1  0.73395106  0.58342939  0.29027696  1
  O  O402  1  0.73411262  0.58341572  0.54054991  1
  O  O403  1  0.73492067  0.58287475  0.78896902  1
  O  O404  1  0.73132467  0.91683055  0.03981364  1
  O  O405  1  0.73290028  0.91621015  0.28939969  1
  O  O406  1  0.73238603  0.91727103  0.53685573  1
  O  O407  1  0.73360615  0.91714864  0.79050187  1
  O  O408  1  0.26615525  0.08284704  0.21236237  1
  O  O409  1  0.26609009  0.08291858  0.45904015  1
  O  O410  1  0.26631690  0.08407941  0.70907297  1
  O  O411  1  0.26748548  0.08312622  0.96337026  1
  O  O412  1  0.26523890  0.41699438  0.21168592  1
  O  O413  1  0.26653892  0.41717624  0.46186488  1
  O  O414  1  0.26455089  0.41636903  0.71126038  1
  O  O415  1  0.26733264  0.41674692  0.96027273  1
  O  O416  1  0.26578193  0.75028366  0.20916964  1
  O  O417  1  0.26870158  0.75005709  0.46015319  1
  O  O418  1  0.26712536  0.75050066  0.70996998  1
  O  O419  1  0.26749264  0.75017414  0.96235418  1
  O  O420  1  0.76536810  0.08224363  0.21222884  1
  O  O421  1  0.76702309  0.08364789  0.45869719  1
  O  O422  1  0.76791829  0.08338739  0.71052091  1
  O  O423  1  0.76724765  0.08358678  0.96120292  1
  O  O424  1  0.76621989  0.41713095  0.21182876  1
  O  O425  1  0.76656037  0.41646062  0.46207206  1
  O  O426  1  0.76536732  0.41632395  0.71004418  1
  O  O427  1  0.76467239  0.41612874  0.96143496  1
  O  O428  1  0.76598114  0.75027841  0.21158888  1
  O  O429  1  0.76545849  0.75010832  0.45971313  1
  O  O430  1  0.76511617  0.75018701  0.71210705  1
  O  O431  1  0.76399669  0.75018496  0.96133155  1
  O  O432  1  0.01693031  0.08281087  0.16197077  1
  O  O433  1  0.01750497  0.08264343  0.41503907  1
  O  O434  1  0.01447752  0.08295438  0.66295876  1
  O  O435  1  0.01490952  0.08361501  0.91356825  1
  O  O436  1  0.01544687  0.41646419  0.16519898  1
  O  O437  1  0.01641973  0.41634776  0.41264815  1
  O  O438  1  0.01661132  0.41776377  0.66230125  1
  O  O439  1  0.01818417  0.41678019  0.91516932  1
  O  O440  1  0.01789451  0.75077567  0.16431143  1
  O  O441  1  0.01556210  0.74998089  0.41251823  1
  O  O442  1  0.01637235  0.74968393  0.66570602  1
  O  O443  1  0.01661788  0.74904226  0.91593179  1
  O  O444  1  0.51420205  0.08369167  0.16362891  1
  O  O445  1  0.51743536  0.08228195  0.41161663  1
  O  O446  1  0.51680615  0.08314581  0.66553613  1
  O  O447  1  0.51508552  0.08341840  0.91688658  1
  O  O448  1  0.51724816  0.41651842  0.16217980  1
  O  O449  1  0.51794332  0.41697655  0.41429746  1
  O  O450  1  0.51674560  0.41663716  0.66327657  1
  O  O451  1  0.51475476  0.41658797  0.91581459  1
  O  O452  1  0.51725342  0.75021167  0.16187300  1
  O  O453  1  0.51746806  0.75048258  0.41421176  1
  O  O454  1  0.51484582  0.74992706  0.66350254  1
  O  O455  1  0.51677909  0.75010685  0.91589276  1
  O  O456  1  0.48238425  0.24988176  0.08576261  1
  O  O457  1  0.48559991  0.25061160  0.33658070  1
  O  O458  1  0.48462494  0.24982524  0.58330615  1
  O  O459  1  0.48187580  0.25055193  0.83816267  1
  O  O460  1  0.48459657  0.58338247  0.08454261  1
  O  O461  1  0.48385891  0.58352111  0.33386647  1
  O  O462  1  0.48197392  0.58323069  0.58535628  1
  O  O463  1  0.48226442  0.58331026  0.83764473  1
  O  O464  1  0.48340447  0.91675544  0.08763731  1
  O  O465  1  0.48418483  0.91646544  0.33617187  1
  O  O466  1  0.48287078  0.91653819  0.58431667  1
  O  O467  1  0.48438508  0.91602802  0.83748950  1
  O  O468  1  0.98194985  0.24950702  0.08509402  1
  O  O469  1  0.98375695  0.24910762  0.33458282  1
  O  O470  1  0.98444021  0.25019545  0.58653455  1
  O  O471  1  0.98438397  0.25068392  0.83418136  1
  O  O472  1  0.98557245  0.58319966  0.08655988  1
  O  O473  1  0.98457608  0.58360635  0.33435979  1
  O  O474  1  0.98209571  0.58260290  0.58457834  1
  O  O475  1  0.98388023  0.58306708  0.83775295  1
  O  O476  1  0.98593760  0.91656969  0.08621686  1
  O  O477  1  0.98430181  0.91721574  0.33663215  1
  O  O478  1  0.98425102  0.91606852  0.58398102  1
  O  O479  1  0.98475344  0.91673470  0.83773653  1
  O  O480  1  0.08602041  0.31395398  0.07721155  1
  O  O481  1  0.08739557  0.31454715  0.32772700  1
  O  O482  1  0.08769884  0.31617486  0.57839396  1
  O  O483  1  0.08834408  0.31610747  0.82783673  1
  O  O484  1  0.08876391  0.64991064  0.07786569  1
  O  O485  1  0.08918244  0.64722379  0.32706161  1
  O  O486  1  0.08564925  0.64803338  0.57655159  1
  O  O487  1  0.08766512  0.64739279  0.82760216  1
  O  O488  1  0.08968932  0.98181233  0.07770148  1
  O  O489  1  0.08797495  0.98271129  0.32743026  1
  O  O490  1  0.08822820  0.98124897  0.57631578  1
  O  O491  1  0.08807216  0.98202331  0.82808876  1
  O  O492  1  0.58625864  0.31557225  0.07676758  1
  O  O493  1  0.58928388  0.31532532  0.32856288  1
  O  O494  1  0.58824872  0.31604136  0.57749253  1
  O  O495  1  0.58585300  0.31475330  0.82839580  1
  O  O496  1  0.58868612  0.64822810  0.07714026  1
  O  O497  1  0.58750919  0.64884397  0.32794564  1
  O  O498  1  0.58600202  0.64740506  0.57734576  1
  O  O499  1  0.58537973  0.64954431  0.82808278  1
  O  O500  1  0.58719411  0.98130463  0.07733818  1
  O  O501  1  0.58815826  0.98129041  0.32663605  1
  O  O502  1  0.58679930  0.98183522  0.57624524  1
  O  O503  1  0.58768323  0.98113377  0.82823431  1
  O  O504  1  0.41072679  0.01812244  0.17276151  1
  O  O505  1  0.41371751  0.01724206  0.42121658  1
  O  O506  1  0.41341967  0.01704264  0.67155700  1
  O  O507  1  0.41087226  0.01922434  0.92381290  1
  O  O508  1  0.41379715  0.35096155  0.17210687  1
  O  O509  1  0.41390380  0.35203604  0.42346509  1
  O  O510  1  0.41311608  0.35184333  0.67214066  1
  O  O511  1  0.41061811  0.35193063  0.92312426  1
  O  O512  1  0.41360186  0.68561504  0.17236914  1
  O  O513  1  0.41305192  0.68629819  0.42239533  1
  O  O514  1  0.41110638  0.68543847  0.67093531  1
  O  O515  1  0.41297585  0.68419162  0.92366273  1
  O  O516  1  0.91330416  0.01833143  0.17241148  1
  O  O517  1  0.91351945  0.01680201  0.42281436  1
  O  O518  1  0.91089651  0.01776657  0.67235318  1
  O  O519  1  0.91119833  0.01845988  0.92339424  1
  O  O520  1  0.91174602  0.35062030  0.17241187  1
  O  O521  1  0.91257153  0.35151802  0.42279024  1
  O  O522  1  0.91340568  0.35238813  0.67275013  1
  O  O523  1  0.91386499  0.35275888  0.92273429  1
  O  O524  1  0.91399472  0.68513823  0.17338054  1
  O  O525  1  0.91134618  0.68645270  0.42134831  1
  O  O526  1  0.91287690  0.68376432  0.67198857  1
  O  O527  1  0.91276611  0.68375990  0.92302148  1
  O  O528  1  0.16257069  0.01715294  0.20271454  1
  O  O529  1  0.16233364  0.01726314  0.45166505  1
  O  O530  1  0.16244809  0.01957554  0.70231511  1
  O  O531  1  0.16418540  0.01729173  0.95374623  1
  O  O532  1  0.16184374  0.35207695  0.20234512  1
  O  O533  1  0.16259669  0.35221333  0.45188263  1
  O  O534  1  0.16111754  0.35038868  0.70310995  1
  O  O535  1  0.16293786  0.35252822  0.95191383  1
  O  O536  1  0.16170422  0.68533582  0.20242238  1
  O  O537  1  0.16437184  0.68592390  0.45243377  1
  O  O538  1  0.16389636  0.68460057  0.70184969  1
  O  O539  1  0.16370920  0.68546836  0.95304418  1
  O  O540  1  0.66179052  0.01690130  0.20339151  1
  O  O541  1  0.66273474  0.01869154  0.45136741  1
  O  O542  1  0.66423647  0.01843739  0.70195688  1
  O  O543  1  0.66329464  0.01873640  0.95298990  1
  O  O544  1  0.66238245  0.35208677  0.20184640  1
  O  O545  1  0.66299234  0.35083611  0.45260152  1
  O  O546  1  0.66105483  0.35181723  0.70213397  1
  O  O547  1  0.66119323  0.35069694  0.95391803  1
  O  O548  1  0.66180178  0.68618254  0.20196628  1
  O  O549  1  0.66134169  0.68559865  0.45179724  1
  O  O550  1  0.66188863  0.68462085  0.70276776  1
  O  O551  1  0.66036320  0.68489046  0.95259368  1
  O  O552  1  0.33858401  0.31598645  0.04763121  1
  O  O553  1  0.33860413  0.31428788  0.29719483  1
  O  O554  1  0.33703798  0.31629340  0.54704668  1
  O  O555  1  0.33650354  0.31519408  0.79850741  1
  O  O556  1  0.33706340  0.64812150  0.04737719  1
  O  O557  1  0.33568587  0.64864796  0.29725351  1
  O  O558  1  0.33932138  0.64795351  0.54690143  1
  O  O559  1  0.33907643  0.64797770  0.79801583  1
  O  O560  1  0.33768049  0.98132257  0.04868058  1
  O  O561  1  0.33748700  0.98254052  0.29762570  1
  O  O562  1  0.33843077  0.98104647  0.54719762  1
  O  O563  1  0.33833988  0.98222880  0.79717318  1
  O  O564  1  0.83681829  0.31415946  0.04859916  1
  O  O565  1  0.83812890  0.31605025  0.29638857  1
  O  O566  1  0.83609100  0.31488816  0.54727213  1
  O  O567  1  0.83671870  0.31475198  0.79819320  1
  O  O568  1  0.83608841  0.64836992  0.04745796  1
  O  O569  1  0.83748187  0.64893217  0.29654867  1
  O  O570  1  0.83852376  0.64735105  0.54817579  1
  O  O571  1  0.83876026  0.64787366  0.79846630  1
  O  O572  1  0.83517567  0.98237647  0.04799186  1
  O  O573  1  0.83747458  0.98005993  0.29848233  1
  O  O574  1  0.83597877  0.98280596  0.54593326  1
  O  O575  1  0.83746952  0.98230735  0.79706569  1
  O  O576  1  0.41030266  0.14842037  0.17233342  1
  O  O577  1  0.41404779  0.14732864  0.42197285  1
  O  O578  1  0.41272311  0.14736712  0.67185481  1
  O  O579  1  0.41119693  0.14925034  0.92319945  1
  O  O580  1  0.41359193  0.48117677  0.17256611  1
  O  O581  1  0.41368155  0.48192262  0.42284616  1
  O  O582  1  0.41308013  0.48200022  0.67176830  1
  O  O583  1  0.41103501  0.48194189  0.92293851  1
  O  O584  1  0.41384902  0.81578136  0.17224251  1
  O  O585  1  0.41368873  0.81629394  0.42211059  1
  O  O586  1  0.41195833  0.81601841  0.67114469  1
  O  O587  1  0.41243794  0.81413236  0.92420586  1
  O  O588  1  0.91340528  0.14844650  0.17188260  1
  O  O589  1  0.91307610  0.14677271  0.42328421  1
  O  O590  1  0.91069932  0.14787615  0.67251676  1
  O  O591  1  0.91097685  0.14843215  0.92263532  1
  O  O592  1  0.91121999  0.48080872  0.17306118  1
  O  O593  1  0.91259938  0.48152779  0.42274793  1
  O  O594  1  0.91283861  0.48253321  0.67172840  1
  O  O595  1  0.91458613  0.48280949  0.92297815  1
  O  O596  1  0.91352772  0.81514672  0.17345115  1
  O  O597  1  0.91269671  0.81664892  0.42147643  1
  O  O598  1  0.91244325  0.81411448  0.67272265  1
  O  O599  1  0.91292734  0.81403216  0.92394910  1
  O  O600  1  0.08575921  0.18385051  0.07705493  1
  O  O601  1  0.08756988  0.18418506  0.32798090  1
  O  O602  1  0.08823589  0.18593491  0.57780303  1
  O  O603  1  0.08840608  0.18595347  0.82670423  1
  O  O604  1  0.08999827  0.51975586  0.07744866  1
  O  O605  1  0.08787959  0.51705901  0.32740872  1
  O  O606  1  0.08630992  0.51797279  0.57720936  1
  O  O607  1  0.08714491  0.51726460  0.82817587  1
  O  O608  1  0.08987222  0.85165069  0.07800344  1
  O  O609  1  0.08838828  0.85266450  0.32679232  1
  O  O610  1  0.08847383  0.85133208  0.57639588  1
  O  O611  1  0.08831605  0.85174940  0.82826550  1
  O  O612  1  0.58653322  0.18564902  0.07647115  1
  O  O613  1  0.58866218  0.18479029  0.32787393  1
  O  O614  1  0.58916491  0.18600386  0.57677168  1
  O  O615  1  0.58512954  0.18467640  0.82793802  1
  O  O616  1  0.58844235  0.51807728  0.07699253  1
  O  O617  1  0.58775101  0.51848684  0.32800627  1
  O  O618  1  0.58560991  0.51742193  0.57758482  1
  O  O619  1  0.58622458  0.51931908  0.82777875  1
  O  O620  1  0.58726877  0.85134991  0.07781123  1
  O  O621  1  0.58791249  0.85118552  0.32730717  1
  O  O622  1  0.58711506  0.85194747  0.57647000  1
  O  O623  1  0.58777965  0.85067448  0.82926164  1
  O  O624  1  0.33919041  0.18573373  0.04770911  1
  O  O625  1  0.33833976  0.18402611  0.29656167  1
  O  O626  1  0.33746672  0.18591616  0.54699408  1
  O  O627  1  0.33683118  0.18529705  0.79838448  1
  O  O628  1  0.33666519  0.51784615  0.04716074  1
  O  O629  1  0.33559214  0.51863524  0.29770967  1
  O  O630  1  0.33841809  0.51767837  0.54763718  1
  O  O631  1  0.33900913  0.51802334  0.79778279  1
  O  O632  1  0.33734961  0.85125388  0.04882985  1
  O  O633  1  0.33833460  0.85261288  0.29778624  1
  O  O634  1  0.33767522  0.85099216  0.54676440  1
  O  O635  1  0.33847974  0.85220264  0.79731586  1
  O  O636  1  0.83650783  0.18415723  0.04821395  1
  O  O637  1  0.83835880  0.18560703  0.29701478  1
  O  O638  1  0.83639197  0.18468837  0.54627853  1
  O  O639  1  0.83724347  0.18457179  0.79697967  1
  O  O640  1  0.83603683  0.51831891  0.04738243  1
  O  O641  1  0.83773815  0.51853868  0.29666306  1
  O  O642  1  0.83764587  0.51722386  0.54778881  1
  O  O643  1  0.83872250  0.51786389  0.79835787  1
  O  O644  1  0.83532233  0.85230816  0.04846233  1
  O  O645  1  0.83655705  0.85008320  0.29801902  1
  O  O646  1  0.83599662  0.85263503  0.54713176  1
  O  O647  1  0.83720844  0.85212833  0.79837826  1
  O  O648  1  0.16219396  0.14720135  0.20161073  1
  O  O649  1  0.16181552  0.14725671  0.45119020  1
  O  O650  1  0.16272368  0.14974133  0.70299834  1
  O  O651  1  0.16360548  0.14743509  0.95321191  1
  O  O652  1  0.16171100  0.48232316  0.20346406  1
  O  O653  1  0.16256478  0.48215329  0.45234859  1
  O  O654  1  0.16057638  0.48052806  0.70191459  1
  O  O655  1  0.16359833  0.48252788  0.95191278  1
  O  O656  1  0.16186690  0.81548092  0.20251071  1
  O  O657  1  0.16503684  0.81593219  0.45232472  1
  O  O658  1  0.16308233  0.81482763  0.70240060  1
  O  O659  1  0.16410513  0.81578963  0.95344614  1
  O  O660  1  0.66178585  0.14701601  0.20259694  1
  O  O661  1  0.66292203  0.14876269  0.45179569  1
  O  O662  1  0.66415451  0.14846760  0.70222407  1
  O  O663  1  0.66356108  0.14902350  0.95309861  1
  O  O664  1  0.66226140  0.48193911  0.20202257  1
  O  O665  1  0.66263390  0.48096771  0.45187990  1
  O  O666  1  0.66166529  0.48177291  0.70153292  1
  O  O667  1  0.66112219  0.48121250  0.95336384  1
  O  O668  1  0.66232510  0.81615850  0.20266505  1
  O  O669  1  0.66159425  0.81559694  0.45216490  1
  O  O670  1  0.66132253  0.81477528  0.70329497  1
  O  O671  1  0.66009079  0.81516229  0.95321651  1
