# generated using pymatgen
data_Na2MnFe(PO4)2
_symmetry_space_group_name_H-M   'P 1'
_cell_length_a   21.08938172
_cell_length_b   18.94265541
_cell_length_c   20.04792782
_cell_angle_alpha   89.99946638
_cell_angle_beta   90.00351770
_cell_angle_gamma   89.99724531
_symmetry_Int_Tables_number   1
_chemical_formula_structural   Na2MnFe(PO4)2
_chemical_formula_sum   'Na96 Mn48 Fe48 P96 O384'
_cell_volume   8008.92441977
_cell_formula_units_Z   48
loop_
 _symmetry_equiv_pos_site_id
 _symmetry_equiv_pos_as_xyz
  1  'x, y, z'
loop_
 _atom_site_type_symbol
 _atom_site_label
 _atom_site_symmetry_multiplicity
 _atom_site_fract_x
 _atom_site_fract_y
 _atom_site_fract_z
 _atom_site_occupancy
  Na  Na0  1  -0.00042435  -0.00024450  -0.00040384  1
  Na  Na1  1  -0.00198248  -0.00085698  0.25109847  1
  Na  Na2  1  0.00037002  0.00049000  0.49972224  1
  Na  Na3  1  0.00119384  0.00017749  0.74952762  1
  Na  Na4  1  0.00030904  0.33436195  -0.00117799  1
  Na  Na5  1  -0.00087842  0.33296820  0.25081857  1
  Na  Na6  1  0.00047783  0.33424604  0.49961522  1
  Na  Na7  1  -0.00171716  0.33294497  0.75045707  1
  Na  Na8  1  0.00200798  0.66637898  -0.00014215  1
  Na  Na9  1  0.00285940  0.66698550  0.25042551  1
  Na  Na10  1  -0.00008107  0.66631221  0.50079855  1
  Na  Na11  1  -0.00075221  0.66598567  0.74915119  1
  Na  Na12  1  0.50070681  -0.00018280  -0.00018678  1
  Na  Na13  1  0.50068901  -0.00037975  0.25173663  1
  Na  Na14  1  0.50039062  -0.00058244  0.50060856  1
  Na  Na15  1  0.50050709  0.00002775  0.74853698  1
  Na  Na16  1  0.49761032  0.33306401  -0.00029376  1
  Na  Na17  1  0.49770039  0.33332880  0.25006611  1
  Na  Na18  1  0.49899565  0.33374782  0.50004076  1
  Na  Na19  1  0.49706975  0.33265094  0.74918301  1
  Na  Na20  1  0.50341390  0.66752315  0.00002822  1
  Na  Na21  1  0.50224295  0.66712752  0.24970995  1
  Na  Na22  1  0.49861981  0.66548006  0.50090317  1
  Na  Na23  1  0.50286751  0.66772740  0.74987632  1
  Na  Na24  1  0.24860367  -0.00056094  0.12508280  1
  Na  Na25  1  0.24952181  0.00016569  0.37527112  1
  Na  Na26  1  0.24923095  -0.00048452  0.62481066  1
  Na  Na27  1  0.25027618  -0.00020376  0.87516696  1
  Na  Na28  1  0.25071151  0.33381348  0.12449728  1
  Na  Na29  1  0.25325077  0.33477314  0.37568249  1
  Na  Na30  1  0.25391978  0.33427245  0.62446881  1
  Na  Na31  1  0.25175657  0.33374949  0.87504636  1
  Na  Na32  1  0.24769155  0.66600760  0.12529987  1
  Na  Na33  1  0.24906158  0.66604851  0.37519984  1
  Na  Na34  1  0.25050333  0.66707709  0.62484339  1
  Na  Na35  1  0.24705114  0.66538502  0.87420037  1
  Na  Na36  1  0.75190913  0.00039010  0.12533196  1
  Na  Na37  1  0.75172858  0.00012732  0.37405439  1
  Na  Na38  1  0.74856973  -0.00114437  0.62432058  1
  Na  Na39  1  0.74953564  -0.00019942  0.87575967  1
  Na  Na40  1  0.75128860  0.33431967  0.12614369  1
  Na  Na41  1  0.74861158  0.33288782  0.37393763  1
  Na  Na42  1  0.74850619  0.33333612  0.62459459  1
  Na  Na43  1  0.74992578  0.33380794  0.87537643  1
  Na  Na44  1  0.74726706  0.66580197  0.12505471  1
  Na  Na45  1  0.74937550  0.66667915  0.37539628  1
  Na  Na46  1  0.75068688  0.66682321  0.62560109  1
  Na  Na47  1  0.74882639  0.66627255  0.87476150  1
  Na  Na48  1  0.00009194  0.16734054  -0.00035544  1
  Na  Na49  1  -0.00072320  0.16692808  0.25022486  1
  Na  Na50  1  0.00067397  0.16583382  0.49955741  1
  Na  Na51  1  0.00158136  0.16615484  0.74961087  1
  Na  Na52  1  0.00143335  0.49987886  -0.00040968  1
  Na  Na53  1  0.00176879  0.50002314  0.25109854  1
  Na  Na54  1  -0.00042078  0.50085668  0.49976561  1
  Na  Na55  1  -0.00120181  0.50098426  0.75023587  1
  Na  Na56  1  -0.00009501  0.83260729  -0.00107287  1
  Na  Na57  1  -0.00143909  0.83398511  0.25087454  1
  Na  Na58  1  -0.00034436  0.83306220  0.50072924  1
  Na  Na59  1  -0.00054300  0.83252497  0.74954369  1
  Na  Na60  1  0.50077393  0.16625041  -0.00036690  1
  Na  Na61  1  0.49951063  0.16697606  0.25134698  1
  Na  Na62  1  0.49716721  0.16831475  0.50080801  1
  Na  Na63  1  0.49976521  0.16672639  0.74877490  1
  Na  Na64  1  0.49971997  0.49996316  -0.00011401  1
  Na  Na65  1  0.49908723  0.50009877  0.24890128  1
  Na  Na66  1  0.49878852  0.50053390  0.50034778  1
  Na  Na67  1  0.49934767  0.50038449  0.75030626  1
  Na  Na68  1  0.50189438  0.83297314  0.00020658  1
  Na  Na69  1  0.50191257  0.83273119  0.25111362  1
  Na  Na70  1  0.50261458  0.83190695  0.50060296  1
  Na  Na71  1  0.50114622  0.83310136  0.74847902  1
  Na  Na72  1  0.24849948  0.16748906  0.12517954  1
  Na  Na73  1  0.25081396  0.16616301  0.37575082  1
  Na  Na74  1  0.25129775  0.16651755  0.62395784  1
  Na  Na75  1  0.24982448  0.16700677  0.87408054  1
  Na  Na76  1  0.24914334  0.50045395  0.12457968  1
  Na  Na77  1  0.25169982  0.50026588  0.37555748  1
  Na  Na78  1  0.25178471  0.50084481  0.62425922  1
  Na  Na79  1  0.25088309  0.49972595  0.87525528  1
  Na  Na80  1  0.24876558  0.83317059  0.12508719  1
  Na  Na81  1  0.24953573  0.83302558  0.37491887  1
  Na  Na82  1  0.24928255  0.83323149  0.62605707  1
  Na  Na83  1  0.24861518  0.83364163  0.87493238  1
  Na  Na84  1  0.75141021  0.16643038  0.12523319  1
  Na  Na85  1  0.75102223  0.16634357  0.37347318  1
  Na  Na86  1  0.74845771  0.16732478  0.62519899  1
  Na  Na87  1  0.74921328  0.16721403  0.87596747  1
  Na  Na88  1  0.74872875  0.50055120  0.12494328  1
  Na  Na89  1  0.74883938  0.50009934  0.37540630  1
  Na  Na90  1  0.75124099  0.49970160  0.62466150  1
  Na  Na91  1  0.75027432  0.50091193  0.87469908  1
  Na  Na92  1  0.75003977  0.83273795  0.12634687  1
  Na  Na93  1  0.74998663  0.83302400  0.37436896  1
  Na  Na94  1  0.74909953  0.83258022  0.62425094  1
  Na  Na95  1  0.74833998  0.83297642  0.87554459  1
  Mn  Mn96  1  0.10904408  0.41660801  0.37275747  1
  Mn  Mn97  1  0.10717681  0.75003981  0.62242046  1
  Mn  Mn98  1  0.35807429  0.08341793  0.25245949  1
  Mn  Mn99  1  0.39230457  0.58439929  0.12669556  1
  Mn  Mn100  1  0.35749008  0.74968879  0.00152335  1
  Mn  Mn101  1  0.89205570  0.24973451  0.37794877  1
  Mn  Mn102  1  0.60724681  0.41618389  0.12270232  1
  Mn  Mn103  1  0.35766160  0.08307800  0.00266842  1
  Mn  Mn104  1  0.14131567  0.91636410  0.24793506  1
  Mn  Mn105  1  0.64191454  0.58291012  0.49758428  1
  Mn  Mn106  1  0.35816946  0.74948761  0.25240544  1
  Mn  Mn107  1  0.85804586  0.08341460  0.00247534  1
  Mn  Mn108  1  0.60761951  0.08321522  0.87231171  1
  Mn  Mn109  1  0.39272861  0.58436816  0.87743309  1
  Mn  Mn110  1  0.14303230  0.25103262  0.74699410  1
  Mn  Mn111  1  0.89263399  0.58294458  0.12759288  1
  Mn  Mn112  1  0.64326914  0.91670678  0.24790295  1
  Mn  Mn113  1  0.64206240  0.25086927  0.99824964  1
  Mn  Mn114  1  0.85771870  0.74899418  0.25250264  1
  Mn  Mn115  1  0.14369006  0.25041540  0.49785848  1
  Mn  Mn116  1  0.14258079  0.25105226  0.24807476  1
  Mn  Mn117  1  0.89165402  0.25035482  0.87686148  1
  Mn  Mn118  1  0.10775821  0.74996115  0.12245593  1
  Mn  Mn119  1  0.14219660  0.91651210  0.74758756  1
  Mn  Mn120  1  0.64226766  0.25010994  0.24749757  1
  Mn  Mn121  1  0.39253539  0.91599462  0.37806663  1
  Mn  Mn122  1  0.85711538  0.41639464  0.50214305  1
  Mn  Mn123  1  0.10696904  0.08382415  0.12279985  1
  Mn  Mn124  1  0.89182195  0.91653143  0.62733038  1
  Mn  Mn125  1  0.10815017  0.08294097  0.87275124  1
  Mn  Mn126  1  0.39275534  0.91609571  0.62659126  1
  Mn  Mn127  1  0.39215315  0.91658848  0.12689608  1
  Mn  Mn128  1  0.10813342  0.41729686  0.87182137  1
  Mn  Mn129  1  0.60697275  0.41644614  0.87245426  1
  Mn  Mn130  1  0.85814793  0.41714880  0.00289449  1
  Mn  Mn131  1  0.35804807  0.74985609  0.75272365  1
  Mn  Mn132  1  0.35773392  0.08329601  0.75218999  1
  Mn  Mn133  1  0.89165300  0.91601821  0.87683747  1
  Mn  Mn134  1  0.85736342  0.74965284  0.00207071  1
  Mn  Mn135  1  0.60711965  0.41719631  0.62320448  1
  Mn  Mn136  1  0.60776550  0.08372390  0.37339193  1
  Mn  Mn137  1  0.85718484  0.08333392  0.75193392  1
  Mn  Mn138  1  0.60795884  0.08336671  0.62190361  1
  Mn  Mn139  1  0.64208021  0.91643176  0.99804520  1
  Mn  Mn140  1  0.39143786  0.24893177  0.12718617  1
  Mn  Mn141  1  0.89262200  0.58406257  0.37681695  1
  Mn  Mn142  1  0.89149174  0.25041155  0.62696833  1
  Mn  Mn143  1  0.10800872  0.41620741  0.62310912  1
  Fe  Fe144  1  0.89274520  0.58360813  0.87656035  1
  Fe  Fe145  1  0.85608996  0.74961901  0.75187634  1
  Fe  Fe146  1  0.60605993  0.41721925  0.37310049  1
  Fe  Fe147  1  0.89253827  0.58301089  0.62686931  1
  Fe  Fe148  1  0.85711986  0.75009586  0.50142379  1
  Fe  Fe149  1  0.64211587  0.91649840  0.74844988  1
  Fe  Fe150  1  0.85752563  0.41700976  0.25170446  1
  Fe  Fe151  1  0.60782216  0.75064927  0.12334327  1
  Fe  Fe152  1  0.35672402  0.08239185  0.50165470  1
  Fe  Fe153  1  0.10703654  0.08295298  0.37340740  1
  Fe  Fe154  1  0.85797360  0.08389689  0.25166526  1
  Fe  Fe155  1  0.64183416  0.58253154  0.24889917  1
  Fe  Fe156  1  0.60824089  0.08309110  0.12411047  1
  Fe  Fe157  1  0.14234398  0.25023903  0.99819932  1
  Fe  Fe158  1  0.64347071  0.58300517  0.74813846  1
  Fe  Fe159  1  0.89304313  0.91619785  0.37751416  1
  Fe  Fe160  1  0.10773719  0.41611386  0.12376491  1
  Fe  Fe161  1  0.10767507  0.08354479  0.62251186  1
  Fe  Fe162  1  0.85672205  0.41702602  0.75118813  1
  Fe  Fe163  1  0.10757611  0.75061870  0.37444482  1
  Fe  Fe164  1  0.64260102  0.58272713  0.99776317  1
  Fe  Fe165  1  0.10681828  0.74974444  0.87304500  1
  Fe  Fe166  1  0.35743489  0.75049223  0.50127806  1
  Fe  Fe167  1  0.14267881  0.58277954  0.74770851  1
  Fe  Fe168  1  0.39273054  0.25024687  0.37704599  1
  Fe  Fe169  1  0.14170129  0.91644978  0.99776461  1
  Fe  Fe170  1  0.89324646  0.25032575  0.12629636  1
  Fe  Fe171  1  0.14241766  0.58314384  0.99759974  1
  Fe  Fe172  1  0.60783279  0.74939760  0.62269673  1
  Fe  Fe173  1  0.35747879  0.41744886  0.75204077  1
  Fe  Fe174  1  0.14360960  0.58376816  0.49870907  1
  Fe  Fe175  1  0.85729591  0.08335682  0.50172188  1
  Fe  Fe176  1  0.14255691  0.91610935  0.49845082  1
  Fe  Fe177  1  0.89272544  0.91662560  0.12641891  1
  Fe  Fe178  1  0.60747058  0.74876075  0.37408575  1
  Fe  Fe179  1  0.39265295  0.58370377  0.37626782  1
  Fe  Fe180  1  0.35841659  0.41756831  0.50166862  1
  Fe  Fe181  1  0.14346745  0.58275107  0.24874944  1
  Fe  Fe182  1  0.64161507  0.25052666  0.74862280  1
  Fe  Fe183  1  0.60770599  0.75055808  0.87268564  1
  Fe  Fe184  1  0.39244126  0.24896765  0.87687009  1
  Fe  Fe185  1  0.64175569  0.24947742  0.49798883  1
  Fe  Fe186  1  0.39306714  0.91656831  0.87671006  1
  Fe  Fe187  1  0.35618498  0.41707860  0.00156549  1
  Fe  Fe188  1  0.39306194  0.25021798  0.62696286  1
  Fe  Fe189  1  0.35734380  0.41720550  0.25151461  1
  Fe  Fe190  1  0.39258920  0.58378343  0.62733116  1
  Fe  Fe191  1  0.64375893  0.91708832  0.49775223  1
  P  P192  1  0.05287210  0.25132895  0.10971010  1
  P  P193  1  0.05387031  0.24926083  0.36038977  1
  P  P194  1  0.05328717  0.24984010  0.60947684  1
  P  P195  1  0.05459798  0.25035228  0.86040217  1
  P  P196  1  0.05552231  0.58183828  0.11079042  1
  P  P197  1  0.05620669  0.58447064  0.36127699  1
  P  P198  1  0.05390853  0.58280853  0.61047386  1
  P  P199  1  0.05428149  0.58410520  0.85988572  1
  P  P200  1  0.05216850  0.91672341  0.10953038  1
  P  P201  1  0.05368274  0.91627976  0.36202750  1
  P  P202  1  0.05385429  0.91720321  0.60921096  1
  P  P203  1  0.05402074  0.91552710  0.86050607  1
  P  P204  1  0.55280624  0.24934397  0.11013299  1
  P  P205  1  0.55312156  0.25105309  0.36144769  1
  P  P206  1  0.55384666  0.25059305  0.61039309  1
  P  P207  1  0.55201527  0.25030354  0.85915985  1
  P  P208  1  0.55525922  0.58374667  0.11040481  1
  P  P209  1  0.55240761  0.58292341  0.35995215  1
  P  P210  1  0.55354975  0.58369530  0.61144133  1
  P  P211  1  0.55529501  0.58387175  0.86028256  1
  P  P212  1  0.55383461  0.91701699  0.11066415  1
  P  P213  1  0.55536884  0.91584024  0.36189908  1
  P  P214  1  0.55610188  0.91567886  0.61017177  1
  P  P215  1  0.55282998  0.91610093  0.85904060  1
  P  P216  1  0.44846280  0.08281418  0.14056044  1
  P  P217  1  0.44600465  0.08372030  0.39125207  1
  P  P218  1  0.44534627  0.08346178  0.63833768  1
  P  P219  1  0.44638480  0.08287992  0.88957154  1
  P  P220  1  0.44407460  0.41693647  0.13911693  1
  P  P221  1  0.44555052  0.41748305  0.38902327  1
  P  P222  1  0.44429259  0.41736770  0.63926035  1
  P  P223  1  0.44423525  0.41619453  0.88939260  1
  P  P224  1  0.44833160  0.75016884  0.13996913  1
  P  P225  1  0.44765595  0.74886165  0.39072615  1
  P  P226  1  0.44661976  0.74927519  0.63867863  1
  P  P227  1  0.44849696  0.75094817  0.88983693  1
  P  P228  1  0.94608202  0.08352461  0.14052397  1
  P  P229  1  0.94579413  0.08244335  0.38959032  1
  P  P230  1  0.94661969  0.08342003  0.63879073  1
  P  P231  1  0.94647944  0.08329886  0.88968808  1
  P  P232  1  0.94790123  0.41641581  0.14076896  1
  P  P233  1  0.94612103  0.41730564  0.38929825  1
  P  P234  1  0.94584514  0.41748207  0.64053051  1
  P  P235  1  0.94506645  0.41814058  0.88850482  1
  P  P236  1  0.94675023  0.74995559  0.14000847  1
  P  P237  1  0.94728969  0.75028180  0.39085210  1
  P  P238  1  0.94400926  0.74908822  0.63936504  1
  P  P239  1  0.94602583  0.74854125  0.88843434  1
  P  P240  1  0.19539772  0.08351093  0.23616639  1
  P  P241  1  0.19587302  0.08251304  0.48568378  1
  P  P242  1  0.19611822  0.08356186  0.73378199  1
  P  P243  1  0.19615723  0.08349791  0.98514817  1
  P  P244  1  0.19785333  0.41747066  0.23494519  1
  P  P245  1  0.19877794  0.41766974  0.48550127  1
  P  P246  1  0.19854204  0.41769883  0.73458914  1
  P  P247  1  0.19588850  0.41651725  0.98599686  1
  P  P248  1  0.19546217  0.74917679  0.23658113  1
  P  P249  1  0.19723208  0.75003104  0.48499663  1
  P  P250  1  0.19515722  0.74882315  0.73604982  1
  P  P251  1  0.19539121  0.74981977  0.98401458  1
  P  P252  1  0.69783863  0.08330688  0.23471388  1
  P  P253  1  0.69805734  0.08340448  0.48463048  1
  P  P254  1  0.69607229  0.08337403  0.73495358  1
  P  P255  1  0.69551328  0.08347898  0.98627752  1
  P  P256  1  0.69604934  0.41744522  0.23634806  1
  P  P257  1  0.69510663  0.41585036  0.48421599  1
  P  P258  1  0.69725376  0.41719593  0.73521969  1
  P  P259  1  0.69657069  0.41738544  0.98493869  1
  P  P260  1  0.69460147  0.74863734  0.23624511  1
  P  P261  1  0.69617665  0.75020451  0.48568504  1
  P  P262  1  0.69537376  0.74963334  0.73559564  1
  P  P263  1  0.69452289  0.74914844  0.98555510  1
  P  P264  1  0.30300420  0.25027875  0.01359785  1
  P  P265  1  0.30409763  0.25094443  0.26585609  1
  P  P266  1  0.30637885  0.24992727  0.51405841  1
  P  P267  1  0.30557543  0.25094036  0.76415069  1
  P  P268  1  0.30191693  0.58343536  0.01455327  1
  P  P269  1  0.30319210  0.58283398  0.26531945  1
  P  P270  1  0.30500629  0.58442857  0.51408365  1
  P  P271  1  0.30359459  0.58311953  0.76407345  1
  P  P272  1  0.30264118  0.91604672  0.01389991  1
  P  P273  1  0.30315832  0.91640327  0.26538366  1
  P  P274  1  0.30211309  0.91604986  0.51483666  1
  P  P275  1  0.30421035  0.91632788  0.76584557  1
  P  P276  1  0.80395129  0.25053899  0.01616117  1
  P  P277  1  0.80530408  0.25051414  0.26346282  1
  P  P278  1  0.80143598  0.24927742  0.51465236  1
  P  P279  1  0.80139469  0.25082829  0.76475173  1
  P  P280  1  0.80311762  0.58376955  0.01420666  1
  P  P281  1  0.80184395  0.58240533  0.26504021  1
  P  P282  1  0.80389208  0.58420190  0.51540103  1
  P  P283  1  0.80415252  0.58360410  0.76403034  1
  P  P284  1  0.80372279  0.91595660  0.01594813  1
  P  P285  1  0.80618602  0.91703733  0.26449933  1
  P  P286  1  0.80388386  0.91641643  0.51334711  1
  P  P287  1  0.80143344  0.91547310  0.76464240  1
  O  O288  1  0.05653652  0.25073352  0.18639685  1
  O  O289  1  0.05756831  0.25015291  0.43711813  1
  O  O290  1  0.05655991  0.25060591  0.68625370  1
  O  O291  1  0.05911738  0.25082144  0.93717496  1
  O  O292  1  0.05975707  0.58252692  0.18751162  1
  O  O293  1  0.06026070  0.58336339  0.43806644  1
  O  O294  1  0.05876625  0.58270041  0.68714391  1
  O  O295  1  0.05910873  0.58300305  0.93663173  1
  O  O296  1  0.05570912  0.91657179  0.18627855  1
  O  O297  1  0.05847254  0.91624934  0.43865460  1
  O  O298  1  0.05687367  0.91629523  0.68597076  1
  O  O299  1  0.05802939  0.91620989  0.93727025  1
  O  O300  1  0.55594756  0.25043169  0.18696520  1
  O  O301  1  0.55783077  0.25016616  0.43811506  1
  O  O302  1  0.55890180  0.25050792  0.68709105  1
  O  O303  1  0.55630879  0.25078646  0.93582348  1
  O  O304  1  0.55880138  0.58250712  0.18721532  1
  O  O305  1  0.55571582  0.58274130  0.43661510  1
  O  O306  1  0.55890047  0.58302694  0.68804451  1
  O  O307  1  0.55901610  0.58263703  0.93705899  1
  O  O308  1  0.55684395  0.91699263  0.18747490  1
  O  O309  1  0.55978711  0.91677455  0.43863041  1
  O  O310  1  0.55980388  0.91661645  0.68695656  1
  O  O311  1  0.55657566  0.91665828  0.93573531  1
  O  O312  1  0.44423477  0.08292801  0.06385830  1
  O  O313  1  0.44339577  0.08286333  0.31442126  1
  O  O314  1  0.44075807  0.08237206  0.56162656  1
  O  O315  1  0.44368380  0.08307757  0.81279255  1
  O  O316  1  0.43938656  0.41718636  0.06235297  1
  O  O317  1  0.44136439  0.41744503  0.31231080  1
  O  O318  1  0.44093572  0.41774151  0.56237210  1
  O  O319  1  0.44076031  0.41744414  0.81255413  1
  O  O320  1  0.44398234  0.74983615  0.06333726  1
  O  O321  1  0.44411367  0.74982771  0.31401393  1
  O  O322  1  0.44135574  0.74997928  0.56210882  1
  O  O323  1  0.44461303  0.74999964  0.81313548  1
  O  O324  1  0.94373275  0.08362270  0.06369491  1
  O  O325  1  0.94114613  0.08346110  0.31292216  1
  O  O326  1  0.94105514  0.08347511  0.56215013  1
  O  O327  1  0.94320667  0.08329664  0.81286143  1
  O  O328  1  0.94437731  0.41749910  0.06400284  1
  O  O329  1  0.94132809  0.41738544  0.31244761  1
  O  O330  1  0.94291104  0.41684665  0.56372667  1
  O  O331  1  0.94009656  0.41729145  0.81183346  1
  O  O332  1  0.94370375  0.74890793  0.06330778  1
  O  O333  1  0.94367950  0.74927131  0.31414150  1
  O  O334  1  0.93999114  0.74997381  0.56265220  1
  O  O335  1  0.94088721  0.74929887  0.81178256  1
  O  O336  1  0.19313363  0.08353545  0.06197586  1
  O  O337  1  0.19090645  0.08322540  0.31291234  1
  O  O338  1  0.19134970  0.08333072  0.56241375  1
  O  O339  1  0.19307325  0.08338811  0.81055426  1
  O  O340  1  0.19161175  0.41618881  0.06274300  1
  O  O341  1  0.19471269  0.41664608  0.31131595  1
  O  O342  1  0.19474984  0.41692919  0.56230695  1
  O  O343  1  0.19467571  0.41700801  0.81125331  1
  O  O344  1  0.19290041  0.75010322  0.06110423  1
  O  O345  1  0.19147798  0.75036962  0.31316926  1
  O  O346  1  0.19358347  0.75010751  0.56192649  1
  O  O347  1  0.19073932  0.74943861  0.81261032  1
  O  O348  1  0.69144057  0.08329321  0.06300990  1
  O  O349  1  0.69346266  0.08328127  0.31134709  1
  O  O350  1  0.69422665  0.08345455  0.56121368  1
  O  O351  1  0.69362235  0.08336089  0.81180184  1
  O  O352  1  0.69330042  0.41660477  0.06166560  1
  O  O353  1  0.69071069  0.41684553  0.31297229  1
  O  O354  1  0.69215028  0.41691617  0.56096169  1
  O  O355  1  0.69366705  0.41730013  0.81188155  1
  O  O356  1  0.69089674  0.75030818  0.06234800  1
  O  O357  1  0.69056425  0.74926120  0.31304079  1
  O  O358  1  0.69176700  0.74905498  0.56239360  1
  O  O359  1  0.69115748  0.74993212  0.81236714  1
  O  O360  1  0.30624682  0.24969751  0.18897258  1
  O  O361  1  0.30979116  0.25009016  0.43724113  1
  O  O362  1  0.30957254  0.24975239  0.68732414  1
  O  O363  1  0.30789593  0.24929303  0.93698693  1
  O  O364  1  0.30654108  0.58402691  0.18857572  1
  O  O365  1  0.30936155  0.58427474  0.43741772  1
  O  O366  1  0.30842590  0.58431703  0.68734939  1
  O  O367  1  0.30614065  0.58422968  0.93795317  1
  O  O368  1  0.30639790  0.91632938  0.18854676  1
  O  O369  1  0.30588454  0.91609448  0.43823061  1
  O  O370  1  0.30777335  0.91599649  0.68894272  1
  O  O371  1  0.30836005  0.91602083  0.93736176  1
  O  O372  1  0.80966426  0.25068476  0.18683642  1
  O  O373  1  0.80553002  0.24980151  0.43794168  1
  O  O374  1  0.80513003  0.25035025  0.68806554  1
  O  O375  1  0.80682134  0.25052475  0.93933197  1
  O  O376  1  0.80573266  0.58309459  0.18841837  1
  O  O377  1  0.80697905  0.58375806  0.43853906  1
  O  O378  1  0.80853610  0.58338083  0.68737939  1
  O  O379  1  0.80823221  0.58398570  0.93758267  1
  O  O380  1  0.81001601  0.91613534  0.18775890  1
  O  O381  1  0.80848628  0.91615265  0.43664979  1
  O  O382  1  0.80523368  0.91587878  0.68795808  1
  O  O383  1  0.80655705  0.91579912  0.93909231  1
  O  O384  1  0.23273538  0.25057378  0.03761573  1
  O  O385  1  0.23466427  0.25067256  0.29165895  1
  O  O386  1  0.23639962  0.25033568  0.53862487  1
  O  O387  1  0.23556758  0.25043912  0.78829050  1
  O  O388  1  0.23175838  0.58352803  0.03871586  1
  O  O389  1  0.23323647  0.58283550  0.29002450  1
  O  O390  1  0.23455083  0.58427239  0.53788720  1
  O  O391  1  0.23335685  0.58266071  0.78787183  1
  O  O392  1  0.23215012  0.91605224  0.03720239  1
  O  O393  1  0.23344820  0.91651254  0.29022805  1
  O  O394  1  0.23211595  0.91605385  0.53962322  1
  O  O395  1  0.23427904  0.91652434  0.78987815  1
  O  O396  1  0.73430567  0.25059871  0.04128233  1
  O  O397  1  0.73518476  0.25003274  0.28756143  1
  O  O398  1  0.73134846  0.24994840  0.53897279  1
  O  O399  1  0.73137807  0.25067938  0.78960456  1
  O  O400  1  0.73278450  0.58338049  0.03769960  1
  O  O401  1  0.73188205  0.58302315  0.28980537  1
  O  O402  1  0.73405904  0.58330039  0.54007395  1
  O  O403  1  0.73370944  0.58387157  0.78771314  1
  O  O404  1  0.73409939  0.91625127  0.04105914  1
  O  O405  1  0.73602281  0.91633047  0.28849237  1
  O  O406  1  0.73359535  0.91621463  0.53728891  1
  O  O407  1  0.73143344  0.91596182  0.78938348  1
  O  O408  1  0.26538293  0.08357115  0.21192727  1
  O  O409  1  0.26638637  0.08296708  0.46225148  1
  O  O410  1  0.26596341  0.08316545  0.70914023  1
  O  O411  1  0.26573081  0.08336465  0.95967306  1
  O  O412  1  0.26782105  0.41728015  0.20986602  1
  O  O413  1  0.26910168  0.41756845  0.46165767  1
  O  O414  1  0.26851997  0.41759402  0.71003658  1
  O  O415  1  0.26613496  0.41678129  0.96184952  1
  O  O416  1  0.26530302  0.74928529  0.21170478  1
  O  O417  1  0.26732354  0.74971050  0.46057938  1
  O  O418  1  0.26520065  0.74980155  0.71193774  1
  O  O419  1  0.26495878  0.74946644  0.95859703  1
  O  O420  1  0.76812490  0.08357649  0.21107025  1
  O  O421  1  0.76805393  0.08331428  0.45979155  1
  O  O422  1  0.76556573  0.08324480  0.70904211  1
  O  O423  1  0.76545842  0.08347101  0.96193921  1
  O  O424  1  0.76639321  0.41727516  0.21265714  1
  O  O425  1  0.76493656  0.41654160  0.45936375  1
  O  O426  1  0.76721875  0.41708224  0.71029192  1
  O  O427  1  0.76625920  0.41726235  0.95998199  1
  O  O428  1  0.76468674  0.74920612  0.21220468  1
  O  O429  1  0.76653733  0.74992932  0.46180755  1
  O  O430  1  0.76573765  0.74918956  0.71177454  1
  O  O431  1  0.76444880  0.74968751  0.96107019  1
  O  O432  1  0.01566250  0.08323401  0.16619513  1
  O  O433  1  0.01627683  0.08281843  0.41297138  1
  O  O434  1  0.01706501  0.08304970  0.66198552  1
  O  O435  1  0.01608736  0.08335776  0.91480668  1
  O  O436  1  0.01796101  0.41652392  0.16544851  1
  O  O437  1  0.01609376  0.41760182  0.41302221  1
  O  O438  1  0.01549401  0.41682769  0.66583233  1
  O  O439  1  0.01524530  0.41785964  0.91205677  1
  O  O440  1  0.01648258  0.75012507  0.16528330  1
  O  O441  1  0.01729723  0.74989731  0.41553345  1
  O  O442  1  0.01427719  0.74964203  0.66308459  1
  O  O443  1  0.01627570  0.74894527  0.91225206  1
  O  O444  1  0.51835059  0.08319776  0.16544898  1
  O  O445  1  0.51569943  0.08366367  0.41649994  1
  O  O446  1  0.51537050  0.08333993  0.66219744  1
  O  O447  1  0.51598556  0.08308663  0.91494166  1
  O  O448  1  0.51422547  0.41658507  0.16275465  1
  O  O449  1  0.51577838  0.41737760  0.41339895  1
  O  O450  1  0.51421272  0.41692733  0.66387939  1
  O  O451  1  0.51422786  0.41668711  0.91379696  1
  O  O452  1  0.51845017  0.75014548  0.16414809  1
  O  O453  1  0.51779311  0.74881071  0.41520311  1
  O  O454  1  0.51705912  0.74987773  0.66197826  1
  O  O455  1  0.51859169  0.75035854  0.91413430  1
  O  O456  1  0.48318995  0.24965907  0.08486838  1
  O  O457  1  0.48272244  0.25051865  0.33782547  1
  O  O458  1  0.48327322  0.25097218  0.58748589  1
  O  O459  1  0.48183389  0.24980777  0.83520347  1
  O  O460  1  0.48528264  0.58357219  0.08579665  1
  O  O461  1  0.48242428  0.58344240  0.33499420  1
  O  O462  1  0.48314970  0.58330114  0.58805009  1
  O  O463  1  0.48525692  0.58391233  0.83604435  1
  O  O464  1  0.48434811  0.91642464  0.08495492  1
  O  O465  1  0.48531073  0.91605906  0.33787601  1
  O  O466  1  0.48593149  0.91582122  0.58611325  1
  O  O467  1  0.48288268  0.91649766  0.83422441  1
  O  O468  1  0.98279523  0.25082631  0.08511725  1
  O  O469  1  0.98400162  0.24949475  0.33585488  1
  O  O470  1  0.98362484  0.25033127  0.58424748  1
  O  O471  1  0.98451653  0.24987613  0.83647776  1
  O  O472  1  0.98552308  0.58291365  0.08647567  1
  O  O473  1  0.98604962  0.58381842  0.33706143  1
  O  O474  1  0.98344922  0.58339218  0.58720800  1
  O  O475  1  0.98388586  0.58357303  0.83643036  1
  O  O476  1  0.98211225  0.91650624  0.08502638  1
  O  O477  1  0.98336937  0.91637093  0.33819696  1
  O  O478  1  0.98403496  0.91671874  0.58455044  1
  O  O479  1  0.98415103  0.91605318  0.83576965  1
  O  O480  1  0.08663728  0.31651440  0.07712191  1
  O  O481  1  0.08768563  0.31429205  0.32760486  1
  O  O482  1  0.08768274  0.31481632  0.57702834  1
  O  O483  1  0.08772334  0.31552267  0.82699579  1
  O  O484  1  0.08973711  0.64653134  0.07741195  1
  O  O485  1  0.08924433  0.65003804  0.32880750  1
  O  O486  1  0.08756745  0.64778468  0.57720888  1
  O  O487  1  0.08741428  0.64925930  0.82679867  1
  O  O488  1  0.08606603  0.98172546  0.07692152  1
  O  O489  1  0.08687745  0.98131572  0.32857030  1
  O  O490  1  0.08796969  0.98217041  0.57686824  1
  O  O491  1  0.08797248  0.98040428  0.82751748  1
  O  O492  1  0.58678444  0.31437608  0.07733265  1
  O  O493  1  0.58595908  0.31630581  0.32813626  1
  O  O494  1  0.58706713  0.31550151  0.57697819  1
  O  O495  1  0.58542631  0.31536373  0.82579415  1
  O  O496  1  0.58906437  0.64901782  0.07825590  1
  O  O497  1  0.58695367  0.64779585  0.32769856  1
  O  O498  1  0.58662194  0.64876313  0.57799804  1
  O  O499  1  0.58914720  0.64901413  0.82785935  1
  O  O500  1  0.58766642  0.98225282  0.07833954  1
  O  O501  1  0.58888974  0.98077433  0.32848022  1
  O  O502  1  0.58980279  0.98053273  0.57679094  1
  O  O503  1  0.58706773  0.98093593  0.82618242  1
  O  O504  1  0.41466964  0.01774687  0.17322403  1
  O  O505  1  0.41164629  0.01874756  0.42383731  1
  O  O506  1  0.41200422  0.01848393  0.67177296  1
  O  O507  1  0.41251251  0.01754417  0.92182898  1
  O  O508  1  0.41033620  0.35212737  0.17234728  1
  O  O509  1  0.41195095  0.35258078  0.42234157  1
  O  O510  1  0.41031097  0.35228169  0.67163715  1
  O  O511  1  0.41065226  0.35077436  0.92159460  1
  O  O512  1  0.41478473  0.68505479  0.17298299  1
  O  O513  1  0.41361472  0.68377401  0.42291109  1
  O  O514  1  0.41378275  0.68409576  0.67229103  1
  O  O515  1  0.41465291  0.68605081  0.92297559  1
  O  O516  1  0.91161415  0.01854661  0.17264281  1
  O  O517  1  0.91263600  0.01723931  0.42269474  1
  O  O518  1  0.91330584  0.01839418  0.67220761  1
  O  O519  1  0.91237747  0.01818125  0.92191518  1
  O  O520  1  0.91376983  0.35130960  0.17288549  1
  O  O521  1  0.91277781  0.35213664  0.42242278  1
  O  O522  1  0.91104885  0.35276993  0.67304500  1
  O  O523  1  0.91173641  0.35319464  0.92201414  1
  O  O524  1  0.91298906  0.68491594  0.17304142  1
  O  O525  1  0.91299076  0.68552565  0.42378122  1
  O  O526  1  0.91085886  0.68379748  0.67224908  1
  O  O527  1  0.91305997  0.68329404  0.92180374  1
  O  O528  1  0.16176549  0.01855562  0.20302881  1
  O  O529  1  0.16273825  0.01725800  0.45267075  1
  O  O530  1  0.16170555  0.01869093  0.70135889  1
  O  O531  1  0.16197535  0.01826270  0.95302044  1
  O  O532  1  0.16371788  0.35260130  0.20169594  1
  O  O533  1  0.16534729  0.35274957  0.45229788  1
  O  O534  1  0.16492144  0.35263895  0.70159799  1
  O  O535  1  0.16265607  0.35162142  0.95247062  1
  O  O536  1  0.16185899  0.68373534  0.20426262  1
  O  O537  1  0.16311784  0.68508391  0.45264292  1
  O  O538  1  0.16218847  0.68343891  0.70289538  1
  O  O539  1  0.16083752  0.68472575  0.95222983  1
  O  O540  1  0.66443152  0.01815326  0.20173615  1
  O  O541  1  0.66433259  0.01826479  0.45194893  1
  O  O542  1  0.66186779  0.01825739  0.70285362  1
  O  O543  1  0.66200569  0.01843154  0.95313557  1
  O  O544  1  0.66280780  0.35245254  0.20269035  1
  O  O545  1  0.66120896  0.35066787  0.45199588  1
  O  O546  1  0.66307513  0.35226112  0.70276585  1
  O  O547  1  0.66242924  0.35241637  0.95223978  1
  O  O548  1  0.66110875  0.68353972  0.20351428  1
  O  O549  1  0.66252956  0.68529685  0.45225168  1
  O  O550  1  0.66181965  0.68450647  0.70245515  1
  O  O551  1  0.66099778  0.68391936  0.95295965  1
  O  O552  1  0.33658714  0.31536183  0.04634192  1
  O  O553  1  0.33842934  0.31642503  0.29716706  1
  O  O554  1  0.34037819  0.31491028  0.54676338  1
  O  O555  1  0.33891601  0.31629937  0.79662272  1
  O  O556  1  0.33548737  0.64843774  0.04782474  1
  O  O557  1  0.33725767  0.64752046  0.29864481  1
  O  O558  1  0.33816099  0.64957303  0.54751476  1
  O  O559  1  0.33663812  0.64810710  0.79788143  1
  O  O560  1  0.33573650  0.98114035  0.04754888  1
  O  O561  1  0.33733891  0.98133973  0.29779680  1
  O  O562  1  0.33602465  0.98108299  0.54755166  1
  O  O563  1  0.33820876  0.98133983  0.79827065  1
  O  O564  1  0.83836091  0.31545623  0.04852306  1
  O  O565  1  0.83836375  0.31578380  0.29677294  1
  O  O566  1  0.83537114  0.31429296  0.54739160  1
  O  O567  1  0.83539188  0.31588896  0.79717226  1
  O  O568  1  0.83610821  0.64873631  0.04790266  1
  O  O569  1  0.83595542  0.64732827  0.29796715  1
  O  O570  1  0.83755399  0.64940973  0.54775206  1
  O  O571  1  0.83744932  0.64869939  0.79748137  1
  O  O572  1  0.83831010  0.98087930  0.04802711  1
  O  O573  1  0.83934341  0.98245598  0.29716843  1
  O  O574  1  0.83691281  0.98167305  0.54656796  1
  O  O575  1  0.83550114  0.98043117  0.79727229  1
  O  O576  1  0.41420241  0.14778914  0.17304395  1
  O  O577  1  0.41164000  0.14885162  0.42291171  1
  O  O578  1  0.41210478  0.14882339  0.67101189  1
  O  O579  1  0.41221996  0.14796575  0.92201472  1
  O  O580  1  0.41086035  0.48206136  0.17246483  1
  O  O581  1  0.41219482  0.48268442  0.42219469  1
  O  O582  1  0.41074823  0.48246832  0.67229418  1
  O  O583  1  0.41023715  0.48095501  0.92275172  1
  O  O584  1  0.41465224  0.81506813  0.17297194  1
  O  O585  1  0.41378175  0.81369794  0.42408400  1
  O  O586  1  0.41322749  0.81417247  0.67227192  1
  O  O587  1  0.41492779  0.81617238  0.92232386  1
  O  O588  1  0.91207455  0.14878499  0.17275736  1
  O  O589  1  0.91227537  0.14719911  0.42344380  1
  O  O590  1  0.91366453  0.14856941  0.67227652  1
  O  O591  1  0.91235022  0.14830077  0.92207048  1
  O  O592  1  0.91379929  0.48126878  0.17389604  1
  O  O593  1  0.91238886  0.48222352  0.42228791  1
  O  O594  1  0.91187532  0.48281551  0.67262026  1
  O  O595  1  0.91210645  0.48353304  0.92166075  1
  O  O596  1  0.91263991  0.81509306  0.17194066  1
  O  O597  1  0.91330006  0.81542028  0.42324751  1
  O  O598  1  0.91020612  0.81382332  0.67291638  1
  O  O599  1  0.91249703  0.81341241  0.92189292  1
  O  O600  1  0.08703681  0.18649639  0.07676473  1
  O  O601  1  0.08748497  0.18396328  0.32812117  1
  O  O602  1  0.08729764  0.18464332  0.57737101  1
  O  O603  1  0.08841464  0.18543374  0.82762209  1
  O  O604  1  0.08861550  0.51641587  0.07786817  1
  O  O605  1  0.09027530  0.51995612  0.32771371  1
  O  O606  1  0.08715235  0.51787921  0.57696918  1
  O  O607  1  0.08799760  0.51938216  0.82611429  1
  O  O608  1  0.08629139  0.85180670  0.07676872  1
  O  O609  1  0.08669547  0.85099005  0.32877079  1
  O  O610  1  0.08815433  0.85220319  0.57651873  1
  O  O611  1  0.08732897  0.85018085  0.82782231  1
  O  O612  1  0.58690131  0.18413168  0.07837405  1
  O  O613  1  0.58670755  0.18619517  0.32800905  1
  O  O614  1  0.58677893  0.18554639  0.57661754  1
  O  O615  1  0.58615309  0.18546394  0.82638918  1
  O  O616  1  0.58903359  0.51892385  0.07695969  1
  O  O617  1  0.58612156  0.51783625  0.32692073  1
  O  O618  1  0.58664400  0.51879416  0.57767394  1
  O  O619  1  0.58888092  0.51900083  0.82668972  1
  O  O620  1  0.58831392  0.85200434  0.07849131  1
  O  O621  1  0.58874214  0.85051802  0.32939945  1
  O  O622  1  0.58974137  0.85048422  0.57773189  1
  O  O623  1  0.58683325  0.85099263  0.82652973  1
  O  O624  1  0.33604116  0.18523806  0.04748549  1
  O  O625  1  0.33895989  0.18633277  0.29838163  1
  O  O626  1  0.33972201  0.18459746  0.54683209  1
  O  O627  1  0.33942844  0.18615733  0.79762428  1
  O  O628  1  0.33559584  0.51834556  0.04710988  1
  O  O629  1  0.33723124  0.51766589  0.29750326  1
  O  O630  1  0.33858055  0.51950693  0.54741097  1
  O  O631  1  0.33730027  0.51813092  0.79682709  1
  O  O632  1  0.33573593  0.85094417  0.04744231  1
  O  O633  1  0.33720770  0.85129903  0.29782148  1
  O  O634  1  0.33600136  0.85091757  0.54750632  1
  O  O635  1  0.33813236  0.85144347  0.79873205  1
  O  O636  1  0.83841059  0.18561010  0.04836403  1
  O  O637  1  0.83880253  0.18534269  0.29651221  1
  O  O638  1  0.83504940  0.18419136  0.54737582  1
  O  O639  1  0.83524480  0.18571782  0.79746248  1
  O  O640  1  0.83657819  0.51886257  0.04766952  1
  O  O641  1  0.83572339  0.51735967  0.29762081  1
  O  O642  1  0.83844272  0.51938082  0.54789949  1
  O  O643  1  0.83739798  0.51861408  0.79749838  1
  O  O644  1  0.83783191  0.85096223  0.04838741  1
  O  O645  1  0.84003418  0.85228789  0.29801635  1
  O  O646  1  0.83712206  0.85141406  0.54671976  1
  O  O647  1  0.83500729  0.85023454  0.79729266  1
  O  O648  1  0.16192512  0.14872044  0.20331402  1
  O  O649  1  0.16243524  0.14736928  0.45210759  1
  O  O650  1  0.16227046  0.14866891  0.70119008  1
  O  O651  1  0.16217731  0.14872729  0.95289980  1
  O  O652  1  0.16367141  0.48254464  0.20252527  1
  O  O653  1  0.16525849  0.48273067  0.45300336  1
  O  O654  1  0.16459248  0.48270161  0.70207967  1
  O  O655  1  0.16260676  0.48179393  0.95296368  1
  O  O656  1  0.16164089  0.81392559  0.20299194  1
  O  O657  1  0.16329219  0.81500623  0.45228196  1
  O  O658  1  0.16116246  0.81355587  0.70270784  1
  O  O659  1  0.16095137  0.81477791  0.95191888  1
  O  O660  1  0.66379881  0.14808500  0.20176981  1
  O  O661  1  0.66411972  0.14848364  0.45192395  1
  O  O662  1  0.66176835  0.14858217  0.70297007  1
  O  O663  1  0.66187136  0.14854197  0.95335711  1
  O  O664  1  0.66271649  0.48250833  0.20324411  1
  O  O665  1  0.66059985  0.48070606  0.45157948  1
  O  O666  1  0.66366151  0.48239074  0.70234759  1
  O  O667  1  0.66251841  0.48246622  0.95262434  1
  O  O668  1  0.66092947  0.81364090  0.20294051  1
  O  O669  1  0.66278118  0.81522417  0.45270351  1
  O  O670  1  0.66213124  0.81460982  0.70221135  1
  O  O671  1  0.66049729  0.81391246  0.95217944  1
