# generated using pymatgen
data_Na2MnFe(PO4)2
_symmetry_space_group_name_H-M   'P 1'
_cell_length_a   21.08698983
_cell_length_b   18.93907624
_cell_length_c   20.04552058
_cell_angle_alpha   90.00033037
_cell_angle_beta   89.99545095
_cell_angle_gamma   89.99806698
_symmetry_Int_Tables_number   1
_chemical_formula_structural   Na2MnFe(PO4)2
_chemical_formula_sum   'Na96 Mn48 Fe48 P96 O384'
_cell_volume   8005.54159798
_cell_formula_units_Z   48
loop_
 _symmetry_equiv_pos_site_id
 _symmetry_equiv_pos_as_xyz
  1  'x, y, z'
loop_
 _atom_site_type_symbol
 _atom_site_label
 _atom_site_symmetry_multiplicity
 _atom_site_fract_x
 _atom_site_fract_y
 _atom_site_fract_z
 _atom_site_occupancy
  Na  Na0  1  0.00197193  0.00029107  -0.00069276  1
  Na  Na1  1  0.00247554  0.00097870  0.24937171  1
  Na  Na2  1  -0.00218656  -0.00075303  0.50137930  1
  Na  Na3  1  -0.00130042  -0.00019267  0.75008134  1
  Na  Na4  1  0.00325164  0.33398064  -0.00044396  1
  Na  Na5  1  0.00034856  0.33255879  0.25059180  1
  Na  Na6  1  -0.00015874  0.33291928  0.49974514  1
  Na  Na7  1  0.00173374  0.33368250  0.75039778  1
  Na  Na8  1  0.00055833  0.66717509  -0.00040814  1
  Na  Na9  1  -0.00112851  0.66670787  0.24927150  1
  Na  Na10  1  -0.00069238  0.66724105  0.49922545  1
  Na  Na11  1  -0.00141049  0.66577378  0.75129006  1
  Na  Na12  1  0.50067334  -0.00006125  0.00088513  1
  Na  Na13  1  0.50148630  0.00042711  0.24992069  1
  Na  Na14  1  0.49997959  0.00016879  0.49975212  1
  Na  Na15  1  0.50147077  0.00113650  0.74914696  1
  Na  Na16  1  0.50015271  0.33229381  0.00031479  1
  Na  Na17  1  0.50188857  0.33365649  0.25015995  1
  Na  Na18  1  0.50078636  0.33325045  0.50028748  1
  Na  Na19  1  0.50129502  0.33363666  0.74976358  1
  Na  Na20  1  0.49974025  0.66732305  0.00045581  1
  Na  Na21  1  0.49912279  0.66648199  0.25027661  1
  Na  Na22  1  0.49790231  0.66631799  0.49927028  1
  Na  Na23  1  0.49621317  0.66573984  0.75028902  1
  Na  Na24  1  0.24812778  -0.00042216  0.12595544  1
  Na  Na25  1  0.24857083  -0.00017980  0.37415502  1
  Na  Na26  1  0.25126140  0.00087584  0.62452456  1
  Na  Na27  1  0.24765528  -0.00160625  0.87516870  1
  Na  Na28  1  0.24959748  0.33307012  0.12420638  1
  Na  Na29  1  0.24985494  0.33273966  0.37503903  1
  Na  Na30  1  0.25118244  0.33367786  0.62591065  1
  Na  Na31  1  0.24931226  0.33244459  0.87493333  1
  Na  Na32  1  0.24867351  0.66602987  0.12435367  1
  Na  Na33  1  0.25202550  0.66751149  0.37656175  1
  Na  Na34  1  0.25171998  0.66691265  0.62393126  1
  Na  Na35  1  0.25121820  0.66702855  0.87490738  1
  Na  Na36  1  0.74941786  0.00023105  0.12558356  1
  Na  Na37  1  0.75034182  -0.00003811  0.37569875  1
  Na  Na38  1  0.75151392  0.00079951  0.62490100  1
  Na  Na39  1  0.74897392  -0.00000422  0.87375299  1
  Na  Na40  1  0.74810562  0.33302604  0.12605885  1
  Na  Na41  1  0.74949001  0.33322118  0.37621206  1
  Na  Na42  1  0.74856468  0.33290587  0.62456172  1
  Na  Na43  1  0.74644789  0.33207400  0.87336977  1
  Na  Na44  1  0.74966753  0.66694055  0.12474008  1
  Na  Na45  1  0.75142831  0.66716711  0.37543117  1
  Na  Na46  1  0.75221178  0.66666981  0.62471719  1
  Na  Na47  1  0.75209918  0.66742506  0.87479753  1
  Na  Na48  1  0.00202640  0.16593052  -0.00127299  1
  Na  Na49  1  0.00105946  0.16641013  0.25037899  1
  Na  Na50  1  -0.00121453  0.16713912  0.50046140  1
  Na  Na51  1  -0.00176388  0.16756730  0.74997843  1
  Na  Na52  1  0.00289503  0.49896406  0.00014747  1
  Na  Na53  1  0.00079455  0.49970095  0.24947739  1
  Na  Na54  1  -0.00179664  0.50065370  0.50005859  1
  Na  Na55  1  0.00101607  0.49946900  0.75061367  1
  Na  Na56  1  0.00138061  0.83293352  -0.00014119  1
  Na  Na57  1  -0.00002242  0.83329109  0.24931195  1
  Na  Na58  1  -0.00148504  0.83407702  0.49962794  1
  Na  Na59  1  0.00006903  0.83320469  0.75117808  1
  Na  Na60  1  0.50068528  0.16703327  0.00068075  1
  Na  Na61  1  0.50099014  0.16667981  0.24994625  1
  Na  Na62  1  0.50028898  0.16653496  0.50049868  1
  Na  Na63  1  0.49991261  0.16694285  0.74958191  1
  Na  Na64  1  0.50086941  0.49997646  0.00127056  1
  Na  Na65  1  0.50069210  0.49983454  0.24938891  1
  Na  Na66  1  0.49866244  0.50040063  0.50004596  1
  Na  Na67  1  0.50003340  0.49957968  0.74907685  1
  Na  Na68  1  0.49881903  0.83351591  -0.00018240  1
  Na  Na69  1  0.50056351  0.83321432  0.25071092  1
  Na  Na70  1  0.49910093  0.83367060  0.49878993  1
  Na  Na71  1  0.49780854  0.83404625  0.75041530  1
  Na  Na72  1  0.24908573  0.16723034  0.12545197  1
  Na  Na73  1  0.24941109  0.16694487  0.37391456  1
  Na  Na74  1  0.25120830  0.16683296  0.62553469  1
  Na  Na75  1  0.25149723  0.16643841  0.87527714  1
  Na  Na76  1  0.24782152  0.50084220  0.12435466  1
  Na  Na77  1  0.25208299  0.49865445  0.37609734  1
  Na  Na78  1  0.25099113  0.49975301  0.62510280  1
  Na  Na79  1  0.24883928  0.50028503  0.87434460  1
  Na  Na80  1  0.24840522  0.83377733  0.12498964  1
  Na  Na81  1  0.24949437  0.83339622  0.37569012  1
  Na  Na82  1  0.24983718  0.83398745  0.62424413  1
  Na  Na83  1  0.24933414  0.83325088  0.87506772  1
  Na  Na84  1  0.74776064  0.16738005  0.12590506  1
  Na  Na85  1  0.75067433  0.16635874  0.37602178  1
  Na  Na86  1  0.75124121  0.16596332  0.62476847  1
  Na  Na87  1  0.74785926  0.16731921  0.87376647  1
  Na  Na88  1  0.74863807  0.50021215  0.12573003  1
  Na  Na89  1  0.74934274  0.50025703  0.37600149  1
  Na  Na90  1  0.74937666  0.49988323  0.62516676  1
  Na  Na91  1  0.74854164  0.50016144  0.87347276  1
  Na  Na92  1  0.75033159  0.83311920  0.12478677  1
  Na  Na93  1  0.75127899  0.83346855  0.37546280  1
  Na  Na94  1  0.75224101  0.83304998  0.62402062  1
  Na  Na95  1  0.75176392  0.83285968  0.87467190  1
  Mn  Mn96  1  0.89236584  0.24995868  0.12620205  1
  Mn  Mn97  1  0.85709193  0.08377618  0.00216729  1
  Mn  Mn98  1  0.64242373  0.91623765  0.74717881  1
  Mn  Mn99  1  0.64185152  0.58400008  0.49808686  1
  Mn  Mn100  1  0.35859183  0.08246633  0.75267086  1
  Mn  Mn101  1  0.89269356  0.58263524  0.12688410  1
  Mn  Mn102  1  0.14277565  0.58419328  0.74691152  1
  Mn  Mn103  1  0.60764038  0.74989815  0.87207892  1
  Mn  Mn104  1  0.89312169  0.91729662  0.12698896  1
  Mn  Mn105  1  0.64244667  0.24959321  0.49811365  1
  Mn  Mn106  1  0.10714748  0.75032141  0.37233844  1
  Mn  Mn107  1  0.60779527  0.08258608  0.12293573  1
  Mn  Mn108  1  0.39265647  0.25021740  0.37736774  1
  Mn  Mn109  1  0.35829538  0.41712144  0.75281249  1
  Mn  Mn110  1  0.14238629  0.58259180  0.49792179  1
  Mn  Mn111  1  0.85818621  0.08313974  0.25236145  1
  Mn  Mn112  1  0.64183538  0.58400760  0.74751450  1
  Mn  Mn113  1  0.39227337  0.91711987  0.37654406  1
  Mn  Mn114  1  0.85745635  0.41635919  0.00200911  1
  Mn  Mn115  1  0.85757710  0.41700884  0.25211807  1
  Mn  Mn116  1  0.89248270  0.91687731  0.87743000  1
  Mn  Mn117  1  0.10815738  0.08384172  0.87211416  1
  Mn  Mn118  1  0.14206074  0.58381345  0.24882647  1
  Mn  Mn119  1  0.85774133  0.41611331  0.50259746  1
  Mn  Mn120  1  0.60719964  0.75010061  0.62328609  1
  Mn  Mn121  1  0.35724543  0.75023262  0.00293699  1
  Mn  Mn122  1  0.85731646  0.41617672  0.75199974  1
  Mn  Mn123  1  0.64192879  0.91683672  0.99770715  1
  Mn  Mn124  1  0.35738066  0.41653147  0.00175638  1
  Mn  Mn125  1  0.14162181  0.91826035  0.49791807  1
  Mn  Mn126  1  0.10779621  0.41671158  0.37331469  1
  Mn  Mn127  1  0.35785867  0.41739743  0.25210779  1
  Mn  Mn128  1  0.60809640  0.41704308  0.12259830  1
  Mn  Mn129  1  0.85880603  0.75026384  0.50271432  1
  Mn  Mn130  1  0.39176741  0.58361758  0.12777157  1
  Mn  Mn131  1  0.89164051  0.25069004  0.87748372  1
  Mn  Mn132  1  0.89247527  0.58229778  0.87766841  1
  Mn  Mn133  1  0.39190488  0.91745593  0.87747171  1
  Mn  Mn134  1  0.14295815  0.24916407  0.74728416  1
  Mn  Mn135  1  0.64203265  0.58336865  0.99713834  1
  Mn  Mn136  1  0.35775775  0.75056652  0.50286183  1
  Mn  Mn137  1  0.64282840  0.91640380  0.49845732  1
  Mn  Mn138  1  0.14151710  0.24997536  0.24756030  1
  Mn  Mn139  1  0.35709198  0.08273699  0.25237196  1
  Mn  Mn140  1  0.10711165  0.08343860  0.62243036  1
  Mn  Mn141  1  0.10796407  0.74950554  0.87215324  1
  Mn  Mn142  1  0.60778141  0.74980140  0.37213042  1
  Mn  Mn143  1  0.35768865  0.08290544  0.00223982  1
  Fe  Fe144  1  0.60708442  0.08306669  0.62291385  1
  Fe  Fe145  1  0.89315188  0.25065739  0.62719112  1
  Fe  Fe146  1  0.39399550  0.25037613  0.87684759  1
  Fe  Fe147  1  0.14193502  0.91582387  0.24817897  1
  Fe  Fe148  1  0.39233547  0.91701119  0.62662425  1
  Fe  Fe149  1  0.89305508  0.91640326  0.62770743  1
  Fe  Fe150  1  0.39243519  0.58335578  0.62688652  1
  Fe  Fe151  1  0.89262768  0.91736139  0.37579304  1
  Fe  Fe152  1  0.60808217  0.08366862  0.37371854  1
  Fe  Fe153  1  0.10684969  0.74936671  0.62418409  1
  Fe  Fe154  1  0.89161494  0.58309079  0.37626357  1
  Fe  Fe155  1  0.10748309  0.41687926  0.62320947  1
  Fe  Fe156  1  0.35777062  0.08411643  0.50092898  1
  Fe  Fe157  1  0.10802512  0.41645183  0.12293531  1
  Fe  Fe158  1  0.85725478  0.75007452  0.25065551  1
  Fe  Fe159  1  0.85740294  0.75002010  0.00224504  1
  Fe  Fe160  1  0.85830731  0.75021287  0.75131431  1
  Fe  Fe161  1  0.35801614  0.41523599  0.50193449  1
  Fe  Fe162  1  0.39210769  0.91670743  0.12755848  1
  Fe  Fe163  1  0.14252520  0.58332899  0.99788260  1
  Fe  Fe164  1  0.64293501  0.24985053  0.24907184  1
  Fe  Fe165  1  0.60736728  0.08365770  0.87301557  1
  Fe  Fe166  1  0.14328338  0.24995553  0.99804584  1
  Fe  Fe167  1  0.60628168  0.41695143  0.62317738  1
  Fe  Fe168  1  0.89247014  0.24960651  0.37676116  1
  Fe  Fe169  1  0.60690962  0.41662329  0.87340836  1
  Fe  Fe170  1  0.35694501  0.75025217  0.25078146  1
  Fe  Fe171  1  0.89314576  0.58292645  0.62677708  1
  Fe  Fe172  1  0.14293535  0.24983665  0.49925496  1
  Fe  Fe173  1  0.39279932  0.24953750  0.12664580  1
  Fe  Fe174  1  0.10797342  0.41641865  0.87296315  1
  Fe  Fe175  1  0.64141350  0.25010303  0.99799119  1
  Fe  Fe176  1  0.85786542  0.08357340  0.50184541  1
  Fe  Fe177  1  0.10744697  0.74968746  0.12315150  1
  Fe  Fe178  1  0.10688885  0.08336556  0.37465483  1
  Fe  Fe179  1  0.39290184  0.58274084  0.37607965  1
  Fe  Fe180  1  0.85623030  0.08346592  0.75160780  1
  Fe  Fe181  1  0.10794044  0.08367237  0.12253341  1
  Fe  Fe182  1  0.14292635  0.91665386  0.99846295  1
  Fe  Fe183  1  0.35688190  0.75058204  0.75108258  1
  Fe  Fe184  1  0.64193880  0.24951312  0.74742479  1
  Fe  Fe185  1  0.39274071  0.58247918  0.87712780  1
  Fe  Fe186  1  0.60737036  0.75041739  0.12383666  1
  Fe  Fe187  1  0.64256427  0.58417747  0.24900284  1
  Fe  Fe188  1  0.60705422  0.41660376  0.37362405  1
  Fe  Fe189  1  0.64315512  0.91613034  0.24848489  1
  Fe  Fe190  1  0.14270314  0.91632640  0.74764451  1
  Fe  Fe191  1  0.39313209  0.24967984  0.62644544  1
  P  P192  1  0.05426857  0.24979262  0.10913147  1
  P  P193  1  0.05344956  0.24901867  0.36201070  1
  P  P194  1  0.05300007  0.25053278  0.60968333  1
  P  P195  1  0.05484707  0.25057510  0.86057604  1
  P  P196  1  0.05454351  0.58366882  0.10963789  1
  P  P197  1  0.05141215  0.58335914  0.36018554  1
  P  P198  1  0.05235829  0.58353890  0.61023964  1
  P  P199  1  0.05515341  0.58250011  0.86089540  1
  P  P200  1  0.05564902  0.91641792  0.11051241  1
  P  P201  1  0.05250381  0.91780002  0.35982230  1
  P  P202  1  0.05308572  0.91565895  0.61165245  1
  P  P203  1  0.05562796  0.91667353  0.86011525  1
  P  P204  1  0.55423962  0.24977085  0.11093717  1
  P  P205  1  0.55434552  0.24981724  0.36009635  1
  P  P206  1  0.55368661  0.24967559  0.61123197  1
  P  P207  1  0.55427796  0.24992907  0.86044351  1
  P  P208  1  0.55467877  0.58497973  0.11148404  1
  P  P209  1  0.55266858  0.58248429  0.35973603  1
  P  P210  1  0.55158088  0.58339007  0.61011463  1
  P  P211  1  0.55188107  0.58274516  0.85993333  1
  P  P212  1  0.55319943  0.91528172  0.11161961  1
  P  P213  1  0.55452066  0.91767398  0.35964376  1
  P  P214  1  0.55193452  0.91697599  0.60991974  1
  P  P215  1  0.55319393  0.91748836  0.85978530  1
  P  P216  1  0.44612765  0.08324169  0.14005895  1
  P  P217  1  0.44763030  0.08355177  0.39024941  1
  P  P218  1  0.44633547  0.08342076  0.63837716  1
  P  P219  1  0.44828857  0.08429542  0.89021186  1
  P  P220  1  0.44651504  0.41561628  0.13979796  1
  P  P221  1  0.44722908  0.41701944  0.39025686  1
  P  P222  1  0.44603894  0.41602347  0.63865039  1
  P  P223  1  0.44793504  0.41642743  0.89001084  1
  P  P224  1  0.44683557  0.75099199  0.14088087  1
  P  P225  1  0.44498472  0.74949026  0.38831585  1
  P  P226  1  0.44560890  0.75059797  0.64039108  1
  P  P227  1  0.44486301  0.74935171  0.88905204  1
  P  P228  1  0.94844956  0.08367704  0.13953480  1
  P  P229  1  0.94708616  0.08304111  0.39046585  1
  P  P230  1  0.94447046  0.08380997  0.63956745  1
  P  P231  1  0.94534339  0.08364690  0.88886257  1
  P  P232  1  0.94840646  0.41607850  0.13972250  1
  P  P233  1  0.94613709  0.41643207  0.38979007  1
  P  P234  1  0.94790836  0.41634112  0.64000695  1
  P  P235  1  0.94811901  0.41637599  0.89029433  1
  P  P236  1  0.94630422  0.75005070  0.13896770  1
  P  P237  1  0.94463444  0.75048672  0.38795110  1
  P  P238  1  0.94744909  0.74973866  0.64077006  1
  P  P239  1  0.94497051  0.74994869  0.88993462  1
  P  P240  1  0.19397912  0.08250632  0.23593623  1
  P  P241  1  0.19746939  0.08488235  0.48466759  1
  P  P242  1  0.19708553  0.08250447  0.73453417  1
  P  P243  1  0.19563519  0.08341692  0.98609202  1
  P  P244  1  0.19613361  0.41683163  0.23444913  1
  P  P245  1  0.19690750  0.41539978  0.48668315  1
  P  P246  1  0.19547516  0.41666523  0.73511872  1
  P  P247  1  0.19485885  0.41639400  0.98520298  1
  P  P248  1  0.19684885  0.75021641  0.23475203  1
  P  P249  1  0.19485135  0.75014314  0.48639885  1
  P  P250  1  0.19733980  0.75050730  0.73388143  1
  P  P251  1  0.19516914  0.75002333  0.98602387  1
  P  P252  1  0.69556207  0.08325103  0.23693173  1
  P  P253  1  0.69637036  0.08311580  0.48594854  1
  P  P254  1  0.69526380  0.08386527  0.73491558  1
  P  P255  1  0.69552513  0.08409104  0.98408505  1
  P  P256  1  0.69503949  0.41679865  0.23707974  1
  P  P257  1  0.69434384  0.41683889  0.48594497  1
  P  P258  1  0.69389005  0.41606195  0.73498480  1
  P  P259  1  0.69575880  0.41597526  0.98386159  1
  P  P260  1  0.69737415  0.75025503  0.23485952  1
  P  P261  1  0.69702518  0.75008673  0.48502657  1
  P  P262  1  0.69863516  0.75004238  0.73434904  1
  P  P263  1  0.69677211  0.75025809  0.98566309  1
  P  P264  1  0.30427078  0.24989352  0.01426801  1
  P  P265  1  0.30424029  0.25010822  0.26391386  1
  P  P266  1  0.30327589  0.24969602  0.51540699  1
  P  P267  1  0.30606846  0.24992956  0.76489696  1
  P  P268  1  0.30305657  0.58276387  0.01376334  1
  P  P269  1  0.30348363  0.58447905  0.26585571  1
  P  P270  1  0.30566485  0.58188559  0.51433178  1
  P  P271  1  0.30547136  0.58428410  0.76435446  1
  P  P272  1  0.30253889  0.91687291  0.01600150  1
  P  P273  1  0.30259742  0.91559508  0.26387227  1
  P  P274  1  0.30388995  0.91826257  0.51501940  1
  P  P275  1  0.30320179  0.91587788  0.76386231  1
  P  P276  1  0.80074991  0.25022765  0.01506601  1
  P  P277  1  0.80286778  0.25007041  0.26576978  1
  P  P278  1  0.80549395  0.24915907  0.51478475  1
  P  P279  1  0.80299059  0.24950424  0.76335665  1
  P  P280  1  0.80312738  0.58337276  0.01510069  1
  P  P281  1  0.80247600  0.58401950  0.26516304  1
  P  P282  1  0.80515310  0.58297827  0.51495846  1
  P  P283  1  0.80495610  0.58356093  0.76367155  1
  P  P284  1  0.80327520  0.91665355  0.01512611  1
  P  P285  1  0.80301802  0.91613792  0.26509131  1
  P  P286  1  0.80607111  0.91792708  0.51448308  1
  P  P287  1  0.80505546  0.91681297  0.76348553  1
  O  O288  1  0.05624128  0.24980898  0.18602424  1
  O  O289  1  0.05835092  0.24967055  0.43859475  1
  O  O290  1  0.05693855  0.24968787  0.68636668  1
  O  O291  1  0.05944270  0.24953185  0.93725169  1
  O  O292  1  0.05681616  0.58403304  0.18643819  1
  O  O293  1  0.05574039  0.58340396  0.43683813  1
  O  O294  1  0.05603402  0.58346969  0.68693910  1
  O  O295  1  0.05929727  0.58353299  0.93762632  1
  O  O296  1  0.05890180  0.91603364  0.18735869  1
  O  O297  1  0.05575212  0.91691807  0.43661487  1
  O  O298  1  0.05814891  0.91655683  0.68828978  1
  O  O299  1  0.05992694  0.91664311  0.93689456  1
  O  O300  1  0.55925439  0.24989604  0.18756375  1
  O  O301  1  0.55689311  0.24952980  0.43692000  1
  O  O302  1  0.55779666  0.24942321  0.68794339  1
  O  O303  1  0.55805397  0.24981167  0.93722069  1
  O  O304  1  0.55918288  0.58442212  0.18818340  1
  O  O305  1  0.55600674  0.58361967  0.43644825  1
  O  O306  1  0.55548675  0.58406310  0.68677962  1
  O  O307  1  0.55562139  0.58368527  0.93666372  1
  O  O308  1  0.55862455  0.91580825  0.18821446  1
  O  O309  1  0.55747103  0.91674403  0.43640753  1
  O  O310  1  0.55593428  0.91638852  0.68659848  1
  O  O311  1  0.55619633  0.91649172  0.93658457  1
  O  O312  1  0.44330520  0.08308671  0.06330206  1
  O  O313  1  0.44326899  0.08346452  0.31359539  1
  O  O314  1  0.44177546  0.08353190  0.56174964  1
  O  O315  1  0.44469817  0.08330256  0.81347715  1
  O  O316  1  0.44328292  0.41613730  0.06306047  1
  O  O317  1  0.44370019  0.41627482  0.31355417  1
  O  O318  1  0.44177027  0.41564132  0.56196493  1
  O  O319  1  0.44464492  0.41661107  0.81328548  1
  O  O320  1  0.44307186  0.75056433  0.06410409  1
  O  O321  1  0.44084259  0.75039820  0.31165413  1
  O  O322  1  0.44344241  0.75074240  0.56349574  1
  O  O323  1  0.44047834  0.75032791  0.81236270  1
  O  O324  1  0.94405507  0.08345159  0.06289756  1
  O  O325  1  0.94422275  0.08329844  0.31357922  1
  O  O326  1  0.94122096  0.08364673  0.56275052  1
  O  O327  1  0.94036908  0.08382724  0.81215619  1
  O  O328  1  0.94431505  0.41610448  0.06308352  1
  O  O329  1  0.94353754  0.41626135  0.31299311  1
  O  O330  1  0.94399912  0.41615405  0.56335744  1
  O  O331  1  0.94339546  0.41628645  0.81365198  1
  O  O332  1  0.94143626  0.75020685  0.06227949  1
  O  O333  1  0.94073107  0.75026562  0.31118374  1
  O  O334  1  0.94440070  0.75018486  0.56396467  1
  O  O335  1  0.94073830  0.75003629  0.81315781  1
  O  O336  1  0.19218166  0.08385641  0.06288984  1
  O  O337  1  0.18993164  0.08345759  0.31268959  1
  O  O338  1  0.19355535  0.08395815  0.56134796  1
  O  O339  1  0.19390433  0.08330298  0.81129778  1
  O  O340  1  0.19131125  0.41648521  0.06203061  1
  O  O341  1  0.19322310  0.41645395  0.31132049  1
  O  O342  1  0.19161715  0.41659496  0.56332672  1
  O  O343  1  0.19128138  0.41648919  0.81187643  1
  O  O344  1  0.19136606  0.74962339  0.06275814  1
  O  O345  1  0.19348024  0.74977382  0.31155352  1
  O  O346  1  0.19024008  0.74976617  0.56306832  1
  O  O347  1  0.19379655  0.74956032  0.81063439  1
  O  O348  1  0.69273551  0.08322010  0.06096760  1
  O  O349  1  0.69220860  0.08328845  0.31368063  1
  O  O350  1  0.69111634  0.08313081  0.56262426  1
  O  O351  1  0.69053734  0.08345585  0.81159546  1
  O  O352  1  0.69311137  0.41682753  0.06074983  1
  O  O353  1  0.69142098  0.41684210  0.31384624  1
  O  O354  1  0.68959290  0.41699300  0.56271247  1
  O  O355  1  0.68960550  0.41691496  0.81174816  1
  O  O356  1  0.69147989  0.75038860  0.06226097  1
  O  O357  1  0.69405555  0.75024148  0.31159854  1
  O  O358  1  0.69330287  0.74986008  0.56173587  1
  O  O359  1  0.69429642  0.74991111  0.81105547  1
  O  O360  1  0.30877551  0.25000301  0.18719859  1
  O  O361  1  0.30649941  0.24999186  0.43864400  1
  O  O362  1  0.31052758  0.25004300  0.68812763  1
  O  O363  1  0.30967742  0.24992039  0.93758625  1
  O  O364  1  0.30579580  0.58349417  0.18898019  1
  O  O365  1  0.30976475  0.58241272  0.43758282  1
  O  O366  1  0.30968721  0.58294157  0.68751761  1
  O  O367  1  0.30843861  0.58244827  0.93712580  1
  O  O368  1  0.30759606  0.91644951  0.18723072  1
  O  O369  1  0.30688597  0.91735318  0.43823204  1
  O  O370  1  0.30836139  0.91713393  0.68724127  1
  O  O371  1  0.30653267  0.91692282  0.93923794  1
  O  O372  1  0.80663216  0.25000462  0.18905885  1
  O  O373  1  0.80962813  0.24997039  0.43801626  1
  O  O374  1  0.80843541  0.25070873  0.68675757  1
  O  O375  1  0.80485010  0.25033822  0.93834146  1
  O  O376  1  0.80635534  0.58305516  0.18847812  1
  O  O377  1  0.80921823  0.58286105  0.43816831  1
  O  O378  1  0.80955847  0.58252071  0.68690738  1
  O  O379  1  0.80632876  0.58256771  0.93830142  1
  O  O380  1  0.80694305  0.91713417  0.18841775  1
  O  O381  1  0.80970465  0.91739896  0.43771013  1
  O  O382  1  0.80905658  0.91652798  0.68667468  1
  O  O383  1  0.80643423  0.91727329  0.93835794  1
  O  O384  1  0.23373840  0.25019405  0.03731520  1
  O  O385  1  0.23412884  0.24995088  0.28780344  1
  O  O386  1  0.23337355  0.25008428  0.54058405  1
  O  O387  1  0.23585978  0.24942692  0.78836328  1
  O  O388  1  0.23262763  0.58310769  0.03698565  1
  O  O389  1  0.23406603  0.58340380  0.29187330  1
  O  O390  1  0.23554689  0.58290799  0.53845512  1
  O  O391  1  0.23534168  0.58351552  0.78812626  1
  O  O392  1  0.23233098  0.91683286  0.03983431  1
  O  O393  1  0.23226868  0.91607825  0.28771052  1
  O  O394  1  0.23402508  0.91775668  0.53976341  1
  O  O395  1  0.23289213  0.91580595  0.78757770  1
  O  O396  1  0.73072023  0.25018844  0.03951604  1
  O  O397  1  0.73279027  0.24977100  0.29025224  1
  O  O398  1  0.73531122  0.24951866  0.53859041  1
  O  O399  1  0.73240407  0.24957441  0.78625925  1
  O  O400  1  0.73344303  0.58348280  0.04013018  1
  O  O401  1  0.73233510  0.58394120  0.28971214  1
  O  O402  1  0.73506828  0.58316842  0.53894665  1
  O  O403  1  0.73485186  0.58357403  0.78766791  1
  O  O404  1  0.73359418  0.91686562  0.04026595  1
  O  O405  1  0.73292762  0.91643056  0.28955476  1
  O  O406  1  0.73607287  0.91700639  0.53895389  1
  O  O407  1  0.73511863  0.91671555  0.78796521  1
  O  O408  1  0.26406803  0.08316015  0.21180638  1
  O  O409  1  0.26746668  0.08381670  0.45991684  1
  O  O410  1  0.26685832  0.08324195  0.70981236  1
  O  O411  1  0.26540252  0.08270633  0.96094449  1
  O  O412  1  0.26573811  0.41712674  0.20918177  1
  O  O413  1  0.26730843  0.41519265  0.46312574  1
  O  O414  1  0.26572732  0.41693693  0.71166257  1
  O  O415  1  0.26479718  0.41626085  0.96046024  1
  O  O416  1  0.26672361  0.74996037  0.20966299  1
  O  O417  1  0.26509796  0.75054958  0.46285104  1
  O  O418  1  0.26732812  0.75041872  0.70927305  1
  O  O419  1  0.26508860  0.75023952  0.96140821  1
  O  O420  1  0.76541083  0.08341256  0.21176219  1
  O  O421  1  0.76686269  0.08338677  0.46280926  1
  O  O422  1  0.76572130  0.08346142  0.71154129  1
  O  O423  1  0.76507610  0.08353492  0.95863383  1
  O  O424  1  0.76486449  0.41677601  0.21194964  1
  O  O425  1  0.76458496  0.41650744  0.46261178  1
  O  O426  1  0.76406930  0.41630922  0.71111159  1
  O  O427  1  0.76522750  0.41624049  0.95809608  1
  O  O428  1  0.76749513  0.75017124  0.21013068  1
  O  O429  1  0.76690558  0.75027761  0.46070129  1
  O  O430  1  0.76875308  0.75007106  0.71018365  1
  O  O431  1  0.76720698  0.75007518  0.96228140  1
  O  O432  1  0.01859085  0.08369146  0.16354472  1
  O  O433  1  0.01692588  0.08309588  0.41586992  1
  O  O434  1  0.01446810  0.08382741  0.66416161  1
  O  O435  1  0.01554409  0.08321622  0.91222005  1
  O  O436  1  0.01851888  0.41626300  0.16404377  1
  O  O437  1  0.01570235  0.41671118  0.41542972  1
  O  O438  1  0.01803979  0.41635862  0.66446177  1
  O  O439  1  0.01834253  0.41645635  0.91393704  1
  O  O440  1  0.01677211  0.74993969  0.16231831  1
  O  O441  1  0.01452198  0.75071029  0.41271431  1
  O  O442  1  0.01735891  0.74947070  0.66598152  1
  O  O443  1  0.01521952  0.75012465  0.91329938  1
  O  O444  1  0.51583255  0.08328017  0.16517022  1
  O  O445  1  0.51786278  0.08361052  0.41417426  1
  O  O446  1  0.51663081  0.08364239  0.66245299  1
  O  O447  1  0.51817554  0.08395535  0.91507392  1
  O  O448  1  0.51626404  0.41638653  0.16468633  1
  O  O449  1  0.51731376  0.41661216  0.41478217  1
  O  O450  1  0.51631626  0.41628706  0.66274880  1
  O  O451  1  0.51780315  0.41623582  0.91510841  1
  O  O452  1  0.51684433  0.75014158  0.16540628  1
  O  O453  1  0.51501820  0.74989115  0.41265343  1
  O  O454  1  0.51507844  0.75010832  0.66634479  1
  O  O455  1  0.51487902  0.74997655  0.91332107  1
  O  O456  1  0.48383257  0.24950867  0.08742996  1
  O  O457  1  0.48469026  0.24996768  0.33476560  1
  O  O458  1  0.48349805  0.24976836  0.58693422  1
  O  O459  1  0.48405244  0.25027451  0.83609562  1
  O  O460  1  0.48459142  0.58414889  0.08742808  1
  O  O461  1  0.48260322  0.58282647  0.33506939  1
  O  O462  1  0.48145051  0.58356924  0.58579626  1
  O  O463  1  0.48187103  0.58260065  0.83534380  1
  O  O464  1  0.48282312  0.91625102  0.08798277  1
  O  O465  1  0.48468733  0.91718849  0.33478647  1
  O  O466  1  0.48193582  0.91689462  0.58531414  1
  O  O467  1  0.48348810  0.91759587  0.83471210  1
  O  O468  1  0.98481429  0.24975085  0.08307584  1
  O  O469  1  0.98314177  0.24929340  0.33798792  1
  O  O470  1  0.98273966  0.25008636  0.58579350  1
  O  O471  1  0.98478527  0.25060811  0.83655957  1
  O  O472  1  0.98496921  0.58337044  0.08392183  1
  O  O473  1  0.98141005  0.58315356  0.33561938  1
  O  O474  1  0.98229950  0.58354044  0.58556561  1
  O  O475  1  0.98515199  0.58259190  0.83684163  1
  O  O476  1  0.98578131  0.91664173  0.08560011  1
  O  O477  1  0.98256911  0.91735163  0.33482548  1
  O  O478  1  0.98262880  0.91649926  0.58823093  1
  O  O479  1  0.98543803  0.91665944  0.83664824  1
  O  O480  1  0.08892442  0.31487697  0.07733418  1
  O  O481  1  0.08694308  0.31388064  0.32836983  1
  O  O482  1  0.08673819  0.31561084  0.57699725  1
  O  O483  1  0.08856315  0.31571065  0.82794813  1
  O  O484  1  0.08873957  0.64876735  0.07721687  1
  O  O485  1  0.08505365  0.64842905  0.32728831  1
  O  O486  1  0.08606771  0.64867600  0.57763261  1
  O  O487  1  0.08844596  0.64754417  0.82733954  1
  O  O488  1  0.08958829  0.98154608  0.07792958  1
  O  O489  1  0.08656654  0.98303535  0.32799675  1
  O  O490  1  0.08636695  0.98064283  0.57786051  1
  O  O491  1  0.08922505  0.98148163  0.82668542  1
  O  O492  1  0.58745779  0.31474784  0.07728838  1
  O  O493  1  0.58862418  0.31497439  0.32803236  1
  O  O494  1  0.58721579  0.31473037  0.57832488  1
  O  O495  1  0.58799307  0.31490901  0.82744511  1
  O  O496  1  0.58764280  0.65036448  0.07844961  1
  O  O497  1  0.58686036  0.64726953  0.32661275  1
  O  O498  1  0.58525080  0.64837685  0.57704181  1
  O  O499  1  0.58556707  0.64777033  0.82678654  1
  O  O500  1  0.58689534  0.98018024  0.07824869  1
  O  O501  1  0.58841201  0.98295787  0.32759428  1
  O  O502  1  0.58594514  0.98208980  0.57751842  1
  O  O503  1  0.58732737  0.98273225  0.82788640  1
  O  O504  1  0.41213659  0.01809605  0.17257599  1
  O  O505  1  0.41366693  0.01867943  0.42312417  1
  O  O506  1  0.41320949  0.01818658  0.67179356  1
  O  O507  1  0.41409303  0.01941549  0.92301197  1
  O  O508  1  0.41296963  0.35037341  0.17224594  1
  O  O509  1  0.41322704  0.35211966  0.42343022  1
  O  O510  1  0.41295592  0.35100674  0.67213391  1
  O  O511  1  0.41395178  0.35122998  0.92231111  1
  O  O512  1  0.41223830  0.68619376  0.17339897  1
  O  O513  1  0.41158439  0.68420772  0.42097601  1
  O  O514  1  0.41076335  0.68567767  0.67219045  1
  O  O515  1  0.41169506  0.68386433  0.92181117  1
  O  O516  1  0.91489769  0.01866949  0.17274690  1
  O  O517  1  0.91295878  0.01782425  0.42253011  1
  O  O518  1  0.91062868  0.01880506  0.67245850  1
  O  O519  1  0.91209153  0.01863880  0.92222571  1
  O  O520  1  0.91458887  0.35110865  0.17251228  1
  O  O521  1  0.91215139  0.35122157  0.42215261  1
  O  O522  1  0.91414062  0.35124794  0.67294007  1
  O  O523  1  0.91455655  0.35140904  0.92344555  1
  O  O524  1  0.91275795  0.68511832  0.17226051  1
  O  O525  1  0.91114065  0.68536925  0.42101169  1
  O  O526  1  0.91319305  0.68468199  0.67294254  1
  O  O527  1  0.91155414  0.68489476  0.92310158  1
  O  O528  1  0.16068894  0.01714791  0.20331317  1
  O  O529  1  0.16268245  0.02029600  0.45176325  1
  O  O530  1  0.16328660  0.01731966  0.70215920  1
  O  O531  1  0.16148141  0.01830126  0.95384511  1
  O  O532  1  0.16192141  0.35186239  0.20190619  1
  O  O533  1  0.16354881  0.35022485  0.45372417  1
  O  O534  1  0.16215457  0.35163439  0.70181286  1
  O  O535  1  0.16118232  0.35119290  0.95243534  1
  O  O536  1  0.16263569  0.68527045  0.20213216  1
  O  O537  1  0.16187375  0.68503036  0.45284571  1
  O  O538  1  0.16351475  0.68550823  0.70079613  1
  O  O539  1  0.16179580  0.68497713  0.95271108  1
  O  O540  1  0.66190690  0.01805185  0.20407568  1
  O  O541  1  0.66313372  0.01821507  0.45246437  1
  O  O542  1  0.66189768  0.01889560  0.70129926  1
  O  O543  1  0.66083175  0.01935086  0.95152483  1
  O  O544  1  0.66147483  0.35150148  0.20434211  1
  O  O545  1  0.66084052  0.35180273  0.45284814  1
  O  O546  1  0.66038324  0.35083822  0.70222040  1
  O  O547  1  0.66125135  0.35082468  0.95212995  1
  O  O548  1  0.66329638  0.68528955  0.20226514  1
  O  O549  1  0.66327534  0.68506025  0.45218522  1
  O  O550  1  0.66479680  0.68506696  0.70150381  1
  O  O551  1  0.66355673  0.68526319  0.95200939  1
  O  O552  1  0.33763183  0.31478988  0.04778850  1
  O  O553  1  0.33747041  0.31522131  0.29716147  1
  O  O554  1  0.33785640  0.31433661  0.54826257  1
  O  O555  1  0.33917776  0.31511978  0.79827416  1
  O  O556  1  0.33629272  0.64774373  0.04725888  1
  O  O557  1  0.33742592  0.64997551  0.29742087  1
  O  O558  1  0.33971146  0.64678456  0.54740403  1
  O  O559  1  0.33843755  0.64982361  0.79680459  1
  O  O560  1  0.33629188  0.98179752  0.04895507  1
  O  O561  1  0.33605551  0.98050522  0.29747239  1
  O  O562  1  0.33776746  0.98354722  0.54714876  1
  O  O563  1  0.33630323  0.98083250  0.79789759  1
  O  O564  1  0.83457907  0.31520296  0.04793762  1
  O  O565  1  0.83668934  0.31508705  0.29856918  1
  O  O566  1  0.83903225  0.31404992  0.54838457  1
  O  O567  1  0.83585356  0.31443478  0.79751809  1
  O  O568  1  0.83736904  0.64846538  0.04716750  1
  O  O569  1  0.83644572  0.64916592  0.29742858  1
  O  O570  1  0.83909838  0.64794022  0.54778665  1
  O  O571  1  0.83856485  0.64873169  0.79622868  1
  O  O572  1  0.83728542  0.98170835  0.04784650  1
  O  O573  1  0.83707055  0.98101112  0.29830916  1
  O  O574  1  0.83934907  0.98317701  0.54728656  1
  O  O575  1  0.83833870  0.98225059  0.79618456  1
  O  O576  1  0.41211107  0.14843568  0.17227047  1
  O  O577  1  0.41379126  0.14849067  0.42332649  1
  O  O578  1  0.41298734  0.14840282  0.67173534  1
  O  O579  1  0.41450577  0.14955442  0.92241958  1
  O  O580  1  0.41235950  0.48070604  0.17223025  1
  O  O581  1  0.41321151  0.48205303  0.42258881  1
  O  O582  1  0.41269280  0.48119855  0.67169123  1
  O  O583  1  0.41388175  0.48139256  0.92269358  1
  O  O584  1  0.41298880  0.81607559  0.17357797  1
  O  O585  1  0.41128653  0.81437495  0.42170505  1
  O  O586  1  0.41137665  0.81583328  0.67248986  1
  O  O587  1  0.41104657  0.81425038  0.92238885  1
  O  O588  1  0.91467241  0.14864074  0.17244352  1
  O  O589  1  0.91262279  0.14786448  0.42298101  1
  O  O590  1  0.91063489  0.14900218  0.67222522  1
  O  O591  1  0.91230926  0.14880719  0.92229720  1
  O  O592  1  0.91452600  0.48114085  0.17250455  1
  O  O593  1  0.91167176  0.48145537  0.42181648  1
  O  O594  1  0.91417450  0.48143256  0.67269239  1
  O  O595  1  0.91467970  0.48139242  0.92341831  1
  O  O596  1  0.91294812  0.81497526  0.17250365  1
  O  O597  1  0.91122607  0.81580162  0.42074790  1
  O  O598  1  0.91337776  0.81473314  0.67346594  1
  O  O599  1  0.91144932  0.81490073  0.92320734  1
  O  O600  1  0.08892920  0.18480425  0.07704442  1
  O  O601  1  0.08660272  0.18379500  0.32894482  1
  O  O602  1  0.08691430  0.18566265  0.57646445  1
  O  O603  1  0.08816362  0.18562238  0.82686722  1
  O  O604  1  0.08911316  0.51856691  0.07773540  1
  O  O605  1  0.08551765  0.51839032  0.32770683  1
  O  O606  1  0.08618122  0.51839744  0.57746789  1
  O  O607  1  0.08882187  0.51744959  0.82822299  1
  O  O608  1  0.08936252  0.85126688  0.07772977  1
  O  O609  1  0.08685812  0.85308143  0.32673357  1
  O  O610  1  0.08576740  0.85041481  0.57842973  1
  O  O611  1  0.08913067  0.85164160  0.82688634  1
  O  O612  1  0.58770268  0.18483866  0.07752766  1
  O  O613  1  0.58863988  0.18480075  0.32776145  1
  O  O614  1  0.58719414  0.18470308  0.57797920  1
  O  O615  1  0.58762152  0.18476041  0.82717033  1
  O  O616  1  0.58845508  0.52001437  0.07832848  1
  O  O617  1  0.58651685  0.51726897  0.32754631  1
  O  O618  1  0.58521105  0.51823187  0.57758784  1
  O  O619  1  0.58579900  0.51762582  0.82766328  1
  O  O620  1  0.58598884  0.85000102  0.07815893  1
  O  O621  1  0.58890152  0.85286306  0.32678408  1
  O  O622  1  0.58574843  0.85194132  0.57707088  1
  O  O623  1  0.58719163  0.85248574  0.82696531  1
  O  O624  1  0.33723390  0.18482650  0.04795427  1
  O  O625  1  0.33767956  0.18512938  0.29721594  1
  O  O626  1  0.33719442  0.18432869  0.54763883  1
  O  O627  1  0.33996518  0.18515689  0.79807943  1
  O  O628  1  0.33600359  0.51779835  0.04748673  1
  O  O629  1  0.33871086  0.51985885  0.29815522  1
  O  O630  1  0.33872608  0.51655734  0.54733807  1
  O  O631  1  0.33939999  0.51958142  0.79803821  1
  O  O632  1  0.33631502  0.85189767  0.04889387  1
  O  O633  1  0.33569526  0.85037362  0.29686123  1
  O  O634  1  0.33823822  0.85349625  0.54793944  1
  O  O635  1  0.33643077  0.85067214  0.79682490  1
  O  O636  1  0.83453321  0.18513888  0.04787605  1
  O  O637  1  0.83711115  0.18514100  0.29851280  1
  O  O638  1  0.83887255  0.18397560  0.54749570  1
  O  O639  1  0.83593334  0.18430043  0.79663075  1
  O  O640  1  0.83688472  0.51819111  0.04784089  1
  O  O641  1  0.83633481  0.51911596  0.29840834  1
  O  O642  1  0.83873304  0.51801093  0.54821073  1
  O  O643  1  0.83811661  0.51838500  0.79716770  1
  O  O644  1  0.83740795  0.85153820  0.04727625  1
  O  O645  1  0.83690735  0.85100621  0.29739988  1
  O  O646  1  0.84034201  0.85314966  0.54757528  1
  O  O647  1  0.83879193  0.85181209  0.79637293  1
  O  O648  1  0.16014112  0.14724509  0.20237975  1
  O  O649  1  0.16393425  0.15030416  0.45234368  1
  O  O650  1  0.16286126  0.14738299  0.70183397  1
  O  O651  1  0.16239541  0.14869116  0.95300229  1
  O  O652  1  0.16164612  0.48185074  0.20248275  1
  O  O653  1  0.16388786  0.48040179  0.45273839  1
  O  O654  1  0.16183830  0.48157189  0.70182780  1
  O  O655  1  0.16114212  0.48146179  0.95230326  1
  O  O656  1  0.16249746  0.81514183  0.20240327  1
  O  O657  1  0.16144150  0.81529188  0.45337530  1
  O  O658  1  0.16301743  0.81540924  0.70154184  1
  O  O659  1  0.16168448  0.81539133  0.95344813  1
  O  O660  1  0.66170736  0.14834422  0.20425134  1
  O  O661  1  0.66293877  0.14803780  0.45247118  1
  O  O662  1  0.66200535  0.14891355  0.70152110  1
  O  O663  1  0.66144249  0.14938778  0.95211783  1
  O  O664  1  0.66136319  0.48192744  0.20424867  1
  O  O665  1  0.66098589  0.48175525  0.45254415  1
  O  O666  1  0.66016372  0.48099579  0.70161727  1
  O  O667  1  0.66107369  0.48081329  0.95136243  1
  O  O668  1  0.66351222  0.81538130  0.20211922  1
  O  O669  1  0.66316328  0.81512884  0.45247939  1
  O  O670  1  0.66495516  0.81510191  0.70150490  1
  O  O671  1  0.66369826  0.81529484  0.95204541  1
