# generated using pymatgen
data_Na2MnFe(PO4)2
_symmetry_space_group_name_H-M   'P 1'
_cell_length_a   21.07781030
_cell_length_b   18.92926996
_cell_length_c   20.03732683
_cell_angle_alpha   90.00015880
_cell_angle_beta   90.00145166
_cell_angle_gamma   90.00034787
_symmetry_Int_Tables_number   1
_chemical_formula_structural   Na2MnFe(PO4)2
_chemical_formula_sum   'Na96 Mn48 Fe48 P96 O384'
_cell_volume   7994.64416437
_cell_formula_units_Z   48
loop_
 _symmetry_equiv_pos_site_id
 _symmetry_equiv_pos_as_xyz
  1  'x, y, z'
loop_
 _atom_site_type_symbol
 _atom_site_label
 _atom_site_symmetry_multiplicity
 _atom_site_fract_x
 _atom_site_fract_y
 _atom_site_fract_z
 _atom_site_occupancy
  Na  Na0  1  0.00177901  0.00127406  -0.00111072  1
  Na  Na1  1  0.00037752  0.00085251  0.25060710  1
  Na  Na2  1  0.00097915  0.00111077  0.50053849  1
  Na  Na3  1  0.00202448  0.00134831  0.75014508  1
  Na  Na4  1  0.00065897  0.33298731  -0.00151445  1
  Na  Na5  1  -0.00212706  0.33193296  0.25112680  1
  Na  Na6  1  -0.00301370  0.33191958  0.50122466  1
  Na  Na7  1  -0.00024923  0.33271479  0.74932294  1
  Na  Na8  1  -0.00002921  0.66626987  -0.00019440  1
  Na  Na9  1  -0.00247036  0.66561252  0.25158383  1
  Na  Na10  1  0.00063679  0.66647781  0.50049598  1
  Na  Na11  1  0.00318448  0.66747289  0.74849408  1
  Na  Na12  1  0.49913448  0.00116199  -0.00001129  1
  Na  Na13  1  0.50151820  0.00141406  0.24909479  1
  Na  Na14  1  0.50194963  0.00183821  0.50021311  1
  Na  Na15  1  0.49800162  0.00054839  0.75041325  1
  Na  Na16  1  0.50191629  0.33336576  0.00035479  1
  Na  Na17  1  0.50342670  0.33382558  0.25002981  1
  Na  Na18  1  0.50076129  0.33257383  0.50084053  1
  Na  Na19  1  0.50154177  0.33374243  0.74952124  1
  Na  Na20  1  0.49750685  0.66662097  0.00076505  1
  Na  Na21  1  0.49880306  0.66610130  0.25034083  1
  Na  Na22  1  0.49992411  0.66649142  0.49892055  1
  Na  Na23  1  0.49802829  0.66633139  0.74987828  1
  Na  Na24  1  0.24741274  0.00034088  0.12476596  1
  Na  Na25  1  0.24654981  0.00044936  0.37497760  1
  Na  Na26  1  0.24721465  0.00034964  0.62488196  1
  Na  Na27  1  0.24793515  0.00057563  0.87537332  1
  Na  Na28  1  0.24852758  0.33258282  0.12482384  1
  Na  Na29  1  0.25083177  0.33338100  0.37516514  1
  Na  Na30  1  0.25042772  0.33323608  0.62580439  1
  Na  Na31  1  0.24720746  0.33135130  0.87415816  1
  Na  Na32  1  0.25186898  0.66761428  0.12485866  1
  Na  Na33  1  0.24899582  0.66591856  0.37513013  1
  Na  Na34  1  0.25033275  0.66651360  0.62565888  1
  Na  Na35  1  0.25016926  0.66628399  0.87448366  1
  Na  Na36  1  0.75037358  0.00098563  0.12488516  1
  Na  Na37  1  0.75069227  0.00121381  0.37529808  1
  Na  Na38  1  0.74974524  0.00105303  0.62570688  1
  Na  Na39  1  0.75066025  0.00125518  0.87496107  1
  Na  Na40  1  0.75073947  0.33272926  0.12468316  1
  Na  Na41  1  0.74971877  0.33250235  0.37519529  1
  Na  Na42  1  0.75132714  0.33331383  0.62409859  1
  Na  Na43  1  0.75081762  0.33261841  0.87522928  1
  Na  Na44  1  0.75335457  0.66760028  0.12490457  1
  Na  Na45  1  0.75164520  0.66651392  0.37443740  1
  Na  Na46  1  0.74969482  0.66602889  0.62491920  1
  Na  Na47  1  0.74997611  0.66589984  0.87495392  1
  Na  Na48  1  -0.00070385  0.16646737  -0.00103224  1
  Na  Na49  1  -0.00137182  0.16668020  0.25074466  1
  Na  Na50  1  -0.00037228  0.16651875  0.50018796  1
  Na  Na51  1  -0.00027784  0.16682954  0.74982338  1
  Na  Na52  1  0.00061375  0.49931495  -0.00160340  1
  Na  Na53  1  -0.00213673  0.50062722  0.25149379  1
  Na  Na54  1  -0.00131654  0.50032095  0.50090129  1
  Na  Na55  1  0.00129473  0.49894923  0.74854985  1
  Na  Na56  1  0.00311272  0.83265160  -0.00021742  1
  Na  Na57  1  -0.00067491  0.83367414  0.25120354  1
  Na  Na58  1  0.00056369  0.83305669  0.50096872  1
  Na  Na59  1  0.00258295  0.83355655  0.74935467  1
  Na  Na60  1  0.50044523  0.16640959  0.00003594  1
  Na  Na61  1  0.50241500  0.16595867  0.24926622  1
  Na  Na62  1  0.50057112  0.16703379  0.50099780  1
  Na  Na63  1  0.50039151  0.16604698  0.75068535  1
  Na  Na64  1  0.49942671  0.50014595  0.00014023  1
  Na  Na65  1  0.50262636  0.49905208  0.25071373  1
  Na  Na66  1  0.50183540  0.49900291  0.49980901  1
  Na  Na67  1  0.49832240  0.50051750  0.74925911  1
  Na  Na68  1  0.49741785  0.83421038  0.00073042  1
  Na  Na69  1  0.49906626  0.83358028  0.24968574  1
  Na  Na70  1  0.49965175  0.83371008  0.49937784  1
  Na  Na71  1  0.49823272  0.83382653  0.74990351  1
  Na  Na72  1  0.24813745  0.16653214  0.12561112  1
  Na  Na73  1  0.24755071  0.16740942  0.37557717  1
  Na  Na74  1  0.24963879  0.16656292  0.62508251  1
  Na  Na75  1  0.24881202  0.16636495  0.87470334  1
  Na  Na76  1  0.24933805  0.50019257  0.12394747  1
  Na  Na77  1  0.25078863  0.49940598  0.37501086  1
  Na  Na78  1  0.24997819  0.49979323  0.62607771  1
  Na  Na79  1  0.24863426  0.50014285  0.87426829  1
  Na  Na80  1  0.25000598  0.83346815  0.12493867  1
  Na  Na81  1  0.24846349  0.83324769  0.37454601  1
  Na  Na82  1  0.24782602  0.83441610  0.62535934  1
  Na  Na83  1  0.24957191  0.83414237  0.87485079  1
  Na  Na84  1  0.75123962  0.16626220  0.12431472  1
  Na  Na85  1  0.75088580  0.16604113  0.37515263  1
  Na  Na86  1  0.75058579  0.16647384  0.62500238  1
  Na  Na87  1  0.75096275  0.16632269  0.87468949  1
  Na  Na88  1  0.74985477  0.50037382  0.12606010  1
  Na  Na89  1  0.75052223  0.49944113  0.37461937  1
  Na  Na90  1  0.74913664  0.49973389  0.62430277  1
  Na  Na91  1  0.75166254  0.49852463  0.87572877  1
  Na  Na92  1  0.75202432  0.83324017  0.12436632  1
  Na  Na93  1  0.75202328  0.83280399  0.37496978  1
  Na  Na94  1  0.75109076  0.83298637  0.62552820  1
  Na  Na95  1  0.75016775  0.83366226  0.87453478  1
  Mn  Mn96  1  0.35746483  0.41576186  0.75246704  1
  Mn  Mn97  1  0.10721545  0.41613560  0.12286725  1
  Mn  Mn98  1  0.89235027  0.91662232  0.37825107  1
  Mn  Mn99  1  0.89208046  0.58290742  0.62754345  1
  Mn  Mn100  1  0.85944120  0.75051576  0.00159960  1
  Mn  Mn101  1  0.39270868  0.58255450  0.37753144  1
  Mn  Mn102  1  0.14071926  0.25081770  0.24803402  1
  Mn  Mn103  1  0.64333831  0.24969292  0.99768317  1
  Mn  Mn104  1  0.64139732  0.58256636  0.74794175  1
  Mn  Mn105  1  0.14131885  0.91635121  0.24761564  1
  Mn  Mn106  1  0.64137021  0.91703601  0.74813549  1
  Mn  Mn107  1  0.85914305  0.41637945  0.00256100  1
  Mn  Mn108  1  0.39199115  0.91788882  0.37725314  1
  Mn  Mn109  1  0.89365083  0.91663815  0.87689046  1
  Mn  Mn110  1  0.35679011  0.74982193  0.50195131  1
  Mn  Mn111  1  0.64249009  0.91602213  0.49795915  1
  Mn  Mn112  1  0.64287493  0.24998713  0.49817954  1
  Mn  Mn113  1  0.39199400  0.25007757  0.87739755  1
  Mn  Mn114  1  0.35699768  0.08382331  0.50171113  1
  Mn  Mn115  1  0.60759977  0.75010443  0.62259156  1
  Mn  Mn116  1  0.35872802  0.41659459  0.25212994  1
  Mn  Mn117  1  0.10722203  0.41651799  0.37369110  1
  Mn  Mn118  1  0.60799782  0.75011276  0.12269497  1
  Mn  Mn119  1  0.14179489  0.58332964  0.99743572  1
  Mn  Mn120  1  0.64357257  0.58367991  0.24755528  1
  Mn  Mn121  1  0.39110107  0.91738247  0.62664247  1
  Mn  Mn122  1  0.39210128  0.58246350  0.12741116  1
  Mn  Mn123  1  0.60858311  0.75057216  0.37227749  1
  Mn  Mn124  1  0.85832211  0.74978150  0.75303453  1
  Mn  Mn125  1  0.39310851  0.24981863  0.37667742  1
  Mn  Mn126  1  0.10750938  0.41571901  0.62183647  1
  Mn  Mn127  1  0.39239575  0.25034909  0.12679270  1
  Mn  Mn128  1  0.85771958  0.41630637  0.25255290  1
  Mn  Mn129  1  0.14150577  0.58308008  0.24792584  1
  Mn  Mn130  1  0.64208291  0.91652835  0.99736068  1
  Mn  Mn131  1  0.10838451  0.75030529  0.62179677  1
  Mn  Mn132  1  0.35734013  0.08335711  0.25235587  1
  Mn  Mn133  1  0.39147799  0.91748570  0.12739592  1
  Mn  Mn134  1  0.64251114  0.58385165  0.99774995  1
  Mn  Mn135  1  0.64303807  0.91661927  0.24754357  1
  Mn  Mn136  1  0.89339536  0.58351405  0.87620084  1
  Mn  Mn137  1  0.60807875  0.41687426  0.87231107  1
  Mn  Mn138  1  0.35717813  0.75101091  0.75224945  1
  Mn  Mn139  1  0.60652347  0.75056689  0.87326816  1
  Mn  Mn140  1  0.89285582  0.91734134  0.62757318  1
  Mn  Mn141  1  0.10763946  0.74985588  0.12287409  1
  Mn  Mn142  1  0.89309168  0.91667311  0.12696929  1
  Mn  Mn143  1  0.35703088  0.41565055  0.00204891  1
  Fe  Fe144  1  0.14127075  0.24948943  0.99813388  1
  Fe  Fe145  1  0.60820927  0.41595471  0.37353829  1
  Fe  Fe146  1  0.10697265  0.08421576  0.62314825  1
  Fe  Fe147  1  0.14208733  0.24951345  0.74749036  1
  Fe  Fe148  1  0.14299352  0.91722517  0.74848821  1
  Fe  Fe149  1  0.89194788  0.25012516  0.37736100  1
  Fe  Fe150  1  0.39113855  0.91721850  0.87696429  1
  Fe  Fe151  1  0.85727602  0.08361595  0.75189714  1
  Fe  Fe152  1  0.85855822  0.75078280  0.25223630  1
  Fe  Fe153  1  0.64347315  0.24995199  0.74846612  1
  Fe  Fe154  1  0.60677139  0.08313235  0.87319198  1
  Fe  Fe155  1  0.14258615  0.25080980  0.49852810  1
  Fe  Fe156  1  0.64384391  0.24928687  0.24827480  1
  Fe  Fe157  1  0.35651757  0.75072886  0.00139179  1
  Fe  Fe158  1  0.35821462  0.41633519  0.50163690  1
  Fe  Fe159  1  0.10653517  0.74959454  0.37338587  1
  Fe  Fe160  1  0.60810986  0.08344006  0.12253181  1
  Fe  Fe161  1  0.10721866  0.41639090  0.87246429  1
  Fe  Fe162  1  0.14315674  0.58263655  0.49834996  1
  Fe  Fe163  1  0.85702591  0.41618620  0.75120203  1
  Fe  Fe164  1  0.10642994  0.08397932  0.12322546  1
  Fe  Fe165  1  0.39274174  0.25000994  0.62679407  1
  Fe  Fe166  1  0.14328163  0.58301389  0.74802558  1
  Fe  Fe167  1  0.85770098  0.74991224  0.50189191  1
  Fe  Fe168  1  0.64290352  0.58371428  0.49844405  1
  Fe  Fe169  1  0.10905679  0.74972283  0.87313008  1
  Fe  Fe170  1  0.85655690  0.41673234  0.50185946  1
  Fe  Fe171  1  0.89259441  0.58271387  0.12641507  1
  Fe  Fe172  1  0.39272419  0.58269323  0.62562673  1
  Fe  Fe173  1  0.89306921  0.25001880  0.12666350  1
  Fe  Fe174  1  0.89254041  0.58300959  0.37825222  1
  Fe  Fe175  1  0.10587222  0.08368966  0.37365024  1
  Fe  Fe176  1  0.85749476  0.08302260  0.50244076  1
  Fe  Fe177  1  0.60867923  0.08372737  0.37315556  1
  Fe  Fe178  1  0.35645768  0.08361337  0.75161821  1
  Fe  Fe179  1  0.35592283  0.08365883  0.00163917  1
  Fe  Fe180  1  0.60831538  0.41654157  0.12300085  1
  Fe  Fe181  1  0.85805180  0.08278720  0.00154050  1
  Fe  Fe182  1  0.39144518  0.58352770  0.87675319  1
  Fe  Fe183  1  0.85755575  0.08308182  0.25147116  1
  Fe  Fe184  1  0.35707373  0.75019362  0.25195666  1
  Fe  Fe185  1  0.89267475  0.24937642  0.62735569  1
  Fe  Fe186  1  0.60739874  0.41642771  0.62328034  1
  Fe  Fe187  1  0.60704162  0.08361679  0.62415423  1
  Fe  Fe188  1  0.14283084  0.91701953  0.99791552  1
  Fe  Fe189  1  0.14184742  0.91675535  0.49753100  1
  Fe  Fe190  1  0.10727217  0.08393235  0.87263844  1
  Fe  Fe191  1  0.89347237  0.24983742  0.87579381  1
  P  P192  1  0.05198590  0.24914366  0.10931893  1
  P  P193  1  0.05247252  0.24971703  0.36204845  1
  P  P194  1  0.05368688  0.24899937  0.61050819  1
  P  P195  1  0.05422443  0.24956690  0.85994315  1
  P  P196  1  0.05149302  0.58300858  0.11011492  1
  P  P197  1  0.05319319  0.58340416  0.36203930  1
  P  P198  1  0.05534398  0.58285361  0.61007905  1
  P  P199  1  0.05469876  0.58317847  0.85859061  1
  P  P200  1  0.05407714  0.91771919  0.10929290  1
  P  P201  1  0.05434018  0.91663879  0.36177840  1
  P  P202  1  0.05562903  0.91818562  0.61075395  1
  P  P203  1  0.05620844  0.91706755  0.86046518  1
  P  P204  1  0.55561578  0.24970639  0.11108113  1
  P  P205  1  0.55522571  0.24980506  0.35976106  1
  P  P206  1  0.55412114  0.24968310  0.61198862  1
  P  P207  1  0.55438815  0.24900593  0.85948744  1
  P  P208  1  0.55384867  0.58291521  0.11013811  1
  P  P209  1  0.55563586  0.58259195  0.36114890  1
  P  P210  1  0.55288328  0.58252720  0.60932986  1
  P  P211  1  0.55108070  0.58377475  0.86011272  1
  P  P212  1  0.55339974  0.91758355  0.10977784  1
  P  P213  1  0.55373354  0.91790875  0.35955794  1
  P  P214  1  0.55266552  0.91798435  0.61009827  1
  P  P215  1  0.55094093  0.91769189  0.86035467  1
  P  P216  1  0.44646281  0.08407445  0.13874810  1
  P  P217  1  0.44861446  0.08401770  0.39010715  1
  P  P218  1  0.44627848  0.08461509  0.64054368  1
  P  P219  1  0.44498639  0.08310486  0.88960033  1
  P  P220  1  0.44859033  0.41608067  0.14014091  1
  P  P221  1  0.44826573  0.41591264  0.39084560  1
  P  P222  1  0.44630665  0.41633642  0.63846598  1
  P  P223  1  0.44659408  0.41678395  0.89010021  1
  P  P224  1  0.44439412  0.75022846  0.13983064  1
  P  P225  1  0.44565567  0.75029494  0.38897541  1
  P  P226  1  0.44594554  0.74916762  0.63939239  1
  P  P227  1  0.44472707  0.75062080  0.89066667  1
  P  P228  1  0.94625065  0.08398152  0.13924362  1
  P  P229  1  0.94532709  0.08388620  0.38983887  1
  P  P230  1  0.94600375  0.08415010  0.63970129  1
  P  P231  1  0.94622709  0.08409307  0.88862796  1
  P  P232  1  0.94684832  0.41603248  0.14019553  1
  P  P233  1  0.94539651  0.41632657  0.39135135  1
  P  P234  1  0.94442791  0.41552287  0.63925832  1
  P  P235  1  0.94680340  0.41572538  0.88759506  1
  P  P236  1  0.94672864  0.74947692  0.14091207  1
  P  P237  1  0.94606546  0.74938442  0.39039458  1
  P  P238  1  0.94585302  0.75007750  0.63914169  1
  P  P239  1  0.94977650  0.75013039  0.88935831  1
  P  P240  1  0.19372927  0.08383238  0.23551448  1
  P  P241  1  0.19385188  0.08445573  0.48586824  1
  P  P242  1  0.19520640  0.08369295  0.73559919  1
  P  P243  1  0.19472477  0.08388196  0.98572250  1
  P  P244  1  0.19678388  0.41681909  0.23480038  1
  P  P245  1  0.19815645  0.41625105  0.48541400  1
  P  P246  1  0.19479235  0.41606319  0.73599625  1
  P  P247  1  0.19523916  0.41543534  0.98397079  1
  P  P248  1  0.19629192  0.74952886  0.23590374  1
  P  P249  1  0.19561992  0.74957494  0.48426764  1
  P  P250  1  0.19529788  0.75018686  0.73616117  1
  P  P251  1  0.19711617  0.75067248  0.98464072  1
  P  P252  1  0.69672762  0.08420983  0.23535639  1
  P  P253  1  0.69647604  0.08350995  0.48613184  1
  P  P254  1  0.69589522  0.08442502  0.73596947  1
  P  P255  1  0.69651566  0.08336922  0.98490722  1
  P  P256  1  0.69547200  0.41531359  0.23574568  1
  P  P257  1  0.69594334  0.41705934  0.48579741  1
  P  P258  1  0.69719588  0.41520882  0.73434244  1
  P  P259  1  0.69654959  0.41651014  0.98588340  1
  P  P260  1  0.69920812  0.75016642  0.23464838  1
  P  P261  1  0.69830484  0.74929685  0.48497878  1
  P  P262  1  0.69656830  0.74987083  0.73503956  1
  P  P263  1  0.69762822  0.75014076  0.98446104  1
  P  P264  1  0.30118545  0.24879744  0.01478757  1
  P  P265  1  0.30275925  0.24971191  0.26529741  1
  P  P266  1  0.30304303  0.25052988  0.51555942  1
  P  P267  1  0.30298571  0.24886013  0.76371315  1
  P  P268  1  0.30402654  0.58372246  0.01360322  1
  P  P269  1  0.30337534  0.58370970  0.26522939  1
  P  P270  1  0.30279338  0.58221477  0.51552346  1
  P  P271  1  0.30409962  0.58300738  0.76401125  1
  P  P272  1  0.30280508  0.91767521  0.01359701  1
  P  P273  1  0.30267921  0.91663921  0.26520182  1
  P  P274  1  0.30078319  0.91726805  0.51455326  1
  P  P275  1  0.30232719  0.91843643  0.76523749  1
  P  P276  1  0.80641578  0.24880656  0.01393004  1
  P  P277  1  0.80454348  0.24892692  0.26434909  1
  P  P278  1  0.80556837  0.24968915  0.51444079  1
  P  P279  1  0.80451245  0.24988726  0.76405131  1
  P  P280  1  0.80478882  0.58306613  0.01555185  1
  P  P281  1  0.80624492  0.58381265  0.26475398  1
  P  P282  1  0.80354720  0.58304301  0.51392299  1
  P  P283  1  0.80295527  0.58171464  0.76506053  1
  P  P284  1  0.80404681  0.91787785  0.01460127  1
  P  P285  1  0.80433430  0.91740066  0.26496441  1
  P  P286  1  0.80370946  0.91700329  0.51552511  1
  P  P287  1  0.80349484  0.91799655  0.76518109  1
  O  O288  1  0.05495234  0.24967824  0.18611731  1
  O  O289  1  0.05749899  0.25072952  0.43866402  1
  O  O290  1  0.05845168  0.24978024  0.68721660  1
  O  O291  1  0.05809923  0.24940229  0.93668546  1
  O  O292  1  0.05485105  0.58315526  0.18687384  1
  O  O293  1  0.05873001  0.58259736  0.43866880  1
  O  O294  1  0.06006615  0.58277484  0.68679508  1
  O  O295  1  0.05667190  0.58323548  0.93550947  1
  O  O296  1  0.05602863  0.91678257  0.18618988  1
  O  O297  1  0.05790687  0.91650779  0.43862620  1
  O  O298  1  0.05960618  0.91744722  0.68755930  1
  O  O299  1  0.05976228  0.91689716  0.93731776  1
  O  O300  1  0.55961987  0.24931279  0.18781383  1
  O  O301  1  0.55757539  0.24956058  0.43665362  1
  O  O302  1  0.55875665  0.24990221  0.68859189  1
  O  O303  1  0.55761107  0.24957924  0.93628382  1
  O  O304  1  0.55738149  0.58372995  0.18696248  1
  O  O305  1  0.55977181  0.58363830  0.43794961  1
  O  O306  1  0.55592228  0.58319417  0.68613306  1
  O  O307  1  0.55540140  0.58363413  0.93677356  1
  O  O308  1  0.55705209  0.91696936  0.18655477  1
  O  O309  1  0.55682448  0.91696090  0.43639844  1
  O  O310  1  0.55541547  0.91718650  0.68689708  1
  O  O311  1  0.55498842  0.91724811  0.93702410  1
  O  O312  1  0.44052964  0.08410841  0.06213585  1
  O  O313  1  0.44431457  0.08384082  0.31342441  1
  O  O314  1  0.44263910  0.08420631  0.56381631  1
  O  O315  1  0.44007023  0.08369412  0.81290533  1
  O  O316  1  0.44372518  0.41577618  0.06347618  1
  O  O317  1  0.44452278  0.41617491  0.31411654  1
  O  O318  1  0.44186757  0.41601094  0.56175905  1
  O  O319  1  0.44330197  0.41595321  0.81324401  1
  O  O320  1  0.43958203  0.75063222  0.06303606  1
  O  O321  1  0.44106822  0.75020507  0.31218800  1
  O  O322  1  0.44299834  0.74994687  0.56257665  1
  O  O323  1  0.44224157  0.75065602  0.81375862  1
  O  O324  1  0.94230891  0.08295804  0.06250825  1
  O  O325  1  0.94102120  0.08322408  0.31309616  1
  O  O326  1  0.94147077  0.08324365  0.56298414  1
  O  O327  1  0.94147270  0.08339919  0.81193178  1
  O  O328  1  0.94520975  0.41615108  0.06331557  1
  O  O329  1  0.94293075  0.41608937  0.31449898  1
  O  O330  1  0.93996368  0.41668007  0.56254882  1
  O  O331  1  0.94196294  0.41613836  0.81095779  1
  O  O332  1  0.94453663  0.75051161  0.06403061  1
  O  O333  1  0.94158872  0.75031143  0.31364656  1
  O  O334  1  0.94105157  0.74979218  0.56237278  1
  O  O335  1  0.94559158  0.75039764  0.81264275  1
  O  O336  1  0.19038019  0.08421012  0.06243799  1
  O  O337  1  0.18913160  0.08418439  0.31230540  1
  O  O338  1  0.19065323  0.08445976  0.56270553  1
  O  O339  1  0.19113741  0.08426719  0.81236541  1
  O  O340  1  0.19260323  0.41625314  0.06082604  1
  O  O341  1  0.19318420  0.41662302  0.31158164  1
  O  O342  1  0.19429406  0.41616728  0.56211822  1
  O  O343  1  0.19077728  0.41581660  0.81275461  1
  O  O344  1  0.19369347  0.74994821  0.06141726  1
  O  O345  1  0.19073980  0.74927039  0.31252787  1
  O  O346  1  0.19370964  0.74972247  0.56119961  1
  O  O347  1  0.19229182  0.74989787  0.81298221  1
  O  O348  1  0.69177067  0.08339831  0.06166377  1
  O  O349  1  0.69236089  0.08365567  0.31212750  1
  O  O350  1  0.69124787  0.08380031  0.56278084  1
  O  O351  1  0.69104929  0.08348848  0.81263965  1
  O  O352  1  0.69220150  0.41661310  0.06267180  1
  O  O353  1  0.69196840  0.41599895  0.31258514  1
  O  O354  1  0.69108343  0.41627783  0.56252551  1
  O  O355  1  0.69382590  0.41592456  0.81114927  1
  O  O356  1  0.69429920  0.75022298  0.06124861  1
  O  O357  1  0.69493195  0.75006021  0.31136427  1
  O  O358  1  0.69411656  0.74978755  0.56167821  1
  O  O359  1  0.69278136  0.75002260  0.81179988  1
  O  O360  1  0.30637195  0.24947175  0.18851602  1
  O  O361  1  0.30698880  0.24984338  0.43885925  1
  O  O362  1  0.30840220  0.24974950  0.68711078  1
  O  O363  1  0.30521489  0.24929314  0.93807650  1
  O  O364  1  0.30632610  0.58286642  0.18838568  1
  O  O365  1  0.30660567  0.58261013  0.43879943  1
  O  O366  1  0.30910357  0.58273506  0.68734718  1
  O  O367  1  0.30776241  0.58283830  0.93676718  1
  O  O368  1  0.30572953  0.91769517  0.18833852  1
  O  O369  1  0.30499291  0.91770495  0.43789757  1
  O  O370  1  0.30569290  0.91787309  0.68847278  1
  O  O371  1  0.30704469  0.91794743  0.93686507  1
  O  O372  1  0.80901290  0.24967986  0.18761380  1
  O  O373  1  0.80881119  0.24953014  0.43755494  1
  O  O374  1  0.80850056  0.24957347  0.68727364  1
  O  O375  1  0.81035733  0.24975648  0.93713020  1
  O  O376  1  0.81010990  0.58292554  0.18794337  1
  O  O377  1  0.80802909  0.58297622  0.43716855  1
  O  O378  1  0.80593318  0.58251590  0.68825843  1
  O  O379  1  0.80815109  0.58259232  0.93873599  1
  O  O380  1  0.80712787  0.91750160  0.18820834  1
  O  O381  1  0.80642709  0.91729204  0.43870748  1
  O  O382  1  0.80684340  0.91759373  0.68842701  1
  O  O383  1  0.80746098  0.91740540  0.93784567  1
  O  O384  1  0.23106057  0.24926712  0.03913042  1
  O  O385  1  0.23295579  0.25013829  0.29007165  1
  O  O386  1  0.23279843  0.25010980  0.53981711  1
  O  O387  1  0.23246401  0.24892978  0.78686261  1
  O  O388  1  0.23406165  0.58370742  0.03828445  1
  O  O389  1  0.23373990  0.58299838  0.29055193  1
  O  O390  1  0.23261293  0.58292438  0.53989459  1
  O  O391  1  0.23356831  0.58295764  0.78724420  1
  O  O392  1  0.23251816  0.91750720  0.03782540  1
  O  O393  1  0.23291306  0.91681335  0.29005158  1
  O  O394  1  0.23058087  0.91721055  0.53871139  1
  O  O395  1  0.23223580  0.91766612  0.78968373  1
  O  O396  1  0.73636937  0.24940168  0.03805155  1
  O  O397  1  0.73427980  0.24921165  0.28837961  1
  O  O398  1  0.73552547  0.24976454  0.53888091  1
  O  O399  1  0.73428450  0.24957328  0.78836487  1
  O  O400  1  0.73510326  0.58381680  0.04062932  1
  O  O401  1  0.73613722  0.58292304  0.28877984  1
  O  O402  1  0.73325846  0.58310714  0.53802221  1
  O  O403  1  0.73334636  0.58184693  0.79048266  1
  O  O404  1  0.73445425  0.91741059  0.03991376  1
  O  O405  1  0.73483151  0.91712870  0.29072339  1
  O  O406  1  0.73418608  0.91700663  0.54118991  1
  O  O407  1  0.73375487  0.91776136  0.79020360  1
  O  O408  1  0.26386251  0.08346280  0.21170607  1
  O  O409  1  0.26377659  0.08421658  0.46097085  1
  O  O410  1  0.26546763  0.08360978  0.71140616  1
  O  O411  1  0.26502331  0.08359107  0.96161833  1
  O  O412  1  0.26641073  0.41659616  0.20957514  1
  O  O413  1  0.26822747  0.41616771  0.46076799  1
  O  O414  1  0.26486882  0.41616354  0.71185616  1
  O  O415  1  0.26483826  0.41566103  0.95839145  1
  O  O416  1  0.26660316  0.75017953  0.21233611  1
  O  O417  1  0.26519473  0.74962073  0.45861499  1
  O  O418  1  0.26508877  0.75059700  0.71098890  1
  O  O419  1  0.26710848  0.75043110  0.95984899  1
  O  O420  1  0.76713125  0.08374838  0.21160884  1
  O  O421  1  0.76702802  0.08376630  0.46297048  1
  O  O422  1  0.76641069  0.08420460  0.71251957  1
  O  O423  1  0.76698165  0.08364032  0.96154669  1
  O  O424  1  0.76553685  0.41626098  0.21137405  1
  O  O425  1  0.76638083  0.41605281  0.46221407  1
  O  O426  1  0.76720360  0.41582274  0.70964185  1
  O  O427  1  0.76663079  0.41563015  0.96191831  1
  O  O428  1  0.76944102  0.75047026  0.21074735  1
  O  O429  1  0.76847816  0.74958174  0.46068804  1
  O  O430  1  0.76643854  0.74965048  0.71040038  1
  O  O431  1  0.76740201  0.75007064  0.95943559  1
  O  O432  1  0.01643199  0.08375442  0.16363560  1
  O  O433  1  0.01571746  0.08349034  0.41357642  1
  O  O434  1  0.01644276  0.08422930  0.66322809  1
  O  O435  1  0.01680724  0.08379154  0.91179427  1
  O  O436  1  0.01598956  0.41590544  0.16701375  1
  O  O437  1  0.01499077  0.41633549  0.41695425  1
  O  O438  1  0.01472068  0.41564428  0.66262523  1
  O  O439  1  0.01719507  0.41601921  0.91134022  1
  O  O440  1  0.01625058  0.74997247  0.16678567  1
  O  O441  1  0.01642088  0.74973237  0.41415160  1
  O  O442  1  0.01617092  0.75048175  0.66233464  1
  O  O443  1  0.01984904  0.74966291  0.91378402  1
  O  O444  1  0.51710535  0.08373369  0.16145036  1
  O  O445  1  0.51876312  0.08451557  0.41434912  1
  O  O446  1  0.51640941  0.08378574  0.66501165  1
  O  O447  1  0.51552193  0.08381134  0.91297221  1
  O  O448  1  0.51879505  0.41629145  0.16404722  1
  O  O449  1  0.51845454  0.41565703  0.41503704  1
  O  O450  1  0.51666440  0.41655292  0.66248875  1
  O  O451  1  0.51635564  0.41643382  0.91501286  1
  O  O452  1  0.51462878  0.75002637  0.16349686  1
  O  O453  1  0.51579320  0.75019694  0.41284314  1
  O  O454  1  0.51549568  0.74978666  0.66499828  1
  O  O455  1  0.51429711  0.75070353  0.91637612  1
  O  O456  1  0.48571837  0.24974836  0.08622730  1
  O  O457  1  0.48566975  0.24985196  0.33405255  1
  O  O458  1  0.48386363  0.24984168  0.58777956  1
  O  O459  1  0.48452580  0.24976357  0.83474005  1
  O  O460  1  0.48401026  0.58294224  0.08545289  1
  O  O461  1  0.48561382  0.58253588  0.33689673  1
  O  O462  1  0.48286801  0.58250537  0.58439634  1
  O  O463  1  0.48091815  0.58363390  0.83580967  1
  O  O464  1  0.48351301  0.91790778  0.08521511  1
  O  O465  1  0.48416990  0.91784097  0.33405547  1
  O  O466  1  0.48306690  0.91805475  0.58447695  1
  O  O467  1  0.48080337  0.91732603  0.83590905  1
  O  O468  1  0.98212466  0.24963171  0.08422383  1
  O  O469  1  0.98208428  0.24971169  0.33834471  1
  O  O470  1  0.98317156  0.24931698  0.58736994  1
  O  O471  1  0.98389496  0.24953290  0.83580625  1
  O  O472  1  0.98168497  0.58281359  0.08489860  1
  O  O473  1  0.98263133  0.58302162  0.33906765  1
  O  O474  1  0.98503034  0.58289645  0.58685968  1
  O  O475  1  0.98523122  0.58323416  0.83253367  1
  O  O476  1  0.98465791  0.91704870  0.08334787  1
  O  O477  1  0.98449936  0.91711897  0.33699635  1
  O  O478  1  0.98558462  0.91731018  0.58659307  1
  O  O479  1  0.98629249  0.91757008  0.83568989  1
  O  O480  1  0.08648537  0.31388939  0.07659385  1
  O  O481  1  0.08553141  0.31472211  0.32819864  1
  O  O482  1  0.08709546  0.31380216  0.57656053  1
  O  O483  1  0.08778170  0.31446484  0.82658621  1
  O  O484  1  0.08554235  0.64807932  0.07751246  1
  O  O485  1  0.08591328  0.64869989  0.32847322  1
  O  O486  1  0.08881799  0.64785143  0.57683659  1
  O  O487  1  0.08943733  0.64819333  0.82669912  1
  O  O488  1  0.08814248  0.98312864  0.07755950  1
  O  O489  1  0.08808796  0.98180557  0.32919653  1
  O  O490  1  0.08866183  0.98369457  0.57809910  1
  O  O491  1  0.09009726  0.98230305  0.82783236  1
  O  O492  1  0.58940456  0.31493989  0.07840075  1
  O  O493  1  0.58975460  0.31497810  0.32791301  1
  O  O494  1  0.58772046  0.31456314  0.57844803  1
  O  O495  1  0.58910010  0.31365616  0.82668464  1
  O  O496  1  0.58748277  0.64814236  0.07733332  1
  O  O497  1  0.58916185  0.64746658  0.32752195  1
  O  O498  1  0.58702330  0.64748921  0.57644803  1
  O  O499  1  0.58465123  0.64886651  0.82723422  1
  O  O500  1  0.58760444  0.98265205  0.07743948  1
  O  O501  1  0.58801491  0.98329299  0.32788966  1
  O  O502  1  0.58709469  0.98329800  0.57852192  1
  O  O503  1  0.58467671  0.98294530  0.82772947  1
  O  O504  1  0.41329607  0.01911114  0.17250931  1
  O  O505  1  0.41490504  0.01900364  0.42323162  1
  O  O506  1  0.41167890  0.01986191  0.67328769  1
  O  O507  1  0.41177094  0.01791960  0.92288404  1
  O  O508  1  0.41518543  0.35099882  0.17332770  1
  O  O509  1  0.41422478  0.35094212  0.42357802  1
  O  O510  1  0.41301340  0.35127416  0.67205506  1
  O  O511  1  0.41262915  0.35159924  0.92276971  1
  O  O512  1  0.41071239  0.68522251  0.17295755  1
  O  O513  1  0.41219581  0.68513778  0.42206553  1
  O  O514  1  0.41208094  0.68370046  0.67126050  1
  O  O515  1  0.41033152  0.68549203  0.92272314  1
  O  O516  1  0.91259669  0.01919689  0.17295844  1
  O  O517  1  0.91194816  0.01900543  0.42363490  1
  O  O518  1  0.91272853  0.01936036  0.67361877  1
  O  O519  1  0.91300652  0.01929429  0.92265859  1
  O  O520  1  0.91214665  0.35077987  0.17185468  1
  O  O521  1  0.91082721  0.35132081  0.42342092  1
  O  O522  1  0.91111561  0.35021761  0.67214790  1
  O  O523  1  0.91373614  0.35053729  0.92092824  1
  O  O524  1  0.91249421  0.68423962  0.17267336  1
  O  O525  1  0.91263525  0.68424989  0.42345237  1
  O  O526  1  0.91300000  0.68480683  0.67250584  1
  O  O527  1  0.91569632  0.68515258  0.92182512  1
  O  O528  1  0.15991194  0.01894006  0.20235367  1
  O  O529  1  0.15966025  0.01955383  0.45305442  1
  O  O530  1  0.16162534  0.01846513  0.70289460  1
  O  O531  1  0.16115080  0.01881875  0.95256900  1
  O  O532  1  0.16241852  0.35175311  0.20246923  1
  O  O533  1  0.16414695  0.35110314  0.45278328  1
  O  O534  1  0.16137310  0.35090029  0.70279036  1
  O  O535  1  0.16084775  0.35017753  0.95215926  1
  O  O536  1  0.16344320  0.68437405  0.20216088  1
  O  O537  1  0.16132469  0.68431318  0.45231360  1
  O  O538  1  0.16172673  0.68506298  0.70328772  1
  O  O539  1  0.16299916  0.68574371  0.95172450  1
  O  O540  1  0.66301597  0.01942007  0.20180025  1
  O  O541  1  0.66336523  0.01852441  0.45248142  1
  O  O542  1  0.66223131  0.01969772  0.70221610  1
  O  O543  1  0.66299288  0.01844050  0.95146407  1
  O  O544  1  0.66247721  0.34982025  0.20297693  1
  O  O545  1  0.66232049  0.35208950  0.45238972  1
  O  O546  1  0.66355179  0.34989286  0.70180052  1
  O  O547  1  0.66270216  0.35166241  0.95278452  1
  O  O548  1  0.66579151  0.68499591  0.20172769  1
  O  O549  1  0.66466890  0.68427211  0.45215566  1
  O  O550  1  0.66257869  0.68473378  0.70251505  1
  O  O551  1  0.66339632  0.68513855  0.95206144  1
  O  O552  1  0.33522230  0.31381291  0.04764668  1
  O  O553  1  0.33713291  0.31471056  0.29759386  1
  O  O554  1  0.33690098  0.31563338  0.54832235  1
  O  O555  1  0.33601385  0.31381886  0.79766729  1
  O  O556  1  0.33766496  0.64899610  0.04595474  1
  O  O557  1  0.33720244  0.64905426  0.29735482  1
  O  O558  1  0.33695854  0.64713536  0.54835990  1
  O  O559  1  0.33717478  0.64820805  0.79736657  1
  O  O560  1  0.33595740  0.98289192  0.04695511  1
  O  O561  1  0.33655912  0.98174196  0.29803443  1
  O  O562  1  0.33435357  0.98231768  0.54763612  1
  O  O563  1  0.33583332  0.98365439  0.79795824  1
  O  O564  1  0.84040190  0.31343166  0.04758692  1
  O  O565  1  0.83806595  0.31386576  0.29804280  1
  O  O566  1  0.83925390  0.31482010  0.54718240  1
  O  O567  1  0.83793304  0.31516411  0.79707428  1
  O  O568  1  0.83968214  0.64793040  0.04756166  1
  O  O569  1  0.83950221  0.64916614  0.29753925  1
  O  O570  1  0.83713757  0.64798063  0.54715118  1
  O  O571  1  0.83736550  0.64669290  0.79758293  1
  O  O572  1  0.83789510  0.98322384  0.04694606  1
  O  O573  1  0.83829385  0.98270345  0.29728278  1
  O  O574  1  0.83792985  0.98224690  0.54774923  1
  O  O575  1  0.83751395  0.98329338  0.79733140  1
  O  O576  1  0.41372046  0.14914436  0.17262546  1
  O  O577  1  0.41464246  0.14895744  0.42295593  1
  O  O578  1  0.41274549  0.14985715  0.67342718  1
  O  O579  1  0.41140058  0.14797245  0.92330439  1
  O  O580  1  0.41500411  0.48118308  0.17313461  1
  O  O581  1  0.41436728  0.48088442  0.42384970  1
  O  O582  1  0.41274775  0.48151485  0.67129824  1
  O  O583  1  0.41248673  0.48191769  0.92212330  1
  O  O584  1  0.41081439  0.81529568  0.17304620  1
  O  O585  1  0.41216749  0.81539160  0.42210644  1
  O  O586  1  0.41131539  0.81412881  0.67176366  1
  O  O587  1  0.41025355  0.81582795  0.92271234  1
  O  O588  1  0.91265018  0.14921042  0.17206585  1
  O  O589  1  0.91195237  0.14891115  0.42301621  1
  O  O590  1  0.91241663  0.14925300  0.67272513  1
  O  O591  1  0.91305030  0.14924863  0.92175262  1
  O  O592  1  0.91221488  0.48101071  0.17213113  1
  O  O593  1  0.91093915  0.48141216  0.42354344  1
  O  O594  1  0.91092312  0.48031085  0.67301682  1
  O  O595  1  0.91356251  0.48066938  0.92127558  1
  O  O596  1  0.91212825  0.81445748  0.17338657  1
  O  O597  1  0.91252312  0.81431849  0.42390600  1
  O  O598  1  0.91263315  0.81513192  0.67238947  1
  O  O599  1  0.91633773  0.81526448  0.92240468  1
  O  O600  1  0.08587698  0.18401652  0.07669154  1
  O  O601  1  0.08557016  0.18454221  0.32877996  1
  O  O602  1  0.08694804  0.18398180  0.57734623  1
  O  O603  1  0.08768936  0.18445254  0.82667904  1
  O  O604  1  0.08566626  0.51808357  0.07755513  1
  O  O605  1  0.08616957  0.51839821  0.32816921  1
  O  O606  1  0.08866268  0.51783109  0.57658678  1
  O  O607  1  0.08905982  0.51797972  0.82658470  1
  O  O608  1  0.08921492  0.85302525  0.07708006  1
  O  O609  1  0.08764758  0.85126689  0.32890016  1
  O  O610  1  0.08977222  0.85348806  0.57737831  1
  O  O611  1  0.08985332  0.85200112  0.82748614  1
  O  O612  1  0.58928508  0.18461762  0.07789618  1
  O  O613  1  0.58979284  0.18487548  0.32737673  1
  O  O614  1  0.58742549  0.18442136  0.57879627  1
  O  O615  1  0.58814636  0.18359071  0.82725464  1
  O  O616  1  0.58787579  0.51768553  0.07795641  1
  O  O617  1  0.58922527  0.51707066  0.32902002  1
  O  O618  1  0.58732692  0.51742834  0.57731391  1
  O  O619  1  0.58486348  0.51867392  0.82710507  1
  O  O620  1  0.58689183  0.85224946  0.07705535  1
  O  O621  1  0.58795958  0.85287867  0.32689801  1
  O  O622  1  0.58682233  0.85291148  0.57746865  1
  O  O623  1  0.58487212  0.85275890  0.82739180  1
  O  O624  1  0.33486436  0.18367407  0.04752582  1
  O  O625  1  0.33639040  0.18455930  0.29818740  1
  O  O626  1  0.33705407  0.18560149  0.54867786  1
  O  O627  1  0.33600671  0.18372170  0.79707581  1
  O  O628  1  0.33750794  0.51854094  0.04676986  1
  O  O629  1  0.33797236  0.51881500  0.29771418  1
  O  O630  1  0.33651645  0.51705136  0.54824334  1
  O  O631  1  0.33737754  0.51812285  0.79774092  1
  O  O632  1  0.33619426  0.85246760  0.04646583  1
  O  O633  1  0.33668452  0.85139149  0.29714948  1
  O  O634  1  0.33437461  0.85211100  0.54733887  1
  O  O635  1  0.33662124  0.85361894  0.79809201  1
  O  O636  1  0.83964030  0.18336233  0.04665797  1
  O  O637  1  0.83806625  0.18382032  0.29736930  1
  O  O638  1  0.83928414  0.18467583  0.54755363  1
  O  O639  1  0.83850325  0.18504338  0.79729271  1
  O  O640  1  0.83852027  0.51784256  0.04840519  1
  O  O641  1  0.84011284  0.51897129  0.29818981  1
  O  O642  1  0.83668993  0.51776393  0.54710218  1
  O  O643  1  0.83711834  0.51634934  0.79686902  1
  O  O644  1  0.83861071  0.85297361  0.04694460  1
  O  O645  1  0.83886753  0.85239374  0.29720974  1
  O  O646  1  0.83804132  0.85177921  0.54736847  1
  O  O647  1  0.83781500  0.85299440  0.79770910  1
  O  O648  1  0.16014092  0.14881029  0.20215194  1
  O  O649  1  0.16015284  0.14980118  0.45319644  1
  O  O650  1  0.16145570  0.14848282  0.70199320  1
  O  O651  1  0.16130149  0.14883689  0.95204784  1
  O  O652  1  0.16271755  0.48188794  0.20231112  1
  O  O653  1  0.16430645  0.48133364  0.45267517  1
  O  O654  1  0.16132627  0.48118161  0.70305877  1
  O  O655  1  0.16069847  0.48043211  0.95158390  1
  O  O656  1  0.16280671  0.81453778  0.20258972  1
  O  O657  1  0.16100239  0.81456176  0.45222787  1
  O  O658  1  0.16142430  0.81547094  0.70383843  1
  O  O659  1  0.16318812  0.81579851  0.95223961  1
  O  O660  1  0.66359044  0.14943099  0.20212147  1
  O  O661  1  0.66328473  0.14851632  0.45240037  1
  O  O662  1  0.66284179  0.14966682  0.70259279  1
  O  O663  1  0.66303605  0.14827479  0.95147695  1
  O  O664  1  0.66126746  0.48002007  0.20256146  1
  O  O665  1  0.66304090  0.48224620  0.45254729  1
  O  O666  1  0.66257696  0.47992316  0.70159690  1
  O  O667  1  0.66351266  0.48178837  0.95259732  1
  O  O668  1  0.66534536  0.81513756  0.20183079  1
  O  O669  1  0.66468922  0.81449810  0.45206041  1
  O  O670  1  0.66280983  0.81513136  0.70242750  1
  O  O671  1  0.66351887  0.81528726  0.95203842  1
