# generated using pymatgen
data_Na2MnFe(PO4)2
_symmetry_space_group_name_H-M   'P 1'
_cell_length_a   21.07917608
_cell_length_b   18.93188988
_cell_length_c   20.03962734
_cell_angle_alpha   89.99942046
_cell_angle_beta   89.99815727
_cell_angle_gamma   90.00166311
_symmetry_Int_Tables_number   1
_chemical_formula_structural   Na2MnFe(PO4)2
_chemical_formula_sum   'Na96 Mn48 Fe48 P96 O384'
_cell_volume   7997.18682471
_cell_formula_units_Z   48
loop_
 _symmetry_equiv_pos_site_id
 _symmetry_equiv_pos_as_xyz
  1  'x, y, z'
loop_
 _atom_site_type_symbol
 _atom_site_label
 _atom_site_symmetry_multiplicity
 _atom_site_fract_x
 _atom_site_fract_y
 _atom_site_fract_z
 _atom_site_occupancy
  Na  Na0  1  -0.00026259  -0.00064593  0.00093874  1
  Na  Na1  1  -0.00017045  -0.00127651  0.24889902  1
  Na  Na2  1  0.00146960  -0.00008420  0.49973221  1
  Na  Na3  1  -0.00006165  -0.00045651  0.75088899  1
  Na  Na4  1  -0.00100011  0.33310888  0.00022167  1
  Na  Na5  1  0.00014908  0.33361350  0.24933751  1
  Na  Na6  1  -0.00054023  0.33351642  0.49930789  1
  Na  Na7  1  -0.00321784  0.33206766  0.75049706  1
  Na  Na8  1  0.00003048  0.66653235  -0.00081170  1
  Na  Na9  1  0.00167723  0.66779844  0.24901653  1
  Na  Na10  1  -0.00102819  0.66657229  0.50129045  1
  Na  Na11  1  0.00043806  0.66703401  0.75094445  1
  Na  Na12  1  0.50018975  0.00000025  0.00044554  1
  Na  Na13  1  0.49868284  -0.00029252  0.24924504  1
  Na  Na14  1  0.50074245  0.00038537  0.49909703  1
  Na  Na15  1  0.50016920  -0.00062276  0.75101419  1
  Na  Na16  1  0.49712447  0.33258729  -0.00008058  1
  Na  Na17  1  0.50025501  0.33379045  0.24995331  1
  Na  Na18  1  0.50014510  0.33375598  0.49953169  1
  Na  Na19  1  0.49871452  0.33326187  0.75071770  1
  Na  Na20  1  0.49825210  0.66601023  0.00168080  1
  Na  Na21  1  0.49959709  0.66724093  0.24937633  1
  Na  Na22  1  0.49854868  0.66662796  0.49926325  1
  Na  Na23  1  0.49966358  0.66731382  0.74943433  1
  Na  Na24  1  0.25024990  -0.00070087  0.12454132  1
  Na  Na25  1  0.24996696  -0.00022096  0.37507199  1
  Na  Na26  1  0.24903495  -0.00107666  0.62461189  1
  Na  Na27  1  0.25170833  0.00039892  0.87500660  1
  Na  Na28  1  0.25059030  0.33348747  0.12473376  1
  Na  Na29  1  0.24832338  0.33289378  0.37413506  1
  Na  Na30  1  0.25049967  0.33383891  0.62498903  1
  Na  Na31  1  0.25361841  0.33483000  0.87672961  1
  Na  Na32  1  0.25023986  0.66714985  0.12557594  1
  Na  Na33  1  0.25062209  0.66786924  0.37518769  1
  Na  Na34  1  0.24862591  0.66607496  0.62404557  1
  Na  Na35  1  0.24926969  0.66659251  0.87573741  1
  Na  Na36  1  0.75098838  0.00024224  0.12660711  1
  Na  Na37  1  0.75049733  -0.00058951  0.37417880  1
  Na  Na38  1  0.74996507  -0.00003674  0.62491595  1
  Na  Na39  1  0.74908417  -0.00047396  0.87487136  1
  Na  Na40  1  0.75016443  0.33301218  0.12399139  1
  Na  Na41  1  0.75131777  0.33345974  0.37472677  1
  Na  Na42  1  0.75139235  0.33310750  0.62440117  1
  Na  Na43  1  0.75044674  0.33322435  0.87612773  1
  Na  Na44  1  0.75088708  0.66748451  0.12574973  1
  Na  Na45  1  0.74916938  0.66570965  0.37363268  1
  Na  Na46  1  0.75198897  0.66777633  0.62563591  1
  Na  Na47  1  0.75122604  0.66740175  0.87452714  1
  Na  Na48  1  -0.00314830  0.16832446  0.00137106  1
  Na  Na49  1  0.00006387  0.16659503  0.24834182  1
  Na  Na50  1  -0.00261146  0.16796341  0.49975520  1
  Na  Na51  1  -0.00137712  0.16670970  0.75053218  1
  Na  Na52  1  0.00107870  0.49972932  -0.00096632  1
  Na  Na53  1  0.00026117  0.50029439  0.24989649  1
  Na  Na54  1  0.00027129  0.49969599  0.50015074  1
  Na  Na55  1  -0.00103576  0.50070776  0.75116180  1
  Na  Na56  1  0.00067341  0.83321391  -0.00004288  1
  Na  Na57  1  0.00121768  0.83313896  0.24910427  1
  Na  Na58  1  0.00134254  0.83270807  0.50036842  1
  Na  Na59  1  -0.00024620  0.83338201  0.75070461  1
  Na  Na60  1  0.49836062  0.16751256  0.00135020  1
  Na  Na61  1  0.50064585  0.16620750  0.24938968  1
  Na  Na62  1  0.50143349  0.16649649  0.49931319  1
  Na  Na63  1  0.50102163  0.16683049  0.74978509  1
  Na  Na64  1  0.49943122  0.49948900  0.00043631  1
  Na  Na65  1  0.49895160  0.50027181  0.24988763  1
  Na  Na66  1  0.49952386  0.50003705  0.49910365  1
  Na  Na67  1  0.49768773  0.50113721  0.75060850  1
  Na  Na68  1  0.49912005  0.83320849  0.00062225  1
  Na  Na69  1  0.49920568  0.83273524  0.24936354  1
  Na  Na70  1  0.49862742  0.83284650  0.49934752  1
  Na  Na71  1  0.49879758  0.83342588  0.75057673  1
  Na  Na72  1  0.25306709  0.16595619  0.12435741  1
  Na  Na73  1  0.24933577  0.16727057  0.37454809  1
  Na  Na74  1  0.25050177  0.16668067  0.62534514  1
  Na  Na75  1  0.25236803  0.16665921  0.87559385  1
  Na  Na76  1  0.24955758  0.49972646  0.12519675  1
  Na  Na77  1  0.25023229  0.49949366  0.37480414  1
  Na  Na78  1  0.25025159  0.50018735  0.62369797  1
  Na  Na79  1  0.25086994  0.49956674  0.87636208  1
  Na  Na80  1  0.24971152  0.83322659  0.12498646  1
  Na  Na81  1  0.24875579  0.83335663  0.37521961  1
  Na  Na82  1  0.24839828  0.83326535  0.62436314  1
  Na  Na83  1  0.25095664  0.83254448  0.87575069  1
  Na  Na84  1  0.75175957  0.16614731  0.12545905  1
  Na  Na85  1  0.74936418  0.16793707  0.37422527  1
  Na  Na86  1  0.75020024  0.16694033  0.62505223  1
  Na  Na87  1  0.75026308  0.16650402  0.87506002  1
  Na  Na88  1  0.74934119  0.50049085  0.12450297  1
  Na  Na89  1  0.75024315  0.50031919  0.37424505  1
  Na  Na90  1  0.75219650  0.49952807  0.62529961  1
  Na  Na91  1  0.75120641  0.49966405  0.87553618  1
  Na  Na92  1  0.75037066  0.83297361  0.12645593  1
  Na  Na93  1  0.75134376  0.83272039  0.37394310  1
  Na  Na94  1  0.75123649  0.83243593  0.62482590  1
  Na  Na95  1  0.74983857  0.83303315  0.87488815  1
  Mn  Mn96  1  0.10809691  0.75018152  0.87312415  1
  Mn  Mn97  1  0.60667214  0.41705687  0.87257454  1
  Mn  Mn98  1  0.35865692  0.08380341  0.75277498  1
  Mn  Mn99  1  0.39153092  0.58271048  0.12784908  1
  Mn  Mn100  1  0.85777375  0.41713280  0.00335631  1
  Mn  Mn101  1  0.10821161  0.41568131  0.87273329  1
  Mn  Mn102  1  0.14272001  0.91622893  0.74821982  1
  Mn  Mn103  1  0.14150802  0.58346636  0.49734569  1
  Mn  Mn104  1  0.14236120  0.25069731  0.74845718  1
  Mn  Mn105  1  0.85766391  0.08334305  0.75283982  1
  Mn  Mn106  1  0.89235005  0.58393920  0.37707788  1
  Mn  Mn107  1  0.64272470  0.58370367  0.49802564  1
  Mn  Mn108  1  0.64228156  0.24921415  0.99791782  1
  Mn  Mn109  1  0.64232555  0.58456576  0.99736802  1
  Mn  Mn110  1  0.14238860  0.58338810  0.24760098  1
  Mn  Mn111  1  0.64229657  0.91665381  0.24816798  1
  Mn  Mn112  1  0.39156349  0.91708858  0.12747719  1
  Mn  Mn113  1  0.39225625  0.24991163  0.37674883  1
  Mn  Mn114  1  0.85891130  0.41747379  0.50211545  1
  Mn  Mn115  1  0.35739681  0.74917567  0.75242176  1
  Mn  Mn116  1  0.60837452  0.08315739  0.62240661  1
  Mn  Mn117  1  0.39218587  0.25000112  0.62718857  1
  Mn  Mn118  1  0.14089807  0.24947648  0.49797444  1
  Mn  Mn119  1  0.89250375  0.58312817  0.87753208  1
  Mn  Mn120  1  0.14313853  0.24959573  0.99774251  1
  Mn  Mn121  1  0.64232727  0.91579721  0.49686718  1
  Mn  Mn122  1  0.64222923  0.58259837  0.74814837  1
  Mn  Mn123  1  0.39163009  0.91698605  0.62683204  1
  Mn  Mn124  1  0.60825617  0.74975101  0.62223081  1
  Mn  Mn125  1  0.10800140  0.08356221  0.12217422  1
  Mn  Mn126  1  0.85810608  0.08405632  0.25284023  1
  Mn  Mn127  1  0.35740377  0.41670247  0.50179660  1
  Mn  Mn128  1  0.39129435  0.58324457  0.62736010  1
  Mn  Mn129  1  0.35793478  0.08306650  0.50206413  1
  Mn  Mn130  1  0.10781268  0.08339909  0.37184417  1
  Mn  Mn131  1  0.10795252  0.08407138  0.87376744  1
  Mn  Mn132  1  0.89155740  0.91739756  0.87836945  1
  Mn  Mn133  1  0.64165136  0.91652233  0.74791266  1
  Mn  Mn134  1  0.10771139  0.08348886  0.62305449  1
  Mn  Mn135  1  0.64288373  0.25032199  0.49749361  1
  Mn  Mn136  1  0.60741398  0.08384466  0.12258373  1
  Mn  Mn137  1  0.60740173  0.74959993  0.12251718  1
  Mn  Mn138  1  0.89275256  0.91654664  0.62704580  1
  Mn  Mn139  1  0.60808627  0.41731873  0.62350815  1
  Mn  Mn140  1  0.85854192  0.74911769  0.25240275  1
  Mn  Mn141  1  0.60808290  0.41711372  0.37176137  1
  Mn  Mn142  1  0.10722082  0.41647827  0.62396334  1
  Mn  Mn143  1  0.85798430  0.08251719  0.50152700  1
  Fe  Fe144  1  0.39262759  0.25048576  0.12774033  1
  Fe  Fe145  1  0.85733412  0.75090283  0.00188398  1
  Fe  Fe146  1  0.60719624  0.08309898  0.87441878  1
  Fe  Fe147  1  0.39159661  0.58404832  0.87708938  1
  Fe  Fe148  1  0.14260314  0.24962849  0.24788663  1
  Fe  Fe149  1  0.35758722  0.41712333  0.75173003  1
  Fe  Fe150  1  0.60681535  0.74996163  0.87419630  1
  Fe  Fe151  1  0.35643580  0.75026606  0.50129356  1
  Fe  Fe152  1  0.35647527  0.75020100  0.25248506  1
  Fe  Fe153  1  0.89322476  0.24972344  0.37574195  1
  Fe  Fe154  1  0.10721101  0.41714387  0.12364156  1
  Fe  Fe155  1  0.64316028  0.25105932  0.24803424  1
  Fe  Fe156  1  0.14336051  0.91689575  0.99835784  1
  Fe  Fe157  1  0.14245251  0.91667841  0.49759407  1
  Fe  Fe158  1  0.60675119  0.41642704  0.12383432  1
  Fe  Fe159  1  0.39278919  0.58402189  0.37605219  1
  Fe  Fe160  1  0.85813247  0.75009217  0.50129796  1
  Fe  Fe161  1  0.14305164  0.58345549  0.99884603  1
  Fe  Fe162  1  0.14294338  0.58279144  0.74855534  1
  Fe  Fe163  1  0.10665331  0.74973131  0.62350292  1
  Fe  Fe164  1  0.39300900  0.91641332  0.87729555  1
  Fe  Fe165  1  0.85743330  0.41695928  0.25062804  1
  Fe  Fe166  1  0.35847320  0.08298708  0.00146439  1
  Fe  Fe167  1  0.64275151  0.25059889  0.74888874  1
  Fe  Fe168  1  0.14294742  0.91722864  0.24838335  1
  Fe  Fe169  1  0.89380983  0.91655271  0.37667383  1
  Fe  Fe170  1  0.10771234  0.74939406  0.12295940  1
  Fe  Fe171  1  0.89162935  0.24968958  0.87694628  1
  Fe  Fe172  1  0.85699186  0.08202789  0.00164309  1
  Fe  Fe173  1  0.89331762  0.91600688  0.12638241  1
  Fe  Fe174  1  0.35731809  0.41713506  0.00274239  1
  Fe  Fe175  1  0.39311738  0.24975142  0.87672906  1
  Fe  Fe176  1  0.39206598  0.91616618  0.37621211  1
  Fe  Fe177  1  0.89285596  0.25072944  0.12736488  1
  Fe  Fe178  1  0.64296144  0.91638079  0.99899359  1
  Fe  Fe179  1  0.35703305  0.74992227  0.00144637  1
  Fe  Fe180  1  0.60658741  0.75019522  0.37349830  1
  Fe  Fe181  1  0.85760516  0.74988831  0.75206655  1
  Fe  Fe182  1  0.35684452  0.08318448  0.25222816  1
  Fe  Fe183  1  0.85743540  0.41670981  0.75191136  1
  Fe  Fe184  1  0.89340919  0.58336154  0.12608227  1
  Fe  Fe185  1  0.89192248  0.25023381  0.62756000  1
  Fe  Fe186  1  0.89294948  0.58331651  0.62744208  1
  Fe  Fe187  1  0.64235989  0.58238392  0.24815952  1
  Fe  Fe188  1  0.10741843  0.74968266  0.37356954  1
  Fe  Fe189  1  0.60720969  0.08278645  0.37287551  1
  Fe  Fe190  1  0.35656890  0.41662177  0.25195850  1
  Fe  Fe191  1  0.10705893  0.41673202  0.37263633  1
  P  P192  1  0.05378505  0.25096408  0.11107966  1
  P  P193  1  0.05275650  0.25039923  0.35868787  1
  P  P194  1  0.05124919  0.25037827  0.61039751  1
  P  P195  1  0.05169468  0.24977527  0.86041935  1
  P  P196  1  0.05335872  0.58330623  0.10940816  1
  P  P197  1  0.05321629  0.58388335  0.35984258  1
  P  P198  1  0.05332471  0.58366302  0.61183121  1
  P  P199  1  0.05578007  0.58314802  0.86071066  1
  P  P200  1  0.05492397  0.91576578  0.11056160  1
  P  P201  1  0.05428307  0.91565226  0.36010345  1
  P  P202  1  0.05447217  0.91568881  0.60973864  1
  P  P203  1  0.05449399  0.91704748  0.86157321  1
  P  P204  1  0.55331859  0.25136336  0.11133151  1
  P  P205  1  0.55428320  0.24944642  0.35889628  1
  P  P206  1  0.55462430  0.25074586  0.61077321  1
  P  P207  1  0.55276794  0.24938790  0.86028476  1
  P  P208  1  0.55435340  0.58197361  0.11126657  1
  P  P209  1  0.55281108  0.58460245  0.35929883  1
  P  P210  1  0.55280759  0.58324233  0.60953862  1
  P  P211  1  0.55143178  0.58461468  0.86054379  1
  P  P212  1  0.55379301  0.91664239  0.10943615  1
  P  P213  1  0.55175776  0.91606540  0.35964781  1
  P  P214  1  0.55313128  0.91623223  0.60929816  1
  P  P215  1  0.55358556  0.91601555  0.86233931  1
  P  P216  1  0.44433090  0.08410246  0.13968932  1
  P  P217  1  0.44632175  0.08256731  0.38832221  1
  P  P218  1  0.44728401  0.08322184  0.64016002  1
  P  P219  1  0.44771196  0.08326678  0.89073102  1
  P  P220  1  0.44535017  0.41602828  0.13994173  1
  P  P221  1  0.44537828  0.41746825  0.38834183  1
  P  P222  1  0.44600870  0.41680152  0.64082555  1
  P  P223  1  0.44414058  0.41735870  0.88970084  1
  P  P224  1  0.44396785  0.74996718  0.13979661  1
  P  P225  1  0.44510645  0.75009377  0.38871514  1
  P  P226  1  0.44539763  0.75017692  0.63891397  1
  P  P227  1  0.44666659  0.74965259  0.89091960  1
  P  P228  1  0.94509823  0.08272985  0.13852839  1
  P  P229  1  0.94709161  0.08306433  0.38920844  1
  P  P230  1  0.94653339  0.08347109  0.64019135  1
  P  P231  1  0.94597358  0.08402935  0.89158436  1
  P  P232  1  0.94731803  0.41753138  0.14016145  1
  P  P233  1  0.94675977  0.41614678  0.38790526  1
  P  P234  1  0.94578758  0.41701354  0.64090982  1
  P  P235  1  0.94523584  0.41587053  0.88936852  1
  P  P236  1  0.94678274  0.74987785  0.13822440  1
  P  P237  1  0.94787354  0.75080541  0.39028866  1
  P  P238  1  0.94614267  0.74940441  0.63985685  1
  P  P239  1  0.94494281  0.75020253  0.89009905  1
  P  P240  1  0.19772438  0.08332304  0.23466561  1
  P  P241  1  0.19640364  0.08270631  0.48471287  1
  P  P242  1  0.19730618  0.08361231  0.73529250  1
  P  P243  1  0.19873088  0.08284446  0.98522478  1
  P  P244  1  0.19555601  0.41603684  0.23541073  1
  P  P245  1  0.19516529  0.41654279  0.48406139  1
  P  P246  1  0.19831741  0.41750631  0.73541888  1
  P  P247  1  0.19645559  0.41710854  0.98687910  1
  P  P248  1  0.19568945  0.75075172  0.23584542  1
  P  P249  1  0.19513781  0.75051522  0.48547973  1
  P  P250  1  0.19592668  0.74881099  0.73443804  1
  P  P251  1  0.19628414  0.74993431  0.98676443  1
  P  P252  1  0.69525042  0.08427461  0.23621604  1
  P  P253  1  0.69633268  0.08308450  0.48348299  1
  P  P254  1  0.69507079  0.08436473  0.73659196  1
  P  P255  1  0.69725365  0.08221137  0.98515107  1
  P  P256  1  0.69720113  0.41638383  0.23399029  1
  P  P257  1  0.69745386  0.41715865  0.48457681  1
  P  P258  1  0.69804448  0.41579300  0.73551887  1
  P  P259  1  0.69523258  0.41669296  0.98609602  1
  P  P260  1  0.69507122  0.74914143  0.23632512  1
  P  P261  1  0.69802307  0.74965252  0.48370612  1
  P  P262  1  0.69652247  0.74968255  0.73626044  1
  P  P263  1  0.69741026  0.75104594  0.98482835  1
  P  P264  1  0.30632976  0.25002235  0.01462389  1
  P  P265  1  0.30317407  0.25018605  0.26351553  1
  P  P266  1  0.30272791  0.25005559  0.51483680  1
  P  P267  1  0.30410775  0.25124152  0.76608309  1
  P  P268  1  0.30340604  0.58362332  0.01441445  1
  P  P269  1  0.30358351  0.58323971  0.26556333  1
  P  P270  1  0.30423452  0.58439230  0.51305755  1
  P  P271  1  0.30236689  0.58279417  0.76586757  1
  P  P272  1  0.30408138  0.91634816  0.01376982  1
  P  P273  1  0.30249819  0.91658114  0.26535535  1
  P  P274  1  0.30311166  0.91555919  0.51337531  1
  P  P275  1  0.30422937  0.91621769  0.76601652  1
  P  P276  1  0.80519213  0.24867642  0.01482086  1
  P  P277  1  0.80442814  0.25159908  0.26392833  1
  P  P278  1  0.80582934  0.24976771  0.51411357  1
  P  P279  1  0.80379674  0.25078974  0.76496078  1
  P  P280  1  0.80408059  0.58477601  0.01585685  1
  P  P281  1  0.80370324  0.58212067  0.26309947  1
  P  P282  1  0.80466014  0.58469414  0.51556333  1
  P  P283  1  0.80488837  0.58325459  0.76411429  1
  P  P284  1  0.80254303  0.91650055  0.01609659  1
  P  P285  1  0.80592187  0.91628518  0.26456581  1
  P  P286  1  0.80475899  0.91554105  0.51348790  1
  P  P287  1  0.80345640  0.91590698  0.76506214  1
  O  O288  1  0.05913630  0.24986049  0.18770598  1
  O  O289  1  0.05574039  0.24977852  0.43545646  1
  O  O290  1  0.05557879  0.25025129  0.68706104  1
  O  O291  1  0.05629934  0.25009798  0.93712859  1
  O  O292  1  0.05684711  0.58356415  0.18611012  1
  O  O293  1  0.05554080  0.58372128  0.43669947  1
  O  O294  1  0.05806911  0.58304804  0.68848195  1
  O  O295  1  0.06032204  0.58318697  0.93750370  1
  O  O296  1  0.05976815  0.91668573  0.18729601  1
  O  O297  1  0.05872993  0.91656447  0.43682683  1
  O  O298  1  0.05716278  0.91645673  0.68658399  1
  O  O299  1  0.05947474  0.91694085  0.93835456  1
  O  O300  1  0.55857589  0.25081297  0.18792241  1
  O  O301  1  0.55723974  0.25039596  0.43573614  1
  O  O302  1  0.55881442  0.25102942  0.68756004  1
  O  O303  1  0.55620768  0.25015958  0.93705138  1
  O  O304  1  0.55875250  0.58273558  0.18799547  1
  O  O305  1  0.55653918  0.58380379  0.43599596  1
  O  O306  1  0.55646802  0.58334842  0.68635180  1
  O  O307  1  0.55544827  0.58377710  0.93726646  1
  O  O308  1  0.55708792  0.91652912  0.18620791  1
  O  O309  1  0.55546593  0.91601618  0.43633961  1
  O  O310  1  0.55624973  0.91588324  0.68617275  1
  O  O311  1  0.55831574  0.91610370  0.93898769  1
  O  O312  1  0.44049339  0.08296948  0.06286424  1
  O  O313  1  0.44106653  0.08322644  0.31161675  1
  O  O314  1  0.44397914  0.08335374  0.56330936  1
  O  O315  1  0.44466601  0.08317133  0.81399439  1
  O  O316  1  0.44086067  0.41696093  0.06317999  1
  O  O317  1  0.44081770  0.41659740  0.31159567  1
  O  O318  1  0.44292133  0.41678078  0.56397821  1
  O  O319  1  0.44059518  0.41763588  0.81290495  1
  O  O320  1  0.43950590  0.74990264  0.06304369  1
  O  O321  1  0.44058475  0.75028197  0.31194230  1
  O  O322  1  0.44069049  0.75006883  0.56217762  1
  O  O323  1  0.44348288  0.74954883  0.81416658  1
  O  O324  1  0.94099368  0.08251739  0.06183971  1
  O  O325  1  0.94471417  0.08288754  0.31235628  1
  O  O326  1  0.94372319  0.08265227  0.56342173  1
  O  O327  1  0.94314476  0.08279653  0.81476060  1
  O  O328  1  0.94394250  0.41730955  0.06337313  1
  O  O329  1  0.94203855  0.41699376  0.31131328  1
  O  O330  1  0.94391503  0.41717886  0.56398638  1
  O  O331  1  0.94097296  0.41658973  0.81266108  1
  O  O332  1  0.94202472  0.75031343  0.06159431  1
  O  O333  1  0.94451186  0.74997743  0.31348883  1
  O  O334  1  0.94198488  0.75012553  0.56313896  1
  O  O335  1  0.94075425  0.75031218  0.81331127  1
  O  O336  1  0.19458996  0.08344378  0.06191684  1
  O  O337  1  0.19393485  0.08358208  0.31135659  1
  O  O338  1  0.19336405  0.08331353  0.56150883  1
  O  O339  1  0.19419538  0.08388788  0.81209087  1
  O  O340  1  0.19119531  0.41654949  0.06352781  1
  O  O341  1  0.19052328  0.41657242  0.31209863  1
  O  O342  1  0.19199214  0.41680542  0.56087306  1
  O  O343  1  0.19478022  0.41654593  0.81216904  1
  O  O344  1  0.19191412  0.74980513  0.06351051  1
  O  O345  1  0.19100413  0.74993655  0.31252101  1
  O  O346  1  0.19052411  0.74947321  0.56213091  1
  O  O347  1  0.19345042  0.74993884  0.81129800  1
  O  O348  1  0.69369287  0.08334067  0.06191134  1
  O  O349  1  0.69082288  0.08319404  0.31293320  1
  O  O350  1  0.69370530  0.08299994  0.56038540  1
  O  O351  1  0.69052593  0.08349457  0.81337104  1
  O  O352  1  0.69067414  0.41645575  0.06274810  1
  O  O353  1  0.69406047  0.41648723  0.31080426  1
  O  O354  1  0.69415531  0.41701947  0.56131812  1
  O  O355  1  0.69378457  0.41667423  0.81226263  1
  O  O356  1  0.69350367  0.75002934  0.06155646  1
  O  O357  1  0.69046601  0.74982877  0.31300756  1
  O  O358  1  0.69437906  0.75002016  0.56051115  1
  O  O359  1  0.69102233  0.74971815  0.81288060  1
  O  O360  1  0.30779189  0.25045786  0.18683093  1
  O  O361  1  0.30611139  0.25011068  0.43802806  1
  O  O362  1  0.30655339  0.25023367  0.68926591  1
  O  O363  1  0.31041594  0.24990215  0.93782240  1
  O  O364  1  0.30582377  0.58308805  0.18867346  1
  O  O365  1  0.30862185  0.58393167  0.43638848  1
  O  O366  1  0.30560142  0.58358497  0.68907284  1
  O  O367  1  0.30763287  0.58380334  0.93774479  1
  O  O368  1  0.30580514  0.91640626  0.18862211  1
  O  O369  1  0.30808077  0.91623054  0.43671432  1
  O  O370  1  0.30653701  0.91620804  0.68916138  1
  O  O371  1  0.30898321  0.91634136  0.93710566  1
  O  O372  1  0.80931960  0.25062409  0.18717430  1
  O  O373  1  0.81017686  0.24993579  0.43729141  1
  O  O374  1  0.80816952  0.24991425  0.68815990  1
  O  O375  1  0.80863924  0.24975952  0.93800854  1
  O  O376  1  0.80902239  0.58323862  0.18653334  1
  O  O377  1  0.80728473  0.58373361  0.43867194  1
  O  O378  1  0.80874622  0.58352659  0.68735279  1
  O  O379  1  0.80703859  0.58358337  0.93906185  1
  O  O380  1  0.81028210  0.91603807  0.18781236  1
  O  O381  1  0.80924685  0.91625973  0.43674063  1
  O  O382  1  0.80677966  0.91651778  0.68828240  1
  O  O383  1  0.80555244  0.91651731  0.93932889  1
  O  O384  1  0.23613138  0.24990089  0.03861608  1
  O  O385  1  0.23280457  0.25009688  0.28741360  1
  O  O386  1  0.23306984  0.25014060  0.54000399  1
  O  O387  1  0.23460031  0.25085852  0.79202033  1
  O  O388  1  0.23322440  0.58352175  0.03892340  1
  O  O389  1  0.23392988  0.58350515  0.29091760  1
  O  O390  1  0.23415964  0.58354749  0.53723574  1
  O  O391  1  0.23247395  0.58322837  0.79087587  1
  O  O392  1  0.23376735  0.91629852  0.03778339  1
  O  O393  1  0.23230616  0.91672449  0.28980554  1
  O  O394  1  0.23280969  0.91570894  0.53715572  1
  O  O395  1  0.23460455  0.91625775  0.79141874  1
  O  O396  1  0.73511572  0.24926146  0.03907488  1
  O  O397  1  0.73402924  0.25105834  0.28740505  1
  O  O398  1  0.73570693  0.24976725  0.53798757  1
  O  O399  1  0.73359543  0.25027426  0.78922111  1
  O  O400  1  0.73426623  0.58443439  0.04063455  1
  O  O401  1  0.73331280  0.58233837  0.28676843  1
  O  O402  1  0.73509251  0.58396706  0.54107817  1
  O  O403  1  0.73503921  0.58333969  0.78906563  1
  O  O404  1  0.73262661  0.91646547  0.04131076  1
  O  O405  1  0.73565780  0.91626025  0.28809622  1
  O  O406  1  0.73483457  0.91601486  0.53797647  1
  O  O407  1  0.73370998  0.91612648  0.79001838  1
  O  O408  1  0.26784831  0.08285916  0.21019826  1
  O  O409  1  0.26601726  0.08311192  0.45930493  1
  O  O410  1  0.26696383  0.08309388  0.71004152  1
  O  O411  1  0.26891782  0.08339276  0.96102200  1
  O  O412  1  0.26610563  0.41678957  0.21217237  1
  O  O413  1  0.26497260  0.41644769  0.45925824  1
  O  O414  1  0.26814683  0.41730279  0.71029136  1
  O  O415  1  0.26701875  0.41684807  0.96387425  1
  O  O416  1  0.26624471  0.75006237  0.21252468  1
  O  O417  1  0.26544604  0.75050216  0.46158744  1
  O  O418  1  0.26550919  0.74953070  0.70896711  1
  O  O419  1  0.26652971  0.74982736  0.96256287  1
  O  O420  1  0.76543884  0.08392369  0.21246767  1
  O  O421  1  0.76600237  0.08334992  0.45827927  1
  O  O422  1  0.76508881  0.08375844  0.71232630  1
  O  O423  1  0.76731200  0.08261265  0.96058735  1
  O  O424  1  0.76718008  0.41647042  0.20904018  1
  O  O425  1  0.76724299  0.41733182  0.45963098  1
  O  O426  1  0.76805178  0.41617914  0.71098232  1
  O  O427  1  0.76549693  0.41679479  0.96254131  1
  O  O428  1  0.76534213  0.74972774  0.21264723  1
  O  O429  1  0.76808066  0.74928702  0.45911509  1
  O  O430  1  0.76702512  0.74978165  0.71297192  1
  O  O431  1  0.76761823  0.75044215  0.96070615  1
  O  O432  1  0.01521227  0.08282110  0.16276014  1
  O  O433  1  0.01652332  0.08376911  0.41506817  1
  O  O434  1  0.01606857  0.08307386  0.66588860  1
  O  O435  1  0.01555091  0.08395008  0.91715884  1
  O  O436  1  0.01747602  0.41727569  0.16459807  1
  O  O437  1  0.01699613  0.41644586  0.41213353  1
  O  O438  1  0.01522616  0.41665728  0.66699239  1
  O  O439  1  0.01528056  0.41634521  0.91356291  1
  O  O440  1  0.01721276  0.74991767  0.16199148  1
  O  O441  1  0.01785815  0.74980436  0.41499930  1
  O  O442  1  0.01641067  0.75009066  0.66407714  1
  O  O443  1  0.01514689  0.75000220  0.91372738  1
  O  O444  1  0.51449789  0.08324295  0.16343600  1
  O  O445  1  0.51674015  0.08303700  0.41185708  1
  O  O446  1  0.51686699  0.08301718  0.66535196  1
  O  O447  1  0.51774641  0.08338304  0.91586101  1
  O  O448  1  0.51564494  0.41670453  0.16373845  1
  O  O449  1  0.51550997  0.41701200  0.41231102  1
  O  O450  1  0.51563800  0.41735336  0.66611119  1
  O  O451  1  0.51420591  0.41652361  0.91418107  1
  O  O452  1  0.51424761  0.74995971  0.16308134  1
  O  O453  1  0.51551497  0.74989643  0.41256756  1
  O  O454  1  0.51539554  0.75016813  0.66308369  1
  O  O455  1  0.51660767  0.74961925  0.91610908  1
  O  O456  1  0.48288988  0.25055937  0.08795187  1
  O  O457  1  0.48443216  0.24989406  0.33405198  1
  O  O458  1  0.48474823  0.25035769  0.58611342  1
  O  O459  1  0.48251414  0.24990788  0.83601435  1
  O  O460  1  0.48415754  0.58242175  0.08753715  1
  O  O461  1  0.48263462  0.58422706  0.33488057  1
  O  O462  1  0.48308156  0.58309854  0.58472157  1
  O  O463  1  0.48133087  0.58439374  0.83612094  1
  O  O464  1  0.48381926  0.91671944  0.08522933  1
  O  O465  1  0.48172601  0.91590491  0.33476576  1
  O  O466  1  0.48354365  0.91663117  0.58405468  1
  O  O467  1  0.48322231  0.91620478  0.83829290  1
  O  O468  1  0.98311771  0.25094125  0.08826363  1
  O  O469  1  0.98270257  0.24974295  0.33386832  1
  O  O470  1  0.98115607  0.25091813  0.58604276  1
  O  O471  1  0.98151472  0.24953710  0.83650516  1
  O  O472  1  0.98328493  0.58324309  0.08467457  1
  O  O473  1  0.98373249  0.58427183  0.33402707  1
  O  O474  1  0.98308013  0.58314534  0.58772864  1
  O  O475  1  0.98551236  0.58358633  0.83743331  1
  O  O476  1  0.98433665  0.91602588  0.08734060  1
  O  O477  1  0.98401756  0.91614302  0.33606910  1
  O  O478  1  0.98476762  0.91634207  0.58457545  1
  O  O479  1  0.98434124  0.91657695  0.83797219  1
  O  O480  1  0.08674712  0.31616472  0.07790604  1
  O  O481  1  0.08664473  0.31554167  0.32625069  1
  O  O482  1  0.08518744  0.31534969  0.57762383  1
  O  O483  1  0.08518878  0.31482338  0.82718404  1
  O  O484  1  0.08745509  0.64832174  0.07664924  1
  O  O485  1  0.08770185  0.64896095  0.32783325  1
  O  O486  1  0.08640489  0.64900045  0.57860109  1
  O  O487  1  0.08936174  0.64805343  0.82747830  1
  O  O488  1  0.08833354  0.98067614  0.07681927  1
  O  O489  1  0.08800488  0.98046312  0.32636628  1
  O  O490  1  0.08916092  0.98033449  0.57694426  1
  O  O491  1  0.08757356  0.98226370  0.82846316  1
  O  O492  1  0.58608609  0.31652340  0.07779256  1
  O  O493  1  0.58872211  0.31436119  0.32614486  1
  O  O494  1  0.58811686  0.31586724  0.57763168  1
  O  O495  1  0.58674530  0.31424525  0.82706835  1
  O  O496  1  0.58767303  0.64707038  0.07780546  1
  O  O497  1  0.58656407  0.64973969  0.32673715  1
  O  O498  1  0.58669220  0.64835017  0.57687868  1
  O  O499  1  0.58533793  0.64975097  0.82815010  1
  O  O500  1  0.58792357  0.98159770  0.07687091  1
  O  O501  1  0.58567814  0.98114406  0.32692483  1
  O  O502  1  0.58760502  0.98121498  0.57718782  1
  O  O503  1  0.58694142  0.98113302  0.82910637  1
  O  O504  1  0.41026933  0.01936744  0.17302284  1
  O  O505  1  0.41330368  0.01721103  0.42139827  1
  O  O506  1  0.41307586  0.01820304  0.67250291  1
  O  O507  1  0.41357674  0.01824425  0.92343954  1
  O  O508  1  0.41202339  0.35084883  0.17302140  1
  O  O509  1  0.41186668  0.35251597  0.42175570  1
  O  O510  1  0.41193122  0.35175257  0.67332185  1
  O  O511  1  0.41008848  0.35236831  0.92244001  1
  O  O512  1  0.41045719  0.68503324  0.17312866  1
  O  O513  1  0.41158465  0.68501375  0.42183976  1
  O  O514  1  0.41187427  0.68508752  0.67217192  1
  O  O515  1  0.41225694  0.68473211  0.92356058  1
  O  O516  1  0.91174760  0.01757389  0.17156937  1
  O  O517  1  0.91329794  0.01770065  0.42153164  1
  O  O518  1  0.91221098  0.01855026  0.67283559  1
  O  O519  1  0.91151633  0.01908918  0.92433151  1
  O  O520  1  0.91305169  0.35270104  0.17290829  1
  O  O521  1  0.91351984  0.35087353  0.42082880  1
  O  O522  1  0.91089713  0.35204633  0.67274085  1
  O  O523  1  0.91174029  0.35071970  0.92219611  1
  O  O524  1  0.91372831  0.68454726  0.17157037  1
  O  O525  1  0.91320420  0.68620018  0.42307797  1
  O  O526  1  0.91287453  0.68411711  0.67289960  1
  O  O527  1  0.91131421  0.68526971  0.92323884  1
  O  O528  1  0.16379058  0.01816205  0.20223285  1
  O  O529  1  0.16246119  0.01740240  0.45249673  1
  O  O530  1  0.16296639  0.01851841  0.70318606  1
  O  O531  1  0.16515282  0.01768298  0.95270494  1
  O  O532  1  0.16252950  0.35099977  0.20184899  1
  O  O533  1  0.16086570  0.35157895  0.45159775  1
  O  O534  1  0.16412287  0.35257504  0.70265976  1
  O  O535  1  0.16358080  0.35204234  0.95293861  1
  O  O536  1  0.16210021  0.68592431  0.20206390  1
  O  O537  1  0.16171187  0.68563145  0.45163810  1
  O  O538  1  0.16194890  0.68333966  0.70259631  1
  O  O539  1  0.16286787  0.68487570  0.95365656  1
  O  O540  1  0.66181001  0.01928283  0.20282676  1
  O  O541  1  0.66203375  0.01801093  0.45108177  1
  O  O542  1  0.66145941  0.01938206  0.70326244  1
  O  O543  1  0.66338598  0.01692031  0.95291569  1
  O  O544  1  0.66306061  0.35128044  0.20141445  1
  O  O545  1  0.66355118  0.35214333  0.45185102  1
  O  O546  1  0.66446333  0.35052941  0.70301662  1
  O  O547  1  0.66204470  0.35156224  0.95278319  1
  O  O548  1  0.66204483  0.68387044  0.20313783  1
  O  O549  1  0.66361474  0.68471107  0.45137956  1
  O  O550  1  0.66356920  0.68454056  0.70263982  1
  O  O551  1  0.66321049  0.68640435  0.95137695  1
  O  O552  1  0.33966259  0.31526734  0.04781660  1
  O  O553  1  0.33639048  0.31525406  0.29692359  1
  O  O554  1  0.33689539  0.31511729  0.54717276  1
  O  O555  1  0.33839153  0.31652247  0.79782387  1
  O  O556  1  0.33689321  0.64860801  0.04758295  1
  O  O557  1  0.33800816  0.64832949  0.29758478  1
  O  O558  1  0.33712146  0.64982803  0.54616877  1
  O  O559  1  0.33658114  0.64771999  0.79883738  1
  O  O560  1  0.33732010  0.98151724  0.04699155  1
  O  O561  1  0.33660462  0.98157426  0.29794769  1
  O  O562  1  0.33637748  0.98059299  0.54692314  1
  O  O563  1  0.33892444  0.98107661  0.79828981  1
  O  O564  1  0.83926976  0.31352632  0.04817425  1
  O  O565  1  0.83763576  0.31690043  0.29675451  1
  O  O566  1  0.83938045  0.31483635  0.54729410  1
  O  O567  1  0.83728873  0.31594541  0.79787143  1
  O  O568  1  0.83816013  0.64999870  0.04793920  1
  O  O569  1  0.83701211  0.64700464  0.29703917  1
  O  O570  1  0.83877372  0.65006868  0.54738996  1
  O  O571  1  0.83880216  0.64827371  0.79696462  1
  O  O572  1  0.83679809  0.98155189  0.04848294  1
  O  O573  1  0.83940125  0.98133257  0.29773843  1
  O  O574  1  0.83846952  0.98043333  0.54687037  1
  O  O575  1  0.83736839  0.98098963  0.79787810  1
  O  O576  1  0.41118702  0.14946914  0.17249145  1
  O  O577  1  0.41312233  0.14758979  0.42192298  1
  O  O578  1  0.41331108  0.14835892  0.67261779  1
  O  O579  1  0.41357589  0.14833592  0.92312727  1
  O  O580  1  0.41133567  0.48070869  0.17336921  1
  O  O581  1  0.41223674  0.48296485  0.42097609  1
  O  O582  1  0.41122334  0.48158872  0.67325409  1
  O  O583  1  0.41086903  0.48268221  0.92288739  1
  O  O584  1  0.41054611  0.81501112  0.17305955  1
  O  O585  1  0.41169114  0.81516433  0.42206119  1
  O  O586  1  0.41187306  0.81513705  0.67213074  1
  O  O587  1  0.41249900  0.81473406  0.92348807  1
  O  O588  1  0.91163206  0.14805140  0.17145144  1
  O  O589  1  0.91230696  0.14808778  0.42079415  1
  O  O590  1  0.91238511  0.14878319  0.67214831  1
  O  O591  1  0.91134628  0.14910740  0.92318779  1
  O  O592  1  0.91358876  0.48276595  0.17270003  1
  O  O593  1  0.91342508  0.48110658  0.42160397  1
  O  O594  1  0.91147169  0.48215158  0.67303374  1
  O  O595  1  0.91166999  0.48090579  0.92269614  1
  O  O596  1  0.91349044  0.81474259  0.17192382  1
  O  O597  1  0.91439485  0.81614638  0.42280085  1
  O  O598  1  0.91223150  0.81418692  0.67328492  1
  O  O599  1  0.91141720  0.81510846  0.92357707  1
  O  O600  1  0.08666177  0.18591964  0.07712253  1
  O  O601  1  0.08718978  0.18561321  0.32578140  1
  O  O602  1  0.08462280  0.18518545  0.57729633  1
  O  O603  1  0.08545715  0.18478519  0.82766706  1
  O  O604  1  0.08742113  0.51814938  0.07696075  1
  O  O605  1  0.08733531  0.51877811  0.32753126  1
  O  O606  1  0.08696394  0.51884888  0.57829524  1
  O  O607  1  0.08897236  0.51804139  0.82732772  1
  O  O608  1  0.08818149  0.85061645  0.07747891  1
  O  O609  1  0.08754755  0.85033343  0.32728765  1
  O  O610  1  0.08823840  0.85024306  0.57762296  1
  O  O611  1  0.08800949  0.85202423  0.82837700  1
  O  O612  1  0.58669500  0.18633720  0.07772216  1
  O  O613  1  0.58825296  0.18425973  0.32670055  1
  O  O614  1  0.58850459  0.18569475  0.57792777  1
  O  O615  1  0.58654029  0.18416972  0.82803325  1
  O  O616  1  0.58750664  0.51678272  0.07831677  1
  O  O617  1  0.58696815  0.51970438  0.32616008  1
  O  O618  1  0.58692782  0.51820006  0.57707595  1
  O  O619  1  0.58526333  0.51953841  0.82749323  1
  O  O620  1  0.58779097  0.85167432  0.07669857  1
  O  O621  1  0.58572681  0.85093802  0.32710676  1
  O  O622  1  0.58711264  0.85116098  0.57667024  1
  O  O623  1  0.58650398  0.85062319  0.82897252  1
  O  O624  1  0.34005312  0.18499700  0.04755642  1
  O  O625  1  0.33646634  0.18498138  0.29664762  1
  O  O626  1  0.33689904  0.18496561  0.54715374  1
  O  O627  1  0.33897124  0.18643234  0.79859760  1
  O  O628  1  0.33687446  0.51844613  0.04754253  1
  O  O629  1  0.33789662  0.51814822  0.29761884  1
  O  O630  1  0.33792974  0.51951463  0.54637032  1
  O  O631  1  0.33654105  0.51781746  0.79825135  1
  O  O632  1  0.33717929  0.85126675  0.04724949  1
  O  O633  1  0.33622187  0.85150517  0.29824247  1
  O  O634  1  0.33631046  0.85034913  0.54650600  1
  O  O635  1  0.33853002  0.85117119  0.79833845  1
  O  O636  1  0.83862382  0.18339719  0.04735974  1
  O  O637  1  0.83804545  0.18682187  0.29770381  1
  O  O638  1  0.83926253  0.18472878  0.54737861  1
  O  O639  1  0.83765645  0.18594624  0.79838012  1
  O  O640  1  0.83849263  0.51993709  0.04874801  1
  O  O641  1  0.83678506  0.51683669  0.29616696  1
  O  O642  1  0.83960258  0.51999410  0.54799770  1
  O  O643  1  0.83846068  0.51797142  0.79690408  1
  O  O644  1  0.83692149  0.85145009  0.04857282  1
  O  O645  1  0.83956765  0.85135758  0.29781936  1
  O  O646  1  0.83814321  0.85010238  0.54615791  1
  O  O647  1  0.83752956  0.85086497  0.79741018  1
  O  O648  1  0.16413288  0.14839718  0.20159857  1
  O  O649  1  0.16207412  0.14766431  0.45219245  1
  O  O650  1  0.16339321  0.14883917  0.70284507  1
  O  O651  1  0.16492187  0.14791347  0.95239309  1
  O  O652  1  0.16206829  0.48104582  0.20190165  1
  O  O653  1  0.16105646  0.48158892  0.45137044  1
  O  O654  1  0.16439973  0.48275265  0.70308028  1
  O  O655  1  0.16348036  0.48221870  0.95356710  1
  O  O656  1  0.16270612  0.81595425  0.20260567  1
  O  O657  1  0.16157236  0.81552225  0.45232571  1
  O  O658  1  0.16105820  0.81345870  0.70191453  1
  O  O659  1  0.16301524  0.81503557  0.95352008  1
  O  O660  1  0.66218245  0.14966227  0.20321998  1
  O  O661  1  0.66174066  0.14799173  0.45136289  1
  O  O662  1  0.66206400  0.14993850  0.70390635  1
  O  O663  1  0.66302451  0.14697174  0.95202579  1
  O  O664  1  0.66272960  0.48127668  0.20158994  1
  O  O665  1  0.66339048  0.48223212  0.45204711  1
  O  O666  1  0.66425533  0.48084266  0.70251418  1
  O  O667  1  0.66193966  0.48181454  0.95277341  1
  O  O668  1  0.66161223  0.81411288  0.20289140  1
  O  O669  1  0.66397889  0.81458663  0.45074719  1
  O  O670  1  0.66345583  0.81472750  0.70257492  1
  O  O671  1  0.66378962  0.81637418  0.95241593  1
