# generated using pymatgen
data_Na2MnFe(PO4)2
_symmetry_space_group_name_H-M   'P 1'
_cell_length_a   21.08113101
_cell_length_b   18.93310373
_cell_length_c   20.04078305
_cell_angle_alpha   90.00012017
_cell_angle_beta   90.00298944
_cell_angle_gamma   89.99898468
_symmetry_Int_Tables_number   1
_chemical_formula_structural   Na2MnFe(PO4)2
_chemical_formula_sum   'Na96 Mn48 Fe48 P96 O384'
_cell_volume   7998.90257898
_cell_formula_units_Z   48
loop_
 _symmetry_equiv_pos_site_id
 _symmetry_equiv_pos_as_xyz
  1  'x, y, z'
loop_
 _atom_site_type_symbol
 _atom_site_label
 _atom_site_symmetry_multiplicity
 _atom_site_fract_x
 _atom_site_fract_y
 _atom_site_fract_z
 _atom_site_occupancy
  Na  Na0  1  0.00141724  0.00024747  -0.00010439  1
  Na  Na1  1  -0.00017070  -0.00035372  0.25103501  1
  Na  Na2  1  0.00072120  0.00003480  0.49968126  1
  Na  Na3  1  0.00253014  0.00030379  0.74946264  1
  Na  Na4  1  -0.00014523  0.33358556  0.00049017  1
  Na  Na5  1  -0.00350295  0.33248410  0.25022503  1
  Na  Na6  1  -0.00018491  0.33315339  0.49959689  1
  Na  Na7  1  0.00127312  0.33315256  0.75036832  1
  Na  Na8  1  -0.00199113  0.66569011  0.00063040  1
  Na  Na9  1  -0.00017105  0.66739701  0.24943849  1
  Na  Na10  1  0.00106364  0.66745736  0.49961048  1
  Na  Na11  1  -0.00066081  0.66623275  0.74974604  1
  Na  Na12  1  0.49842686  -0.00058620  0.00129489  1
  Na  Na13  1  0.50155632  0.00072821  0.24957183  1
  Na  Na14  1  0.50113012  0.00065489  0.49991504  1
  Na  Na15  1  0.49925615  0.00063390  0.74980731  1
  Na  Na16  1  0.49997282  0.33350936  0.00072983  1
  Na  Na17  1  0.50073798  0.33308195  0.24924879  1
  Na  Na18  1  0.50040692  0.33321669  0.49850792  1
  Na  Na19  1  0.49901950  0.33306916  0.75039206  1
  Na  Na20  1  0.50038332  0.66707626  0.00018482  1
  Na  Na21  1  0.50070192  0.66680696  0.24946633  1
  Na  Na22  1  0.49979477  0.66664129  0.49919410  1
  Na  Na23  1  0.49892511  0.66629252  0.75153595  1
  Na  Na24  1  0.24845179  -0.00018425  0.12481271  1
  Na  Na25  1  0.24867575  0.00014974  0.37543626  1
  Na  Na26  1  0.24733373  -0.00031797  0.62558914  1
  Na  Na27  1  0.24830743  0.00007240  0.87565102  1
  Na  Na28  1  0.25074828  0.33433771  0.12477349  1
  Na  Na29  1  0.25014777  0.33270160  0.37532726  1
  Na  Na30  1  0.25077254  0.33357950  0.62558265  1
  Na  Na31  1  0.24752363  0.33259797  0.87431657  1
  Na  Na32  1  0.25257783  0.66744687  0.12602766  1
  Na  Na33  1  0.25135713  0.66668075  0.37428012  1
  Na  Na34  1  0.25185130  0.66719599  0.62466081  1
  Na  Na35  1  0.25136289  0.66672307  0.87434568  1
  Na  Na36  1  0.75218214  0.00050586  0.12564706  1
  Na  Na37  1  0.74940316  -0.00059119  0.37466011  1
  Na  Na38  1  0.74918297  -0.00055442  0.62382642  1
  Na  Na39  1  0.75198795  0.00049912  0.87531179  1
  Na  Na40  1  0.75269470  0.33383807  0.12479167  1
  Na  Na41  1  0.75019876  0.33265814  0.37480866  1
  Na  Na42  1  0.74997634  0.33278775  0.62567095  1
  Na  Na43  1  0.75133259  0.33333209  0.87411069  1
  Na  Na44  1  0.74861905  0.66634886  0.12479373  1
  Na  Na45  1  0.74583021  0.66548939  0.37378991  1
  Na  Na46  1  0.74877112  0.66695224  0.62608019  1
  Na  Na47  1  0.74995467  0.66692777  0.87576338  1
  Na  Na48  1  0.00226030  0.16613312  -0.00098461  1
  Na  Na49  1  -0.00149294  0.16735421  0.25105429  1
  Na  Na50  1  -0.00026072  0.16679998  0.49950990  1
  Na  Na51  1  0.00263314  0.16663131  0.75065239  1
  Na  Na52  1  -0.00166815  0.50053400  0.00064171  1
  Na  Na53  1  -0.00213454  0.50035934  0.24974834  1
  Na  Na54  1  -0.00024194  0.49980604  0.49864452  1
  Na  Na55  1  -0.00047347  0.50015117  0.74971910  1
  Na  Na56  1  -0.00116784  0.83352372  0.00130965  1
  Na  Na57  1  -0.00114755  0.83377213  0.24971849  1
  Na  Na58  1  0.00176189  0.83342044  0.50056132  1
  Na  Na59  1  0.00201478  0.83243053  0.74953007  1
  Na  Na60  1  0.49906823  0.16702671  0.00121841  1
  Na  Na61  1  0.50162016  0.16602490  0.24945448  1
  Na  Na62  1  0.50046095  0.16655961  0.49962108  1
  Na  Na63  1  0.49858723  0.16698554  0.74999042  1
  Na  Na64  1  0.49936860  0.49999981  0.00057040  1
  Na  Na65  1  0.49839688  0.50097322  0.24925124  1
  Na  Na66  1  0.49889878  0.50014266  0.49918488  1
  Na  Na67  1  0.49846789  0.50039207  0.75141376  1
  Na  Na68  1  0.50049310  0.83272995  0.00065093  1
  Na  Na69  1  0.50278932  0.83266110  0.24940825  1
  Na  Na70  1  0.50207952  0.83265531  0.49900241  1
  Na  Na71  1  0.49964720  0.83330063  0.75015475  1
  Na  Na72  1  0.24748204  0.16703949  0.12507413  1
  Na  Na73  1  0.25020871  0.16612599  0.37542371  1
  Na  Na74  1  0.24929238  0.16671874  0.62615560  1
  Na  Na75  1  0.24750792  0.16704486  0.87466028  1
  Na  Na76  1  0.25330235  0.49939358  0.12531747  1
  Na  Na77  1  0.25310532  0.49968331  0.37468750  1
  Na  Na78  1  0.25184837  0.49961277  0.62463936  1
  Na  Na79  1  0.25146557  0.49974617  0.87453992  1
  Na  Na80  1  0.25078263  0.83216421  0.12534161  1
  Na  Na81  1  0.24813665  0.83407129  0.37489909  1
  Na  Na82  1  0.24914016  0.83320862  0.62494372  1
  Na  Na83  1  0.24868214  0.83303723  0.87494191  1
  Na  Na84  1  0.75192006  0.16652545  0.12547363  1
  Na  Na85  1  0.74946353  0.16730009  0.37451694  1
  Na  Na86  1  0.75089506  0.16667025  0.62436227  1
  Na  Na87  1  0.75164847  0.16685377  0.87454062  1
  Na  Na88  1  0.75155619  0.49953841  0.12399109  1
  Na  Na89  1  0.74833330  0.50063943  0.37470905  1
  Na  Na90  1  0.74871099  0.50017301  0.62608474  1
  Na  Na91  1  0.75024820  0.50027707  0.87503870  1
  Na  Na92  1  0.75018656  0.83298614  0.12570935  1
  Na  Na93  1  0.74766043  0.83423676  0.37398622  1
  Na  Na94  1  0.74836608  0.83368459  0.62490988  1
  Na  Na95  1  0.75051805  0.83296759  0.87578094  1
  Mn  Mn96  1  0.60677895  0.41656390  0.62318409  1
  Mn  Mn97  1  0.85989418  0.08328957  0.00256058  1
  Mn  Mn98  1  0.35834104  0.41543123  0.50241724  1
  Mn  Mn99  1  0.35807325  0.75126328  0.50172338  1
  Mn  Mn100  1  0.10824192  0.41651141  0.62241970  1
  Mn  Mn101  1  0.10723145  0.41660843  0.12320708  1
  Mn  Mn102  1  0.39205032  0.91623599  0.12789654  1
  Mn  Mn103  1  0.39286391  0.24949271  0.37697133  1
  Mn  Mn104  1  0.85703444  0.08309097  0.50246084  1
  Mn  Mn105  1  0.39167399  0.91661066  0.62695686  1
  Mn  Mn106  1  0.10852404  0.74971735  0.62243685  1
  Mn  Mn107  1  0.14292754  0.58316440  0.49708938  1
  Mn  Mn108  1  0.14328318  0.58336359  0.24778091  1
  Mn  Mn109  1  0.60873078  0.08301757  0.12227425  1
  Mn  Mn110  1  0.39153661  0.25011162  0.12732947  1
  Mn  Mn111  1  0.10740537  0.41752619  0.37221619  1
  Mn  Mn112  1  0.64232311  0.24925332  0.74796183  1
  Mn  Mn113  1  0.89343849  0.91581356  0.87680722  1
  Mn  Mn114  1  0.14248665  0.58296014  0.99849480  1
  Mn  Mn115  1  0.39244818  0.58334872  0.87800373  1
  Mn  Mn116  1  0.14247613  0.58329897  0.74783506  1
  Mn  Mn117  1  0.64331192  0.25040303  0.99752272  1
  Mn  Mn118  1  0.60773090  0.08391872  0.62296232  1
  Mn  Mn119  1  0.64199059  0.58332155  0.74827276  1
  Mn  Mn120  1  0.10743267  0.74968556  0.12273511  1
  Mn  Mn121  1  0.14187562  0.91591217  0.99809835  1
  Mn  Mn122  1  0.89095054  0.58445924  0.37749764  1
  Mn  Mn123  1  0.14141201  0.25029453  0.24781464  1
  Mn  Mn124  1  0.39281035  0.91693293  0.37681563  1
  Mn  Mn125  1  0.64199664  0.91765457  0.74844981  1
  Mn  Mn126  1  0.89247482  0.91718663  0.62685279  1
  Mn  Mn127  1  0.85657069  0.74976744  0.25277314  1
  Mn  Mn128  1  0.60795845  0.41637054  0.37183681  1
  Mn  Mn129  1  0.60714001  0.74971242  0.62306867  1
  Mn  Mn130  1  0.89139735  0.58310174  0.62643742  1
  Mn  Mn131  1  0.35716116  0.08306262  0.25239413  1
  Mn  Mn132  1  0.85653380  0.74965928  0.50131050  1
  Mn  Mn133  1  0.85837882  0.41653185  0.75241417  1
  Mn  Mn134  1  0.85675046  0.41734967  0.50237683  1
  Mn  Mn135  1  0.60810495  0.41699514  0.12230825  1
  Mn  Mn136  1  0.89410123  0.25040855  0.87700280  1
  Mn  Mn137  1  0.39127079  0.91693351  0.87739893  1
  Mn  Mn138  1  0.85823865  0.75067418  0.75262440  1
  Mn  Mn139  1  0.10719005  0.08315989  0.37286944  1
  Mn  Mn140  1  0.64307978  0.91685259  0.99749995  1
  Mn  Mn141  1  0.39115900  0.24975193  0.87791913  1
  Mn  Mn142  1  0.60796932  0.08349744  0.87307619  1
  Mn  Mn143  1  0.35655044  0.08306060  0.75259036  1
  Fe  Fe144  1  0.64202619  0.58261957  0.24713872  1
  Fe  Fe145  1  0.64357669  0.91719672  0.24787600  1
  Fe  Fe146  1  0.89275162  0.58347810  0.87673713  1
  Fe  Fe147  1  0.14251065  0.91615624  0.74831849  1
  Fe  Fe148  1  0.60783333  0.08314937  0.37299959  1
  Fe  Fe149  1  0.10756798  0.74889277  0.87409160  1
  Fe  Fe150  1  0.39346541  0.58373939  0.12647415  1
  Fe  Fe151  1  0.14283216  0.24996383  0.49849440  1
  Fe  Fe152  1  0.35721495  0.41638636  0.75226907  1
  Fe  Fe153  1  0.89273858  0.91627605  0.37693129  1
  Fe  Fe154  1  0.89155413  0.58346696  0.12712965  1
  Fe  Fe155  1  0.89318807  0.24970135  0.62634235  1
  Fe  Fe156  1  0.10778954  0.41799743  0.87382367  1
  Fe  Fe157  1  0.39242886  0.58299451  0.62657225  1
  Fe  Fe158  1  0.35783508  0.75043227  0.25209601  1
  Fe  Fe159  1  0.14254839  0.91706351  0.49772921  1
  Fe  Fe160  1  0.64228449  0.24986767  0.49827131  1
  Fe  Fe161  1  0.35719503  0.75028992  0.75208012  1
  Fe  Fe162  1  0.10819785  0.08281634  0.87290450  1
  Fe  Fe163  1  0.14284079  0.25039226  0.74733011  1
  Fe  Fe164  1  0.89282550  0.91702482  0.12744989  1
  Fe  Fe165  1  0.14211832  0.25092858  0.99912602  1
  Fe  Fe166  1  0.39215680  0.25029644  0.62646055  1
  Fe  Fe167  1  0.35726706  0.41634178  0.00135036  1
  Fe  Fe168  1  0.60741786  0.41641456  0.87377640  1
  Fe  Fe169  1  0.35790972  0.41646194  0.25180774  1
  Fe  Fe170  1  0.35586234  0.08338285  0.00168278  1
  Fe  Fe171  1  0.64345888  0.58283173  0.99831951  1
  Fe  Fe172  1  0.85869794  0.08305454  0.75105350  1
  Fe  Fe173  1  0.85761936  0.08356849  0.25189351  1
  Fe  Fe174  1  0.35782015  0.75008460  0.00176271  1
  Fe  Fe175  1  0.10721392  0.08387969  0.62272161  1
  Fe  Fe176  1  0.60724884  0.75017488  0.87379106  1
  Fe  Fe177  1  0.60703112  0.74993314  0.12271966  1
  Fe  Fe178  1  0.64190570  0.91686008  0.49736239  1
  Fe  Fe179  1  0.89309657  0.24961501  0.12669399  1
  Fe  Fe180  1  0.39386155  0.58388056  0.37606082  1
  Fe  Fe181  1  0.64421953  0.24998334  0.24792653  1
  Fe  Fe182  1  0.35716338  0.08337528  0.50169211  1
  Fe  Fe183  1  0.60725648  0.75034933  0.37280764  1
  Fe  Fe184  1  0.85734654  0.74952249  0.00159434  1
  Fe  Fe185  1  0.89192007  0.24965298  0.37751532  1
  Fe  Fe186  1  0.10748188  0.74970128  0.37302313  1
  Fe  Fe187  1  0.14203674  0.91619280  0.24857194  1
  Fe  Fe188  1  0.10648747  0.08341920  0.12426348  1
  Fe  Fe189  1  0.64067274  0.58317309  0.49836942  1
  Fe  Fe190  1  0.85814502  0.41716083  0.00100404  1
  Fe  Fe191  1  0.85665514  0.41666851  0.25162025  1
  P  P192  1  0.05235707  0.24934768  0.11009090  1
  P  P193  1  0.05272728  0.25018653  0.36118574  1
  P  P194  1  0.05412297  0.24940831  0.61026166  1
  P  P195  1  0.05679912  0.25108801  0.86103543  1
  P  P196  1  0.05162540  0.58309105  0.11044199  1
  P  P197  1  0.05294032  0.58433944  0.35933782  1
  P  P198  1  0.05320136  0.58297038  0.60924938  1
  P  P199  1  0.05244725  0.58337096  0.86064864  1
  P  P200  1  0.05312466  0.91731419  0.11180442  1
  P  P201  1  0.05409749  0.91576348  0.36057359  1
  P  P202  1  0.05560596  0.91762344  0.61034397  1
  P  P203  1  0.05469618  0.91546246  0.85980290  1
  P  P204  1  0.55491241  0.25014741  0.11086045  1
  P  P205  1  0.55564707  0.24885626  0.35980445  1
  P  P206  1  0.55220507  0.25027309  0.60938579  1
  P  P207  1  0.55302024  0.25067040  0.86035867  1
  P  P208  1  0.55443128  0.58390078  0.11014973  1
  P  P209  1  0.55426960  0.58370660  0.35979310  1
  P  P210  1  0.55174369  0.58306118  0.60990487  1
  P  P211  1  0.55511589  0.58303582  0.86229925  1
  P  P212  1  0.55497684  0.91597227  0.11105915  1
  P  P213  1  0.55547466  0.91723864  0.35992081  1
  P  P214  1  0.55354987  0.91682603  0.60931156  1
  P  P215  1  0.55277583  0.91628563  0.86037246  1
  P  P216  1  0.44528760  0.08340360  0.13925568  1
  P  P217  1  0.44757390  0.08309560  0.39031438  1
  P  P218  1  0.44487226  0.08419046  0.63885361  1
  P  P219  1  0.44559475  0.08347129  0.89147633  1
  P  P220  1  0.44483071  0.41736633  0.13920283  1
  P  P221  1  0.44579220  0.41711308  0.38820864  1
  P  P222  1  0.44556413  0.41627885  0.64071489  1
  P  P223  1  0.44607654  0.41637039  0.89010688  1
  P  P224  1  0.44602976  0.74924112  0.13948050  1
  P  P225  1  0.44708400  0.75000037  0.38816398  1
  P  P226  1  0.44572749  0.74937404  0.64063174  1
  P  P227  1  0.44611089  0.75028954  0.88994906  1
  P  P228  1  0.94731724  0.08346713  0.14085305  1
  P  P229  1  0.94463209  0.08282538  0.38898672  1
  P  P230  1  0.94766189  0.08411936  0.64009589  1
  P  P231  1  0.94823103  0.08307502  0.88832469  1
  P  P232  1  0.94419266  0.41670502  0.13934714  1
  P  P233  1  0.94442353  0.41628211  0.38878489  1
  P  P234  1  0.94668934  0.41571439  0.63966523  1
  P  P235  1  0.94786488  0.41749376  0.89047737  1
  P  P236  1  0.94454975  0.74986047  0.13908838  1
  P  P237  1  0.94750204  0.75120365  0.38996496  1
  P  P238  1  0.94664252  0.75023810  0.63960054  1
  P  P239  1  0.94764053  0.74918881  0.89080324  1
  P  P240  1  0.19514613  0.08242170  0.23463356  1
  P  P241  1  0.19613516  0.08408070  0.48652223  1
  P  P242  1  0.19391552  0.08320899  0.73576431  1
  P  P243  1  0.19486720  0.08406233  0.98626646  1
  P  P244  1  0.19822635  0.41711237  0.23497424  1
  P  P245  1  0.19697518  0.41563679  0.48466637  1
  P  P246  1  0.19670422  0.41673930  0.73605875  1
  P  P247  1  0.19737987  0.41675054  0.98490244  1
  P  P248  1  0.19667307  0.75044600  0.23613211  1
  P  P249  1  0.19633575  0.75052055  0.48391021  1
  P  P250  1  0.19666339  0.74991025  0.73628326  1
  P  P251  1  0.19769166  0.74908151  0.98485586  1
  P  P252  1  0.69715911  0.08346268  0.23623108  1
  P  P253  1  0.69565168  0.08361926  0.48424066  1
  P  P254  1  0.69865085  0.08340066  0.73462540  1
  P  P255  1  0.69843833  0.08355362  0.98477637  1
  P  P256  1  0.69765733  0.41625862  0.23460810  1
  P  P257  1  0.69565000  0.41635108  0.48517845  1
  P  P258  1  0.69554865  0.41629273  0.73626131  1
  P  P259  1  0.69800594  0.41732862  0.98445699  1
  P  P260  1  0.69383779  0.75015122  0.23533599  1
  P  P261  1  0.69489206  0.74986000  0.48415654  1
  P  P262  1  0.69538054  0.75041868  0.73651698  1
  P  P263  1  0.69611511  0.74914591  0.98611775  1
  P  P264  1  0.30142345  0.24978869  0.01478626  1
  P  P265  1  0.30289344  0.25034800  0.26519317  1
  P  P266  1  0.30290920  0.24872657  0.51568017  1
  P  P267  1  0.30307174  0.25049860  0.76395810  1
  P  P268  1  0.30438134  0.58348120  0.01567858  1
  P  P269  1  0.30647768  0.58370807  0.26405045  1
  P  P270  1  0.30578606  0.58361601  0.51399965  1
  P  P271  1  0.30524212  0.58323458  0.76364102  1
  P  P272  1  0.30302419  0.91649064  0.01517849  1
  P  P273  1  0.30190997  0.91605531  0.26521332  1
  P  P274  1  0.30186452  0.91780804  0.51471485  1
  P  P275  1  0.30159204  0.91612484  0.76499136  1
  P  P276  1  0.80526873  0.25091010  0.01520870  1
  P  P277  1  0.80487343  0.24991471  0.26406942  1
  P  P278  1  0.80342390  0.25001994  0.51449921  1
  P  P279  1  0.80563726  0.24874588  0.76371221  1
  P  P280  1  0.80451196  0.58351892  0.01403472  1
  P  P281  1  0.80237423  0.58279675  0.26362131  1
  P  P282  1  0.80011117  0.58386318  0.51500992  1
  P  P283  1  0.80409221  0.58358083  0.76618334  1
  P  P284  1  0.80500238  0.91559467  0.01582543  1
  P  P285  1  0.80447654  0.91734325  0.26448589  1
  P  P286  1  0.80259082  0.91605966  0.51342752  1
  P  P287  1  0.80370360  0.91771007  0.76505482  1
  O  O288  1  0.05544624  0.25045900  0.18686135  1
  O  O289  1  0.05815310  0.25020710  0.43779195  1
  O  O290  1  0.05893284  0.25046482  0.68701320  1
  O  O291  1  0.05998768  0.25108823  0.93794573  1
  O  O292  1  0.05636816  0.58320826  0.18703834  1
  O  O293  1  0.05664907  0.58345088  0.43608685  1
  O  O294  1  0.05664069  0.58292428  0.68606202  1
  O  O295  1  0.05598555  0.58322467  0.93732866  1
  O  O296  1  0.05776444  0.91624016  0.18845288  1
  O  O297  1  0.05898422  0.91671769  0.43731018  1
  O  O298  1  0.05963453  0.91630845  0.68712452  1
  O  O299  1  0.05670785  0.91572960  0.93673644  1
  O  O300  1  0.56015125  0.25008713  0.18758307  1
  O  O301  1  0.55935514  0.24987184  0.43661399  1
  O  O302  1  0.55621098  0.24985530  0.68611552  1
  O  O303  1  0.55649123  0.25011737  0.93713428  1
  O  O304  1  0.55884675  0.58262692  0.18693524  1
  O  O305  1  0.55816799  0.58284714  0.43658332  1
  O  O306  1  0.55573881  0.58313166  0.68664375  1
  O  O307  1  0.55908847  0.58296216  0.93902899  1
  O  O308  1  0.55962971  0.91725380  0.18778278  1
  O  O309  1  0.55879760  0.91720602  0.43677658  1
  O  O310  1  0.55643384  0.91720202  0.68613175  1
  O  O311  1  0.55609173  0.91680234  0.93716126  1
  O  O312  1  0.43972899  0.08353508  0.06259658  1
  O  O313  1  0.44342674  0.08308848  0.31358033  1
  O  O314  1  0.44077059  0.08336388  0.56209390  1
  O  O315  1  0.44203981  0.08357113  0.81461995  1
  O  O316  1  0.44045840  0.41609178  0.06241647  1
  O  O317  1  0.44198048  0.41606479  0.31142877  1
  O  O318  1  0.44349539  0.41587059  0.56381249  1
  O  O319  1  0.44101911  0.41613492  0.81343151  1
  O  O320  1  0.44127857  0.75021709  0.06276362  1
  O  O321  1  0.44241516  0.75105701  0.31149872  1
  O  O322  1  0.44334263  0.75058550  0.56375319  1
  O  O323  1  0.44089693  0.75051930  0.81328719  1
  O  O324  1  0.94506198  0.08324405  0.06395710  1
  O  O325  1  0.94082069  0.08305691  0.31225655  1
  O  O326  1  0.94348775  0.08338314  0.56332739  1
  O  O327  1  0.94340347  0.08313196  0.81176794  1
  O  O328  1  0.94096785  0.41706939  0.06252490  1
  O  O329  1  0.94002564  0.41689610  0.31199076  1
  O  O330  1  0.94318841  0.41639956  0.56286636  1
  O  O331  1  0.94436874  0.41666270  0.81375772  1
  O  O332  1  0.94073529  0.74954085  0.06234753  1
  O  O333  1  0.94309520  0.75050470  0.31326465  1
  O  O334  1  0.94287401  0.75046125  0.56286137  1
  O  O335  1  0.94435047  0.74997687  0.81405027  1
  O  O336  1  0.19019203  0.08328619  0.06294867  1
  O  O337  1  0.19235940  0.08331349  0.31153671  1
  O  O338  1  0.19181385  0.08414753  0.56318852  1
  O  O339  1  0.19056457  0.08312948  0.81271469  1
  O  O340  1  0.19349647  0.41762051  0.06160385  1
  O  O341  1  0.19398157  0.41721423  0.31164999  1
  O  O342  1  0.19403420  0.41653356  0.56147892  1
  O  O343  1  0.19179222  0.41783873  0.81270748  1
  O  O344  1  0.19351378  0.74896914  0.06158557  1
  O  O345  1  0.19159765  0.74973245  0.31273882  1
  O  O346  1  0.19367459  0.74948515  0.56076697  1
  O  O347  1  0.19175734  0.74880519  0.81293644  1
  O  O348  1  0.69495695  0.08347830  0.06155749  1
  O  O349  1  0.69253002  0.08326900  0.31284779  1
  O  O350  1  0.69305310  0.08367198  0.56106703  1
  O  O351  1  0.69471990  0.08364637  0.81132169  1
  O  O352  1  0.69424688  0.41666532  0.06118278  1
  O  O353  1  0.69402842  0.41644040  0.31127846  1
  O  O354  1  0.69305971  0.41620351  0.56199499  1
  O  O355  1  0.69126309  0.41618121  0.81298686  1
  O  O356  1  0.69146568  0.74984760  0.06283365  1
  O  O357  1  0.68997596  0.75002344  0.31215413  1
  O  O358  1  0.69275057  0.74988600  0.56102689  1
  O  O359  1  0.69102644  0.75033036  0.81329024  1
  O  O360  1  0.30572719  0.24986626  0.18842141  1
  O  O361  1  0.30696019  0.24919278  0.43896549  1
  O  O362  1  0.30798561  0.25013553  0.68735753  1
  O  O363  1  0.30443629  0.24961275  0.93804770  1
  O  O364  1  0.31004501  0.58396913  0.18726739  1
  O  O365  1  0.31023281  0.58385250  0.43721048  1
  O  O366  1  0.30873829  0.58321179  0.68688447  1
  O  O367  1  0.30676605  0.58356194  0.93875634  1
  O  O368  1  0.30579802  0.91634138  0.18852678  1
  O  O369  1  0.30617238  0.91737177  0.43806229  1
  O  O370  1  0.30526311  0.91666164  0.68830936  1
  O  O371  1  0.30544317  0.91657400  0.93839834  1
  O  O372  1  0.80941326  0.24937538  0.18736470  1
  O  O373  1  0.80815187  0.24981853  0.43775155  1
  O  O374  1  0.80962399  0.24945748  0.68693377  1
  O  O375  1  0.80842563  0.25007988  0.93839637  1
  O  O376  1  0.80739592  0.58367263  0.18695760  1
  O  O377  1  0.80425898  0.58402668  0.43826864  1
  O  O378  1  0.80689039  0.58348038  0.68934657  1
  O  O379  1  0.80912426  0.58375368  0.93734477  1
  O  O380  1  0.80941028  0.91688702  0.18777417  1
  O  O381  1  0.80789720  0.91595520  0.43680107  1
  O  O382  1  0.80638994  0.91677952  0.68823063  1
  O  O383  1  0.80817534  0.91623457  0.93901791  1
  O  O384  1  0.23144742  0.25068447  0.03998026  1
  O  O385  1  0.23323163  0.24970517  0.29050984  1
  O  O386  1  0.23283435  0.24979333  0.54013248  1
  O  O387  1  0.23264029  0.24974582  0.78742564  1
  O  O388  1  0.23483751  0.58343337  0.04144245  1
  O  O389  1  0.23647186  0.58345164  0.28859072  1
  O  O390  1  0.23568450  0.58341219  0.53795837  1
  O  O391  1  0.23543704  0.58316736  0.78860863  1
  O  O392  1  0.23336839  0.91585341  0.04072512  1
  O  O393  1  0.23186537  0.91661685  0.28971454  1
  O  O394  1  0.23172326  0.91703000  0.53896956  1
  O  O395  1  0.23160708  0.91663693  0.78977055  1
  O  O396  1  0.73556511  0.25019469  0.04034363  1
  O  O397  1  0.73440609  0.24984602  0.28773007  1
  O  O398  1  0.73296134  0.24957449  0.53792373  1
  O  O399  1  0.73571368  0.24965619  0.78822743  1
  O  O400  1  0.73405652  0.58318162  0.03780147  1
  O  O401  1  0.73184618  0.58312397  0.28680488  1
  O  O402  1  0.73009782  0.58361478  0.53958054  1
  O  O403  1  0.73434676  0.58355492  0.79106349  1
  O  O404  1  0.73525045  0.91658992  0.04080666  1
  O  O405  1  0.73386654  0.91669641  0.28742411  1
  O  O406  1  0.73210746  0.91661696  0.53665670  1
  O  O407  1  0.73429709  0.91726532  0.79097986  1
  O  O408  1  0.26480065  0.08326473  0.20953466  1
  O  O409  1  0.26628911  0.08360259  0.46204056  1
  O  O410  1  0.26391289  0.08332967  0.71146215  1
  O  O411  1  0.26519352  0.08328276  0.96220638  1
  O  O412  1  0.26838352  0.41704921  0.21091421  1
  O  O413  1  0.26673926  0.41572124  0.45973088  1
  O  O414  1  0.26700657  0.41681793  0.71226756  1
  O  O415  1  0.26756106  0.41653397  0.96046701  1
  O  O416  1  0.26714434  0.75006546  0.21273785  1
  O  O417  1  0.26611442  0.75047412  0.45889360  1
  O  O418  1  0.26691885  0.74993796  0.71226292  1
  O  O419  1  0.26790595  0.74971387  0.96083478  1
  O  O420  1  0.76760432  0.08361572  0.21248178  1
  O  O421  1  0.76537921  0.08341357  0.45906349  1
  O  O422  1  0.76848363  0.08315878  0.70952832  1
  O  O423  1  0.76830908  0.08362842  0.96017155  1
  O  O424  1  0.76768820  0.41643035  0.20997506  1
  O  O425  1  0.76511161  0.41671372  0.45928112  1
  O  O426  1  0.76556291  0.41650318  0.71212460  1
  O  O427  1  0.76821653  0.41715127  0.96016725  1
  O  O428  1  0.76400306  0.74989202  0.21145760  1
  O  O429  1  0.76431062  0.74985570  0.45790735  1
  O  O430  1  0.76533618  0.75027995  0.71224083  1
  O  O431  1  0.76660826  0.74955965  0.96258329  1
  O  O432  1  0.01708170  0.08355958  0.16642721  1
  O  O433  1  0.01466117  0.08288899  0.41343380  1
  O  O434  1  0.01785603  0.08371896  0.66413199  1
  O  O435  1  0.01868668  0.08315942  0.91194239  1
  O  O436  1  0.01413391  0.41644928  0.16423715  1
  O  O437  1  0.01447563  0.41657505  0.41286833  1
  O  O438  1  0.01637714  0.41615349  0.66474250  1
  O  O439  1  0.01790122  0.41718821  0.91520675  1
  O  O440  1  0.01456886  0.75014704  0.16350311  1
  O  O441  1  0.01758905  0.75071812  0.41420162  1
  O  O442  1  0.01651202  0.74974308  0.66418759  1
  O  O443  1  0.01760039  0.74957603  0.91585874  1
  O  O444  1  0.51561523  0.08327806  0.16237792  1
  O  O445  1  0.51782373  0.08331495  0.41415025  1
  O  O446  1  0.51485486  0.08385687  0.66334893  1
  O  O447  1  0.51539453  0.08340456  0.91623351  1
  O  O448  1  0.51502816  0.41703519  0.16302195  1
  O  O449  1  0.51568928  0.41679622  0.41268909  1
  O  O450  1  0.51504975  0.41658557  0.66660371  1
  O  O451  1  0.51640266  0.41677098  0.91378845  1
  O  O452  1  0.51653309  0.74958610  0.16275756  1
  O  O453  1  0.51740750  0.74998721  0.41193275  1
  O  O454  1  0.51531874  0.74979221  0.66615956  1
  O  O455  1  0.51655504  0.74973867  0.91332917  1
  O  O456  1  0.48461559  0.25040334  0.08758084  1
  O  O457  1  0.48559764  0.24943269  0.33549870  1
  O  O458  1  0.48209983  0.25019968  0.58497606  1
  O  O459  1  0.48325321  0.25010984  0.83544622  1
  O  O460  1  0.48401858  0.58366962  0.08661921  1
  O  O461  1  0.48400028  0.58359487  0.33574196  1
  O  O462  1  0.48169883  0.58315546  0.58546006  1
  O  O463  1  0.48503480  0.58327263  0.83799765  1
  O  O464  1  0.48482089  0.91586841  0.08738705  1
  O  O465  1  0.48555757  0.91704178  0.33507590  1
  O  O466  1  0.48383206  0.91657249  0.58409594  1
  O  O467  1  0.48312791  0.91675959  0.83506303  1
  O  O468  1  0.98241686  0.24961213  0.08511064  1
  O  O469  1  0.98226480  0.24980539  0.33793925  1
  O  O470  1  0.98374471  0.24967477  0.58656119  1
  O  O471  1  0.98680929  0.25061538  0.83648007  1
  O  O472  1  0.98133258  0.58304367  0.08678184  1
  O  O473  1  0.98306141  0.58417649  0.33469849  1
  O  O474  1  0.98349380  0.58330444  0.58412742  1
  O  O475  1  0.98249202  0.58325621  0.83564790  1
  O  O476  1  0.98284973  0.91706490  0.08782765  1
  O  O477  1  0.98368436  0.91657340  0.33711174  1
  O  O478  1  0.98553808  0.91714946  0.58611821  1
  O  O479  1  0.98524228  0.91591694  0.83383177  1
  O  O480  1  0.08667705  0.31420277  0.07720382  1
  O  O481  1  0.08565019  0.31512725  0.32723396  1
  O  O482  1  0.08780800  0.31409072  0.57653794  1
  O  O483  1  0.09013700  0.31644429  0.82820263  1
  O  O484  1  0.08517691  0.64807322  0.07727393  1
  O  O485  1  0.08688490  0.64965107  0.32717222  1
  O  O486  1  0.08763132  0.64793704  0.57704432  1
  O  O487  1  0.08628120  0.64860305  0.82805709  1
  O  O488  1  0.08631241  0.98264844  0.07900064  1
  O  O489  1  0.08783272  0.98062393  0.32712571  1
  O  O490  1  0.08878629  0.98317185  0.57770518  1
  O  O491  1  0.08949121  0.98031072  0.82774326  1
  O  O492  1  0.58814040  0.31526148  0.07752827  1
  O  O493  1  0.58970088  0.31362047  0.32640953  1
  O  O494  1  0.58603486  0.31537127  0.57667512  1
  O  O495  1  0.58680957  0.31602601  0.82816325  1
  O  O496  1  0.58785523  0.64910320  0.07743126  1
  O  O497  1  0.58778979  0.64877367  0.32693877  1
  O  O498  1  0.58568824  0.64796725  0.57695696  1
  O  O499  1  0.58849214  0.64823953  0.82927730  1
  O  O500  1  0.58838558  0.98076538  0.07731383  1
  O  O501  1  0.58930517  0.98244466  0.32715049  1
  O  O502  1  0.58787447  0.98177294  0.57682155  1
  O  O503  1  0.58691705  0.98139083  0.82780789  1
  O  O504  1  0.41219691  0.01827447  0.17278801  1
  O  O505  1  0.41379780  0.01807894  0.42327779  1
  O  O506  1  0.41115298  0.01922746  0.67215745  1
  O  O507  1  0.41116930  0.01851476  0.92385321  1
  O  O508  1  0.41093316  0.35272073  0.17291348  1
  O  O509  1  0.41215434  0.35219060  0.42160513  1
  O  O510  1  0.41120005  0.35112594  0.67295609  1
  O  O511  1  0.41261010  0.35147707  0.92364753  1
  O  O512  1  0.41301148  0.68392725  0.17246044  1
  O  O513  1  0.41378640  0.68484691  0.42105521  1
  O  O514  1  0.41171938  0.68406232  0.67254650  1
  O  O515  1  0.41259401  0.68532335  0.92338786  1
  O  O516  1  0.91284877  0.01860887  0.17332856  1
  O  O517  1  0.91134701  0.01745767  0.42185599  1
  O  O518  1  0.91375634  0.01917797  0.67313916  1
  O  O519  1  0.91514073  0.01806789  0.92191574  1
  O  O520  1  0.91032899  0.35144264  0.17182089  1
  O  O521  1  0.91106472  0.35100700  0.42160991  1
  O  O522  1  0.91304328  0.35036436  0.67199495  1
  O  O523  1  0.91369796  0.35262517  0.92336857  1
  O  O524  1  0.91103185  0.68471867  0.17224356  1
  O  O525  1  0.91343891  0.68620525  0.42279855  1
  O  O526  1  0.91243833  0.68530661  0.67208416  1
  O  O527  1  0.91343281  0.68406430  0.92307172  1
  O  O528  1  0.16128952  0.01699900  0.20267342  1
  O  O529  1  0.16225105  0.01914550  0.45343018  1
  O  O530  1  0.16024785  0.01810992  0.70304995  1
  O  O531  1  0.16108798  0.01915157  0.95277673  1
  O  O532  1  0.16438601  0.35201015  0.20227074  1
  O  O533  1  0.16291455  0.35026233  0.45282887  1
  O  O534  1  0.16346846  0.35135645  0.70312533  1
  O  O535  1  0.16312600  0.35186364  0.95257378  1
  O  O536  1  0.16348289  0.68553476  0.20223487  1
  O  O537  1  0.16208942  0.68569037  0.45101889  1
  O  O538  1  0.16350515  0.68501788  0.70236409  1
  O  O539  1  0.16423679  0.68396599  0.95174141  1
  O  O540  1  0.66406886  0.01831817  0.20270510  1
  O  O541  1  0.66130373  0.01862472  0.45185744  1
  O  O542  1  0.66429913  0.01848558  0.70216837  1
  O  O543  1  0.66453039  0.01842012  0.95230323  1
  O  O544  1  0.66415375  0.35101822  0.20194891  1
  O  O545  1  0.66178674  0.35103784  0.45280338  1
  O  O546  1  0.66210548  0.35129814  0.70297656  1
  O  O547  1  0.66408187  0.35243519  0.95137261  1
  O  O548  1  0.66006716  0.68520961  0.20220342  1
  O  O549  1  0.66020410  0.68480599  0.45219136  1
  O  O550  1  0.66171623  0.68531252  0.70348083  1
  O  O551  1  0.66285546  0.68395059  0.95308852  1
  O  O552  1  0.33601334  0.31469761  0.04693211  1
  O  O553  1  0.33694982  0.31555943  0.29730312  1
  O  O554  1  0.33736418  0.31352675  0.54854381  1
  O  O555  1  0.33589536  0.31574932  0.79745194  1
  O  O556  1  0.33887880  0.64856141  0.04775517  1
  O  O557  1  0.34012565  0.64888185  0.29711249  1
  O  O558  1  0.33930741  0.64862141  0.54719685  1
  O  O559  1  0.33903464  0.64837262  0.79649040  1
  O  O560  1  0.33671281  0.98182538  0.04751542  1
  O  O561  1  0.33582200  0.98110623  0.29797668  1
  O  O562  1  0.33517204  0.98291327  0.54774936  1
  O  O563  1  0.33541156  0.98115004  0.79787993  1
  O  O564  1  0.83895360  0.31637144  0.04717738  1
  O  O565  1  0.83784017  0.31529284  0.29716974  1
  O  O566  1  0.83662372  0.31506634  0.54784103  1
  O  O567  1  0.83972971  0.31352151  0.79695192  1
  O  O568  1  0.83754783  0.64859454  0.04776665  1
  O  O569  1  0.83532955  0.64779760  0.29761773  1
  O  O570  1  0.83395022  0.64888816  0.54768150  1
  O  O571  1  0.83840120  0.64850814  0.79869883  1
  O  O572  1  0.83981781  0.98041640  0.04836235  1
  O  O573  1  0.83750098  0.98240319  0.29787050  1
  O  O574  1  0.83605056  0.98105754  0.54686016  1
  O  O575  1  0.83807364  0.98301746  0.79675634  1
  O  O576  1  0.41225296  0.14851888  0.17278753  1
  O  O577  1  0.41353977  0.14800123  0.42318941  1
  O  O578  1  0.41143283  0.14952027  0.67157249  1
  O  O579  1  0.41128489  0.14843098  0.92409812  1
  O  O580  1  0.41168620  0.48290179  0.17167492  1
  O  O581  1  0.41234242  0.48242489  0.42066350  1
  O  O582  1  0.41105288  0.48136915  0.67266180  1
  O  O583  1  0.41238627  0.48133424  0.92332193  1
  O  O584  1  0.41246691  0.81389739  0.17353317  1
  O  O585  1  0.41397886  0.81496710  0.42202354  1
  O  O586  1  0.41100933  0.81420340  0.67323268  1
  O  O587  1  0.41293570  0.81521710  0.92362426  1
  O  O588  1  0.91296062  0.14864038  0.17286436  1
  O  O589  1  0.91110116  0.14792818  0.42199350  1
  O  O590  1  0.91413045  0.14925312  0.67285387  1
  O  O591  1  0.91518174  0.14811010  0.92195052  1
  O  O592  1  0.91022299  0.48170555  0.17231788  1
  O  O593  1  0.91085511  0.48143183  0.42188128  1
  O  O594  1  0.91235071  0.48067024  0.67214842  1
  O  O595  1  0.91368920  0.48252600  0.92287430  1
  O  O596  1  0.91094682  0.81502021  0.17194355  1
  O  O597  1  0.91399582  0.81645510  0.42263422  1
  O  O598  1  0.91324269  0.81555834  0.67242731  1
  O  O599  1  0.91320656  0.81398123  0.92357387  1
  O  O600  1  0.08636521  0.18410785  0.07807400  1
  O  O601  1  0.08592916  0.18501856  0.32790151  1
  O  O602  1  0.08734203  0.18408522  0.57727336  1
  O  O603  1  0.09073739  0.18610404  0.82823545  1
  O  O604  1  0.08517682  0.51802493  0.07742905  1
  O  O605  1  0.08688217  0.51931019  0.32643103  1
  O  O606  1  0.08710810  0.51782616  0.57674308  1
  O  O607  1  0.08651602  0.51834773  0.82790725  1
  O  O608  1  0.08662670  0.85249798  0.07805155  1
  O  O609  1  0.08718628  0.85059454  0.32723158  1
  O  O610  1  0.08975041  0.85301293  0.57694177  1
  O  O611  1  0.08879067  0.85000464  0.82802944  1
  O  O612  1  0.58811829  0.18513739  0.07743265  1
  O  O613  1  0.58912874  0.18348209  0.32723297  1
  O  O614  1  0.58646513  0.18549159  0.57646570  1
  O  O615  1  0.58715700  0.18565724  0.82757417  1
  O  O616  1  0.58805011  0.51913165  0.07649251  1
  O  O617  1  0.58775314  0.51874303  0.32611727  1
  O  O618  1  0.58547175  0.51802962  0.57693931  1
  O  O619  1  0.58824174  0.51773736  0.82916324  1
  O  O620  1  0.58826939  0.85056098  0.07838628  1
  O  O621  1  0.58951897  0.85223966  0.32723407  1
  O  O622  1  0.58788356  0.85176425  0.57711339  1
  O  O623  1  0.58670709  0.85096627  0.82834796  1
  O  O624  1  0.33483733  0.18455015  0.04758968  1
  O  O625  1  0.33723664  0.18537653  0.29767699  1
  O  O626  1  0.33638531  0.18354308  0.54847695  1
  O  O627  1  0.33638249  0.18556270  0.79755284  1
  O  O628  1  0.33893139  0.51834445  0.04742586  1
  O  O629  1  0.34043566  0.51865046  0.29677577  1
  O  O630  1  0.33946930  0.51855143  0.54703868  1
  O  O631  1  0.33910368  0.51816534  0.79655210  1
  O  O632  1  0.33753996  0.85143477  0.04723694  1
  O  O633  1  0.33576903  0.85098692  0.29792295  1
  O  O634  1  0.33576787  0.85274828  0.54752359  1
  O  O635  1  0.33536801  0.85100602  0.79757324  1
  O  O636  1  0.83999470  0.18620498  0.04803261  1
  O  O637  1  0.83824076  0.18504808  0.29782292  1
  O  O638  1  0.83725459  0.18515607  0.54772234  1
  O  O639  1  0.83900961  0.18335554  0.79640496  1
  O  O640  1  0.83798512  0.51842044  0.04713681  1
  O  O641  1  0.83544663  0.51768672  0.29678256  1
  O  O642  1  0.83410857  0.51881436  0.54765381  1
  O  O643  1  0.83844922  0.51859578  0.79864272  1
  O  O644  1  0.83850785  0.85017436  0.04810184  1
  O  O645  1  0.83769368  0.85235247  0.29823583  1
  O  O646  1  0.83547021  0.85106432  0.54714858  1
  O  O647  1  0.83814759  0.85282185  0.79768737  1
  O  O648  1  0.16023107  0.14708239  0.20215120  1
  O  O649  1  0.16281856  0.14930249  0.45329639  1
  O  O650  1  0.16019595  0.14837525  0.70295029  1
  O  O651  1  0.16183012  0.14938238  0.95329118  1
  O  O652  1  0.16466740  0.48204778  0.20177729  1
  O  O653  1  0.16304520  0.48062691  0.45183414  1
  O  O654  1  0.16344007  0.48153953  0.70219175  1
  O  O655  1  0.16384374  0.48187155  0.95158945  1
  O  O656  1  0.16349899  0.81566771  0.20292961  1
  O  O657  1  0.16205017  0.81577519  0.45212436  1
  O  O658  1  0.16325429  0.81520673  0.70349148  1
  O  O659  1  0.16326877  0.81387745  0.95227600  1
  O  O660  1  0.66392561  0.14852505  0.20283891  1
  O  O661  1  0.66156804  0.14877514  0.45191339  1
  O  O662  1  0.66463945  0.14842425  0.70180015  1
  O  O663  1  0.66444296  0.14857147  0.95224083  1
  O  O664  1  0.66369608  0.48123464  0.20175090  1
  O  O665  1  0.66110695  0.48138628  0.45305115  1
  O  O666  1  0.66186401  0.48141030  0.70335331  1
  O  O667  1  0.66401074  0.48243944  0.95209005  1
  O  O668  1  0.66060791  0.81549829  0.20242922  1
  O  O669  1  0.66041110  0.81496809  0.45199924  1
  O  O670  1  0.66180799  0.81539756  0.70341942  1
  O  O671  1  0.66262833  0.81399120  0.95242063  1
