# generated using pymatgen
data_Na2MnFe(PO4)2
_symmetry_space_group_name_H-M   'P 1'
_cell_length_a   21.07967177
_cell_length_b   18.93242016
_cell_length_c   20.03905582
_cell_angle_alpha   90.00052985
_cell_angle_beta   90.00372581
_cell_angle_gamma   90.00108708
_symmetry_Int_Tables_number   1
_chemical_formula_structural   Na2MnFe(PO4)2
_chemical_formula_sum   'Na96 Mn48 Fe48 P96 O384'
_cell_volume   7997.37078870
_cell_formula_units_Z   48
loop_
 _symmetry_equiv_pos_site_id
 _symmetry_equiv_pos_as_xyz
  1  'x, y, z'
loop_
 _atom_site_type_symbol
 _atom_site_label
 _atom_site_symmetry_multiplicity
 _atom_site_fract_x
 _atom_site_fract_y
 _atom_site_fract_z
 _atom_site_occupancy
  Na  Na0  1  -0.00219156  -0.00065882  0.00004237  1
  Na  Na1  1  -0.00230659  -0.00018290  0.25031585  1
  Na  Na2  1  -0.00054809  0.00002539  0.49977236  1
  Na  Na3  1  -0.00061904  -0.00061544  0.74936662  1
  Na  Na4  1  -0.00083037  0.33386733  -0.00079892  1
  Na  Na5  1  -0.00212996  0.33361500  0.24969700  1
  Na  Na6  1  -0.00106898  0.33420040  0.50050927  1
  Na  Na7  1  -0.00042462  0.33381750  0.74990530  1
  Na  Na8  1  -0.00252595  0.66625969  0.00002881  1
  Na  Na9  1  -0.00130366  0.66611055  0.25043718  1
  Na  Na10  1  0.00114747  0.66716611  0.49983341  1
  Na  Na11  1  -0.00108298  0.66627458  0.74995100  1
  Na  Na12  1  0.50174447  0.00028597  -0.00087527  1
  Na  Na13  1  0.49966610  -0.00049458  0.24913399  1
  Na  Na14  1  0.49814284  -0.00011367  0.50069072  1
  Na  Na15  1  0.49906977  0.00025306  0.75064565  1
  Na  Na16  1  0.50293690  0.33332639  -0.00031900  1
  Na  Na17  1  0.50432998  0.33422997  0.25023465  1
  Na  Na18  1  0.50301389  0.33323329  0.50022046  1
  Na  Na19  1  0.50322588  0.33369570  0.75072285  1
  Na  Na20  1  0.50186577  0.66627709  -0.00068935  1
  Na  Na21  1  0.50084558  0.66642881  0.25043148  1
  Na  Na22  1  0.49938462  0.66569718  0.50134759  1
  Na  Na23  1  0.50019240  0.66578124  0.74958511  1
  Na  Na24  1  0.24886319  -0.00034536  0.12533687  1
  Na  Na25  1  0.25147929  0.00021161  0.37457760  1
  Na  Na26  1  0.24908174  -0.00035531  0.62421880  1
  Na  Na27  1  0.24855182  0.00049189  0.87559040  1
  Na  Na28  1  0.24669128  0.33336597  0.12505156  1
  Na  Na29  1  0.24878114  0.33410318  0.37521811  1
  Na  Na30  1  0.24710427  0.33288724  0.62515680  1
  Na  Na31  1  0.24602349  0.33290577  0.87532050  1
  Na  Na32  1  0.25022775  0.66587962  0.12418451  1
  Na  Na33  1  0.25242803  0.66664760  0.37495912  1
  Na  Na34  1  0.25049671  0.66649000  0.62603460  1
  Na  Na35  1  0.24984088  0.66646922  0.87517352  1
  Na  Na36  1  0.75204324  -0.00011041  0.12484644  1
  Na  Na37  1  0.75201790  0.00060245  0.37507668  1
  Na  Na38  1  0.75117781  -0.00009849  0.62482450  1
  Na  Na39  1  0.75272864  0.00023145  0.87512074  1
  Na  Na40  1  0.74999109  0.33287613  0.12510119  1
  Na  Na41  1  0.74854565  0.33252324  0.37479749  1
  Na  Na42  1  0.75084302  0.33374374  0.62434067  1
  Na  Na43  1  0.75156109  0.33362833  0.87542660  1
  Na  Na44  1  0.75048847  0.66667142  0.12490460  1
  Na  Na45  1  0.74853991  0.66575447  0.37381936  1
  Na  Na46  1  0.74924300  0.66559269  0.62492094  1
  Na  Na47  1  0.75174851  0.66688500  0.87609007  1
  Na  Na48  1  -0.00263390  0.16767258  0.00018437  1
  Na  Na49  1  -0.00387892  0.16762708  0.24963350  1
  Na  Na50  1  -0.00375587  0.16842777  0.49989282  1
  Na  Na51  1  -0.00127491  0.16747280  0.74989716  1
  Na  Na52  1  -0.00189212  0.49936594  -0.00019444  1
  Na  Na53  1  -0.00069140  0.49918798  0.25080232  1
  Na  Na54  1  0.00091426  0.49904500  0.49920421  1
  Na  Na55  1  -0.00098076  0.49961664  0.74919207  1
  Na  Na56  1  -0.00092398  0.83340073  -0.00058227  1
  Na  Na57  1  -0.00182491  0.83438884  0.25003698  1
  Na  Na58  1  0.00018794  0.83407162  0.50063117  1
  Na  Na59  1  0.00037424  0.83324790  0.75029766  1
  Na  Na60  1  0.50202628  0.16706838  -0.00078391  1
  Na  Na61  1  0.50155236  0.16725523  0.25008562  1
  Na  Na62  1  0.50003796  0.16709860  0.50098042  1
  Na  Na63  1  0.50035031  0.16733951  0.75002897  1
  Na  Na64  1  0.50216989  0.49954615  -0.00050344  1
  Na  Na65  1  0.50034520  0.50038129  0.25024189  1
  Na  Na66  1  0.50247597  0.49892649  0.50141186  1
  Na  Na67  1  0.50161148  0.50013806  0.75047069  1
  Na  Na68  1  0.50283542  0.83296021  -0.00039209  1
  Na  Na69  1  0.50185309  0.83321540  0.24904692  1
  Na  Na70  1  0.49813224  0.83404018  0.50025587  1
  Na  Na71  1  0.50031833  0.83318359  0.75003525  1
  Na  Na72  1  0.24878383  0.16730226  0.12533733  1
  Na  Na73  1  0.25176897  0.16633071  0.37493181  1
  Na  Na74  1  0.25164614  0.16615083  0.62482122  1
  Na  Na75  1  0.24836874  0.16754227  0.87566099  1
  Na  Na76  1  0.24861233  0.49961595  0.12444482  1
  Na  Na77  1  0.24848379  0.49985153  0.37514838  1
  Na  Na78  1  0.24732164  0.50012746  0.62503701  1
  Na  Na79  1  0.24924451  0.49885708  0.87573817  1
  Na  Na80  1  0.24868504  0.83356710  0.12473659  1
  Na  Na81  1  0.25194564  0.83274788  0.37481774  1
  Na  Na82  1  0.24860115  0.83367776  0.62527521  1
  Na  Na83  1  0.24586555  0.83454097  0.87478422  1
  Na  Na84  1  0.75239906  0.16666722  0.12478809  1
  Na  Na85  1  0.75145568  0.16692700  0.37454818  1
  Na  Na86  1  0.75024943  0.16793028  0.62465905  1
  Na  Na87  1  0.75146392  0.16742701  0.87446710  1
  Na  Na88  1  0.75110527  0.49952822  0.12533515  1
  Na  Na89  1  0.75039711  0.49869227  0.37444473  1
  Na  Na90  1  0.74873712  0.50036842  0.62518537  1
  Na  Na91  1  0.75184552  0.49936650  0.87597534  1
  Na  Na92  1  0.74920515  0.83446040  0.12481198  1
  Na  Na93  1  0.74911800  0.83395360  0.37446581  1
  Na  Na94  1  0.75217413  0.83269689  0.62447192  1
  Na  Na95  1  0.75258327  0.83245682  0.87610804  1
  Mn  Mn96  1  0.39202693  0.25093567  0.87728298  1
  Mn  Mn97  1  0.85819305  0.08310467  0.75246249  1
  Mn  Mn98  1  0.10673914  0.08427608  0.37302780  1
  Mn  Mn99  1  0.60919294  0.74991743  0.87245192  1
  Mn  Mn100  1  0.89277644  0.91663442  0.62702760  1
  Mn  Mn101  1  0.14118436  0.58301236  0.74832050  1
  Mn  Mn102  1  0.35781760  0.41643807  0.50242970  1
  Mn  Mn103  1  0.35919357  0.74963670  0.25125061  1
  Mn  Mn104  1  0.60968516  0.08340152  0.12223908  1
  Mn  Mn105  1  0.60692506  0.75020569  0.37344000  1
  Mn  Mn106  1  0.39112368  0.91673648  0.62783076  1
  Mn  Mn107  1  0.10662712  0.08349941  0.87257432  1
  Mn  Mn108  1  0.14075731  0.24971861  0.24817787  1
  Mn  Mn109  1  0.10847947  0.75005674  0.37242895  1
  Mn  Mn110  1  0.89203972  0.58361147  0.37796776  1
  Mn  Mn111  1  0.39284946  0.25072284  0.12654431  1
  Mn  Mn112  1  0.60947050  0.41687030  0.87286362  1
  Mn  Mn113  1  0.39340462  0.25050964  0.37706169  1
  Mn  Mn114  1  0.85774344  0.74921095  0.50203396  1
  Mn  Mn115  1  0.14060707  0.58343221  0.99736925  1
  Mn  Mn116  1  0.35704054  0.75036172  0.75320792  1
  Mn  Mn117  1  0.14149436  0.24950867  0.49713186  1
  Mn  Mn118  1  0.35729313  0.75041845  0.00173471  1
  Mn  Mn119  1  0.35704620  0.41598711  0.00213608  1
  Mn  Mn120  1  0.14193270  0.91655456  0.24820623  1
  Mn  Mn121  1  0.89174486  0.58322042  0.62664711  1
  Mn  Mn122  1  0.35812783  0.41627701  0.25171063  1
  Mn  Mn123  1  0.64220838  0.58331709  0.24732484  1
  Mn  Mn124  1  0.35850956  0.08372516  0.25160312  1
  Mn  Mn125  1  0.64349255  0.91646926  0.74763243  1
  Mn  Mn126  1  0.35714609  0.08368192  0.00219246  1
  Mn  Mn127  1  0.14214610  0.58362508  0.24770563  1
  Mn  Mn128  1  0.39300667  0.91657701  0.12599009  1
  Mn  Mn129  1  0.39266747  0.58213602  0.62747922  1
  Mn  Mn130  1  0.39154966  0.91598069  0.87782219  1
  Mn  Mn131  1  0.60823725  0.08310467  0.37306346  1
  Mn  Mn132  1  0.39278536  0.25092668  0.62744399  1
  Mn  Mn133  1  0.10588343  0.08378654  0.12311406  1
  Mn  Mn134  1  0.10775259  0.08441213  0.62214303  1
  Mn  Mn135  1  0.10671917  0.74958510  0.12268806  1
  Mn  Mn136  1  0.60900134  0.08313265  0.87255530  1
  Mn  Mn137  1  0.10794643  0.74911483  0.62242716  1
  Mn  Mn138  1  0.60782933  0.08334192  0.62279724  1
  Mn  Mn139  1  0.35726855  0.41577320  0.75214576  1
  Mn  Mn140  1  0.64223772  0.91705302  0.49743041  1
  Mn  Mn141  1  0.85713003  0.75023023  0.25261163  1
  Mn  Mn142  1  0.39335838  0.58284035  0.12625301  1
  Mn  Mn143  1  0.60849114  0.75014937  0.62294967  1
  Fe  Fe144  1  0.89199954  0.25055080  0.12681887  1
  Fe  Fe145  1  0.14298245  0.58389193  0.49795938  1
  Fe  Fe146  1  0.14066438  0.91708082  0.99859515  1
  Fe  Fe147  1  0.64441362  0.58339163  0.99821481  1
  Fe  Fe148  1  0.35724467  0.74991631  0.50163948  1
  Fe  Fe149  1  0.60920953  0.41645008  0.62351290  1
  Fe  Fe150  1  0.14184095  0.91763727  0.74854314  1
  Fe  Fe151  1  0.64409793  0.24917379  0.24798421  1
  Fe  Fe152  1  0.89203413  0.91670721  0.37731032  1
  Fe  Fe153  1  0.85754243  0.75007711  0.00238234  1
  Fe  Fe154  1  0.89202449  0.58319785  0.12693783  1
  Fe  Fe155  1  0.89141303  0.25040400  0.37711438  1
  Fe  Fe156  1  0.39269953  0.91631663  0.37629078  1
  Fe  Fe157  1  0.10564884  0.74917624  0.87386396  1
  Fe  Fe158  1  0.10608752  0.41618570  0.37334777  1
  Fe  Fe159  1  0.85755789  0.41665205  0.00233740  1
  Fe  Fe160  1  0.64415185  0.25033471  0.74838428  1
  Fe  Fe161  1  0.85653098  0.41662512  0.50160027  1
  Fe  Fe162  1  0.89250632  0.25017346  0.87675832  1
  Fe  Fe163  1  0.35750673  0.08317926  0.50147248  1
  Fe  Fe164  1  0.85679390  0.41621439  0.25206149  1
  Fe  Fe165  1  0.39303361  0.58283682  0.37736335  1
  Fe  Fe166  1  0.10538827  0.41671597  0.12370959  1
  Fe  Fe167  1  0.64378289  0.58318159  0.74921528  1
  Fe  Fe168  1  0.60809316  0.41703693  0.37341457  1
  Fe  Fe169  1  0.89222800  0.25060403  0.62698570  1
  Fe  Fe170  1  0.64396231  0.24991729  0.49833414  1
  Fe  Fe171  1  0.85732727  0.08378177  0.50183177  1
  Fe  Fe172  1  0.85735903  0.41742719  0.75122078  1
  Fe  Fe173  1  0.64283733  0.91751056  0.24828117  1
  Fe  Fe174  1  0.10612863  0.41664061  0.62328317  1
  Fe  Fe175  1  0.85815902  0.74919793  0.75183714  1
  Fe  Fe176  1  0.60896747  0.41722665  0.12284212  1
  Fe  Fe177  1  0.14136661  0.24933075  0.74823336  1
  Fe  Fe178  1  0.89193760  0.91626860  0.12719443  1
  Fe  Fe179  1  0.64463525  0.91705173  0.99775439  1
  Fe  Fe180  1  0.39325612  0.58296734  0.87678809  1
  Fe  Fe181  1  0.60859006  0.74957330  0.12252071  1
  Fe  Fe182  1  0.89307969  0.91638200  0.87700866  1
  Fe  Fe183  1  0.89179641  0.58332205  0.87663763  1
  Fe  Fe184  1  0.85714769  0.08338356  0.25217435  1
  Fe  Fe185  1  0.10529376  0.41720668  0.87330904  1
  Fe  Fe186  1  0.14046891  0.24940318  0.99842957  1
  Fe  Fe187  1  0.64476387  0.24961197  0.99833078  1
  Fe  Fe188  1  0.85781334  0.08326912  0.00170053  1
  Fe  Fe189  1  0.14342983  0.91636802  0.49754208  1
  Fe  Fe190  1  0.35643901  0.08384638  0.75192315  1
  Fe  Fe191  1  0.64250706  0.58299800  0.49800338  1
  P  P192  1  0.05109588  0.25088186  0.10985835  1
  P  P193  1  0.05054410  0.25073529  0.36014708  1
  P  P194  1  0.05257448  0.25089519  0.61085089  1
  P  P195  1  0.05273371  0.25074687  0.86063326  1
  P  P196  1  0.05100364  0.58246099  0.11024790  1
  P  P197  1  0.05431379  0.58262474  0.36110331  1
  P  P198  1  0.05352112  0.58230060  0.60908004  1
  P  P199  1  0.05069633  0.58313009  0.86026275  1
  P  P200  1  0.05144560  0.91683346  0.10983616  1
  P  P201  1  0.05289060  0.91718573  0.36114874  1
  P  P202  1  0.05567661  0.91702556  0.61011751  1
  P  P203  1  0.05320389  0.91603236  0.86078612  1
  P  P204  1  0.55668090  0.25071774  0.11017557  1
  P  P205  1  0.55657414  0.25045304  0.36078420  1
  P  P206  1  0.55635545  0.25079258  0.61083554  1
  P  P207  1  0.55642774  0.24997066  0.86041318  1
  P  P208  1  0.55527338  0.58311457  0.10901641  1
  P  P209  1  0.55373480  0.58265530  0.36157716  1
  P  P210  1  0.55644323  0.58243679  0.61118287  1
  P  P211  1  0.55524006  0.58331348  0.86042765  1
  P  P212  1  0.55644221  0.91630199  0.10971683  1
  P  P213  1  0.55255553  0.91699238  0.35939887  1
  P  P214  1  0.55304966  0.91682745  0.61002811  1
  P  P215  1  0.55501412  0.91663649  0.86062105  1
  P  P216  1  0.44791594  0.08383469  0.13937424  1
  P  P217  1  0.44657570  0.08286723  0.39058476  1
  P  P218  1  0.44459594  0.08383845  0.64018706  1
  P  P219  1  0.44562185  0.08387613  0.88913217  1
  P  P220  1  0.44917593  0.41635114  0.13968027  1
  P  P221  1  0.44861030  0.41710090  0.39031490  1
  P  P222  1  0.44908337  0.41624618  0.64065962  1
  P  P223  1  0.44719280  0.41731536  0.89005431  1
  P  P224  1  0.44911456  0.74980972  0.13902432  1
  P  P225  1  0.44586923  0.74973716  0.39068109  1
  P  P226  1  0.44535926  0.74958859  0.63951883  1
  P  P227  1  0.44709875  0.74886986  0.89002406  1
  P  P228  1  0.94348731  0.08328907  0.13934232  1
  P  P229  1  0.94386186  0.08356583  0.38945508  1
  P  P230  1  0.94541527  0.08436541  0.63874349  1
  P  P231  1  0.94566209  0.08341905  0.89034164  1
  P  P232  1  0.94467960  0.41681035  0.13938449  1
  P  P233  1  0.94487265  0.41601133  0.38964013  1
  P  P234  1  0.94507584  0.41636240  0.63906864  1
  P  P235  1  0.94462462  0.41680462  0.88881570  1
  P  P236  1  0.94468200  0.74995021  0.13906046  1
  P  P237  1  0.94681127  0.75091869  0.39032136  1
  P  P238  1  0.94629082  0.74976733  0.64072474  1
  P  P239  1  0.94519528  0.74972540  0.88927118  1
  P  P240  1  0.19614326  0.08340122  0.23495560  1
  P  P241  1  0.19773572  0.08281106  0.48456554  1
  P  P242  1  0.19662726  0.08386289  0.73508171  1
  P  P243  1  0.19492542  0.08359618  0.98545677  1
  P  P244  1  0.19408137  0.41658070  0.23523574  1
  P  P245  1  0.19410311  0.41736351  0.48566684  1
  P  P246  1  0.19344335  0.41578653  0.73579024  1
  P  P247  1  0.19277470  0.41579917  0.98568740  1
  P  P248  1  0.19730234  0.74969914  0.23435087  1
  P  P249  1  0.19782555  0.74966372  0.48504830  1
  P  P250  1  0.19438254  0.75030012  0.73664429  1
  P  P251  1  0.19474883  0.75046801  0.98424061  1
  P  P252  1  0.69853480  0.08338048  0.23522468  1
  P  P253  1  0.69833000  0.08430213  0.48508323  1
  P  P254  1  0.69765844  0.08407750  0.73477087  1
  P  P255  1  0.69913292  0.08343983  0.98494261  1
  P  P256  1  0.69625978  0.41585459  0.23571771  1
  P  P257  1  0.69616639  0.41634626  0.48564391  1
  P  P258  1  0.69812018  0.41669815  0.73501888  1
  P  P259  1  0.69770414  0.41670977  0.98662078  1
  P  P260  1  0.69565480  0.75093203  0.23448051  1
  P  P261  1  0.69680910  0.74918468  0.48460156  1
  P  P262  1  0.69905416  0.74925091  0.73526162  1
  P  P263  1  0.69746314  0.74990522  0.98651585  1
  P  P264  1  0.30088814  0.25044161  0.01525588  1
  P  P265  1  0.30305342  0.25069112  0.26510544  1
  P  P266  1  0.30342435  0.24999823  0.51497939  1
  P  P267  1  0.30139195  0.24976676  0.76508065  1
  P  P268  1  0.30368315  0.58286318  0.01378764  1
  P  P269  1  0.30459454  0.58249017  0.26541913  1
  P  P270  1  0.30362441  0.58331650  0.51426671  1
  P  P271  1  0.30349994  0.58232235  0.76604795  1
  P  P272  1  0.30092680  0.91666610  0.01496451  1
  P  P273  1  0.30444845  0.91650421  0.26512462  1
  P  P274  1  0.30379518  0.91638144  0.51358020  1
  P  P275  1  0.30138643  0.91783692  0.76531671  1
  P  P276  1  0.80503649  0.25022511  0.01406231  1
  P  P277  1  0.80448170  0.25040383  0.26404137  1
  P  P278  1  0.80452705  0.25048014  0.51406773  1
  P  P279  1  0.80466040  0.25135294  0.76414785  1
  P  P280  1  0.80482364  0.58326127  0.01448830  1
  P  P281  1  0.80438621  0.58239508  0.26387433  1
  P  P282  1  0.80164278  0.58204646  0.51465339  1
  P  P283  1  0.80313525  0.58299393  0.76545239  1
  P  P284  1  0.80503989  0.91653832  0.01416674  1
  P  P285  1  0.80378837  0.91723153  0.26443995  1
  P  P286  1  0.80463036  0.91726025  0.51384220  1
  P  P287  1  0.80482254  0.91543883  0.76577440  1
  O  O288  1  0.05456708  0.25002836  0.18656600  1
  O  O289  1  0.05468368  0.25005461  0.43684505  1
  O  O290  1  0.05726510  0.24963109  0.68754552  1
  O  O291  1  0.05688463  0.24968609  0.93734094  1
  O  O292  1  0.05486937  0.58304222  0.18694259  1
  O  O293  1  0.05875508  0.58379250  0.43781751  1
  O  O294  1  0.05597430  0.58328026  0.68591706  1
  O  O295  1  0.05397556  0.58314470  0.93691958  1
  O  O296  1  0.05547973  0.91699316  0.18656398  1
  O  O297  1  0.05878624  0.91693178  0.43780709  1
  O  O298  1  0.05957610  0.91729921  0.68701092  1
  O  O299  1  0.05741058  0.91705815  0.93752049  1
  O  O300  1  0.56085427  0.24953038  0.18701908  1
  O  O301  1  0.56048084  0.24923104  0.43759527  1
  O  O302  1  0.56067859  0.25009448  0.68762979  1
  O  O303  1  0.56162537  0.24976323  0.93717877  1
  O  O304  1  0.55728639  0.58313688  0.18592131  1
  O  O305  1  0.55845432  0.58294054  0.43827583  1
  O  O306  1  0.56091625  0.58327352  0.68797736  1
  O  O307  1  0.56078744  0.58324523  0.93708053  1
  O  O308  1  0.56021666  0.91754259  0.18657202  1
  O  O309  1  0.55629137  0.91736182  0.43615452  1
  O  O310  1  0.55701411  0.91690965  0.68679987  1
  O  O311  1  0.56074823  0.91688293  0.93735356  1
  O  O312  1  0.44419101  0.08396777  0.06257316  1
  O  O313  1  0.44409066  0.08373031  0.31373697  1
  O  O314  1  0.44009119  0.08368165  0.56337356  1
  O  O315  1  0.44049387  0.08408274  0.81237143  1
  O  O316  1  0.44449708  0.41577667  0.06302749  1
  O  O317  1  0.44479773  0.41659255  0.31363233  1
  O  O318  1  0.44450467  0.41590793  0.56399405  1
  O  O319  1  0.44368328  0.41634732  0.81333472  1
  O  O320  1  0.44472534  0.75007327  0.06236783  1
  O  O321  1  0.44422007  0.74973614  0.31380572  1
  O  O322  1  0.44063968  0.74980868  0.56275011  1
  O  O323  1  0.44351408  0.74983277  0.81321233  1
  O  O324  1  0.94022330  0.08326453  0.06245782  1
  O  O325  1  0.94018366  0.08337362  0.31254272  1
  O  O326  1  0.94136051  0.08384109  0.56197269  1
  O  O327  1  0.94350624  0.08338864  0.81348668  1
  O  O328  1  0.94063877  0.41659433  0.06255256  1
  O  O329  1  0.94032744  0.41650807  0.31290079  1
  O  O330  1  0.94042641  0.41715977  0.56238616  1
  O  O331  1  0.94067349  0.41693154  0.81206105  1
  O  O332  1  0.94110087  0.75013195  0.06220162  1
  O  O333  1  0.94317552  0.75022026  0.31353172  1
  O  O334  1  0.94300929  0.74975125  0.56394142  1
  O  O335  1  0.94142128  0.74961478  0.81249974  1
  O  O336  1  0.19181099  0.08354482  0.06220699  1
  O  O337  1  0.19281150  0.08364768  0.31172386  1
  O  O338  1  0.19380058  0.08383560  0.56127121  1
  O  O339  1  0.19271664  0.08414169  0.81178855  1
  O  O340  1  0.18832511  0.41693341  0.06248158  1
  O  O341  1  0.18963773  0.41630144  0.31202016  1
  O  O342  1  0.18981086  0.41635742  0.56245986  1
  O  O343  1  0.18893255  0.41687464  0.81258414  1
  O  O344  1  0.19203495  0.74921581  0.06108776  1
  O  O345  1  0.19420754  0.74953818  0.31115574  1
  O  O346  1  0.19423953  0.74945172  0.56179930  1
  O  O347  1  0.18945259  0.74919297  0.81334077  1
  O  O348  1  0.69591558  0.08335671  0.06164097  1
  O  O349  1  0.69490449  0.08327121  0.31186509  1
  O  O350  1  0.69450832  0.08353008  0.56175162  1
  O  O351  1  0.69505939  0.08345868  0.81156972  1
  O  O352  1  0.69353197  0.41689035  0.06327540  1
  O  O353  1  0.69179567  0.41693733  0.31244018  1
  O  O354  1  0.69255948  0.41658685  0.56239505  1
  O  O355  1  0.69525788  0.41659089  0.81183030  1
  O  O356  1  0.69297402  0.74982521  0.06316989  1
  O  O357  1  0.69233062  0.75006173  0.31126496  1
  O  O358  1  0.69435084  0.74987836  0.56141620  1
  O  O359  1  0.69569787  0.74996281  0.81201727  1
  O  O360  1  0.30644878  0.25125044  0.18833138  1
  O  O361  1  0.30713973  0.25118088  0.43824130  1
  O  O362  1  0.30584694  0.25091664  0.68842292  1
  O  O363  1  0.30534038  0.25101249  0.93858048  1
  O  O364  1  0.30783485  0.58213428  0.18856408  1
  O  O365  1  0.30875738  0.58209492  0.43758288  1
  O  O366  1  0.30678116  0.58215590  0.68918079  1
  O  O367  1  0.30852332  0.58256445  0.93710994  1
  O  O368  1  0.30751447  0.91645248  0.18831304  1
  O  O369  1  0.30859028  0.91645062  0.43692084  1
  O  O370  1  0.30503578  0.91682769  0.68856727  1
  O  O371  1  0.30494705  0.91647114  0.93825356  1
  O  O372  1  0.80864313  0.25085583  0.18728337  1
  O  O373  1  0.80825235  0.25066714  0.43724696  1
  O  O374  1  0.80868444  0.25070170  0.68738648  1
  O  O375  1  0.80912780  0.25049083  0.93728681  1
  O  O376  1  0.80828453  0.58305794  0.18711101  1
  O  O377  1  0.80543910  0.58263102  0.43794717  1
  O  O378  1  0.80616922  0.58297778  0.68874430  1
  O  O379  1  0.80893974  0.58323136  0.93770447  1
  O  O380  1  0.80815680  0.91630702  0.18768448  1
  O  O381  1  0.80823145  0.91646165  0.43701278  1
  O  O382  1  0.80741344  0.91637909  0.68894680  1
  O  O383  1  0.80960130  0.91623604  0.93745882  1
  O  O384  1  0.23061408  0.25019953  0.03917499  1
  O  O385  1  0.23331270  0.25013793  0.29021117  1
  O  O386  1  0.23348565  0.24990494  0.53955356  1
  O  O387  1  0.23115199  0.25002010  0.78919658  1
  O  O388  1  0.23346598  0.58293404  0.03751150  1
  O  O389  1  0.23474382  0.58304115  0.29012640  1
  O  O390  1  0.23325309  0.58321479  0.53799414  1
  O  O391  1  0.23351372  0.58244693  0.79052790  1
  O  O392  1  0.23077022  0.91661759  0.03926864  1
  O  O393  1  0.23467973  0.91659614  0.29019604  1
  O  O394  1  0.23343747  0.91638086  0.53755368  1
  O  O395  1  0.23121725  0.91775782  0.78970740  1
  O  O396  1  0.73473611  0.25006266  0.03815312  1
  O  O397  1  0.73414542  0.24997180  0.28792922  1
  O  O398  1  0.73426484  0.25076559  0.53814446  1
  O  O399  1  0.73441032  0.25070152  0.78827074  1
  O  O400  1  0.73450570  0.58322787  0.03849132  1
  O  O401  1  0.73438219  0.58254131  0.28815425  1
  O  O402  1  0.73172734  0.58243961  0.53935614  1
  O  O403  1  0.73318825  0.58285506  0.79067094  1
  O  O404  1  0.73460244  0.91672309  0.03782076  1
  O  O405  1  0.73338300  0.91698252  0.28819503  1
  O  O406  1  0.73482407  0.91668874  0.53866765  1
  O  O407  1  0.73527437  0.91640318  0.79133572  1
  O  O408  1  0.26581423  0.08345088  0.20981998  1
  O  O409  1  0.26786562  0.08318524  0.46028248  1
  O  O410  1  0.26658908  0.08349499  0.71027289  1
  O  O411  1  0.26453672  0.08389081  0.96002394  1
  O  O412  1  0.26418208  0.41655172  0.21120527  1
  O  O413  1  0.26428374  0.41665700  0.46176931  1
  O  O414  1  0.26356455  0.41640423  0.71170109  1
  O  O415  1  0.26296218  0.41604170  0.96185963  1
  O  O416  1  0.26689875  0.74967690  0.20903722  1
  O  O417  1  0.26782918  0.74976620  0.46032141  1
  O  O418  1  0.26448712  0.74991032  0.71268484  1
  O  O419  1  0.26441036  0.75047684  0.95891095  1
  O  O420  1  0.76858419  0.08362599  0.21047371  1
  O  O421  1  0.76831261  0.08420236  0.46040064  1
  O  O422  1  0.76727559  0.08387980  0.70939200  1
  O  O423  1  0.76917670  0.08362150  0.96010843  1
  O  O424  1  0.76666459  0.41604164  0.21204389  1
  O  O425  1  0.76640021  0.41572357  0.46122621  1
  O  O426  1  0.76808391  0.41699558  0.70998143  1
  O  O427  1  0.76801586  0.41658008  0.96252858  1
  O  O428  1  0.76549746  0.75044522  0.20979483  1
  O  O429  1  0.76622789  0.74946081  0.45861602  1
  O  O430  1  0.76896465  0.74909211  0.71023018  1
  O  O431  1  0.76791004  0.74988677  0.96286126  1
  O  O432  1  0.01332617  0.08361953  0.16427265  1
  O  O433  1  0.01377714  0.08402476  0.41416438  1
  O  O434  1  0.01525078  0.08370406  0.66341913  1
  O  O435  1  0.01515247  0.08363120  0.91606841  1
  O  O436  1  0.01497327  0.41652950  0.16344855  1
  O  O437  1  0.01524969  0.41651339  0.41324350  1
  O  O438  1  0.01540677  0.41667264  0.66279577  1
  O  O439  1  0.01491673  0.41672359  0.91291401  1
  O  O440  1  0.01442843  0.75007938  0.16415756  1
  O  O441  1  0.01652600  0.75081812  0.41524010  1
  O  O442  1  0.01608779  0.74962563  0.66535460  1
  O  O443  1  0.01543288  0.74970332  0.91362765  1
  O  O444  1  0.51772555  0.08349861  0.16416290  1
  O  O445  1  0.51623680  0.08346917  0.41612508  1
  O  O446  1  0.51485268  0.08388838  0.66376133  1
  O  O447  1  0.51591301  0.08379822  0.91257980  1
  O  O448  1  0.51940561  0.41727432  0.16365400  1
  O  O449  1  0.51873898  0.41642610  0.41483704  1
  O  O450  1  0.51930806  0.41671233  0.66463506  1
  O  O451  1  0.51718517  0.41671006  0.91451206  1
  O  O452  1  0.51919190  0.74951726  0.16344017  1
  O  O453  1  0.51533384  0.74967096  0.41683428  1
  O  O454  1  0.51551855  0.74943453  0.66336115  1
  O  O455  1  0.51698032  0.74932580  0.91457161  1
  O  O456  1  0.48667354  0.25018518  0.08575967  1
  O  O457  1  0.48654490  0.25037350  0.33645009  1
  O  O458  1  0.48621988  0.25028824  0.58687338  1
  O  O459  1  0.48611896  0.25057621  0.83715822  1
  O  O460  1  0.48574443  0.58280048  0.08329603  1
  O  O461  1  0.48351073  0.58339107  0.33756644  1
  O  O462  1  0.48622819  0.58248917  0.58745540  1
  O  O463  1  0.48485840  0.58303335  0.83708458  1
  O  O464  1  0.48644288  0.91686365  0.08515599  1
  O  O465  1  0.48249399  0.91634924  0.33494370  1
  O  O466  1  0.48315314  0.91693145  0.58573861  1
  O  O467  1  0.48471523  0.91643033  0.83744820  1
  O  O468  1  0.98086506  0.25081186  0.08553468  1
  O  O469  1  0.98040872  0.25054977  0.33583649  1
  O  O470  1  0.98225769  0.25135510  0.58703600  1
  O  O471  1  0.98228987  0.25043376  0.83688661  1
  O  O472  1  0.98095834  0.58261554  0.08560630  1
  O  O473  1  0.98423471  0.58257413  0.33706104  1
  O  O474  1  0.98384679  0.58295852  0.58373364  1
  O  O475  1  0.98070514  0.58300804  0.83524536  1
  O  O476  1  0.98120133  0.91660847  0.08581288  1
  O  O477  1  0.98234501  0.91721156  0.33809984  1
  O  O478  1  0.98550236  0.91685857  0.58643034  1
  O  O479  1  0.98277901  0.91641457  0.83698897  1
  O  O480  1  0.08489656  0.31589570  0.07728026  1
  O  O481  1  0.08421901  0.31586343  0.32757784  1
  O  O482  1  0.08610781  0.31600054  0.57808020  1
  O  O483  1  0.08595812  0.31593925  0.82771221  1
  O  O484  1  0.08471645  0.64748929  0.07721953  1
  O  O485  1  0.08765113  0.64757967  0.32744004  1
  O  O486  1  0.08833947  0.64700888  0.57646661  1
  O  O487  1  0.08459960  0.64818833  0.82767491  1
  O  O488  1  0.08498973  0.98191159  0.07676912  1
  O  O489  1  0.08564148  0.98241200  0.32759671  1
  O  O490  1  0.08912998  0.98197150  0.57677264  1
  O  O491  1  0.08663210  0.98096575  0.82701946  1
  O  O492  1  0.59027196  0.31614365  0.07774711  1
  O  O493  1  0.59036837  0.31571623  0.32840005  1
  O  O494  1  0.58984141  0.31609237  0.57810074  1
  O  O495  1  0.59033020  0.31495479  0.82735163  1
  O  O496  1  0.58967093  0.64821235  0.07684722  1
  O  O497  1  0.58750643  0.64749090  0.32821522  1
  O  O498  1  0.58989948  0.64731429  0.57748630  1
  O  O499  1  0.58857662  0.64823760  0.82677557  1
  O  O500  1  0.59066105  0.98101913  0.07636791  1
  O  O501  1  0.58633924  0.98209371  0.32643242  1
  O  O502  1  0.58688783  0.98189202  0.57717303  1
  O  O503  1  0.58813776  0.98171878  0.82716123  1
  O  O504  1  0.41372449  0.01869035  0.17153122  1
  O  O505  1  0.41258133  0.01738770  0.42245777  1
  O  O506  1  0.41091520  0.01891577  0.67348416  1
  O  O507  1  0.41231891  0.01869105  0.92232552  1
  O  O508  1  0.41613068  0.35120717  0.17320536  1
  O  O509  1  0.41467576  0.35216038  0.42331812  1
  O  O510  1  0.41560945  0.35120365  0.67392434  1
  O  O511  1  0.41309325  0.35247528  0.92312945  1
  O  O512  1  0.41529829  0.68474082  0.17179628  1
  O  O513  1  0.41129845  0.68472310  0.42284811  1
  O  O514  1  0.41186326  0.68447043  0.67244811  1
  O  O515  1  0.41337630  0.68341870  0.92208047  1
  O  O516  1  0.90984745  0.01810691  0.17216690  1
  O  O517  1  0.91024682  0.01845865  0.42240740  1
  O  O518  1  0.91153713  0.01946467  0.67180531  1
  O  O519  1  0.91138240  0.01830516  0.92253529  1
  O  O520  1  0.91104831  0.35179502  0.17255999  1
  O  O521  1  0.91161642  0.35091711  0.42288140  1
  O  O522  1  0.91168410  0.35141723  0.67243865  1
  O  O523  1  0.91126930  0.35168955  0.92213215  1
  O  O524  1  0.91098503  0.68468070  0.17158894  1
  O  O525  1  0.91296762  0.68564075  0.42296718  1
  O  O526  1  0.91200707  0.68470512  0.67312230  1
  O  O527  1  0.91145686  0.68473291  0.92232653  1
  O  O528  1  0.16193822  0.01831503  0.20267557  1
  O  O529  1  0.16406511  0.01763120  0.45209357  1
  O  O530  1  0.16254414  0.01883822  0.70261192  1
  O  O531  1  0.16093215  0.01837985  0.95300381  1
  O  O532  1  0.15999218  0.35171969  0.20218298  1
  O  O533  1  0.15993509  0.35271418  0.45203856  1
  O  O534  1  0.15999692  0.35041757  0.70306899  1
  O  O535  1  0.15914380  0.35054145  0.95306310  1
  O  O536  1  0.16303577  0.68468502  0.20190841  1
  O  O537  1  0.16406359  0.68456058  0.45228166  1
  O  O538  1  0.16104343  0.68525041  0.70304585  1
  O  O539  1  0.16028476  0.68556424  0.95143036  1
  O  O540  1  0.66492756  0.01828967  0.20237227  1
  O  O541  1  0.66450202  0.01933723  0.45197781  1
  O  O542  1  0.66346586  0.01907034  0.70228186  1
  O  O543  1  0.66537140  0.01834680  0.95223340  1
  O  O544  1  0.66303891  0.35066709  0.20280212  1
  O  O545  1  0.66235971  0.35132226  0.45277595  1
  O  O546  1  0.66425144  0.35165331  0.70226476  1
  O  O547  1  0.66439005  0.35166629  0.95337291  1
  O  O548  1  0.66152357  0.68592094  0.20165810  1
  O  O549  1  0.66261767  0.68386379  0.45276958  1
  O  O550  1  0.66486003  0.68414139  0.70325270  1
  O  O551  1  0.66443990  0.68471737  0.95312918  1
  O  O552  1  0.33451110  0.31542262  0.04855025  1
  O  O553  1  0.33687561  0.31575362  0.29800081  1
  O  O554  1  0.33713151  0.31499421  0.54834660  1
  O  O555  1  0.33502934  0.31471275  0.79849211  1
  O  O556  1  0.33711729  0.64808256  0.04681153  1
  O  O557  1  0.33916928  0.64746863  0.29758242  1
  O  O558  1  0.33691180  0.64859782  0.54710388  1
  O  O559  1  0.33773402  0.64733726  0.79849255  1
  O  O560  1  0.33486175  0.98173291  0.04753927  1
  O  O561  1  0.33883327  0.98143635  0.29760709  1
  O  O562  1  0.33693923  0.98163739  0.54685936  1
  O  O563  1  0.33520934  0.98298647  0.79760315  1
  O  O564  1  0.83826480  0.31527711  0.04759019  1
  O  O565  1  0.83750407  0.31549115  0.29772576  1
  O  O566  1  0.83810985  0.31547933  0.54729821  1
  O  O567  1  0.83782260  0.31659868  0.79714099  1
  O  O568  1  0.83833434  0.64828667  0.04762613  1
  O  O569  1  0.83789422  0.64738982  0.29714407  1
  O  O570  1  0.83572600  0.64691813  0.54751189  1
  O  O571  1  0.83725271  0.64794444  0.79816114  1
  O  O572  1  0.83828023  0.98170204  0.04728260  1
  O  O573  1  0.83722488  0.98244081  0.29721097  1
  O  O574  1  0.83811075  0.98268312  0.54633182  1
  O  O575  1  0.83981236  0.98012715  0.79822887  1
  O  O576  1  0.41418716  0.14896954  0.17210530  1
  O  O577  1  0.41193329  0.14764444  0.42322328  1
  O  O578  1  0.41109692  0.14893300  0.67337305  1
  O  O579  1  0.41247411  0.14906831  0.92248725  1
  O  O580  1  0.41503665  0.48131034  0.17225623  1
  O  O581  1  0.41510747  0.48229120  0.42321983  1
  O  O582  1  0.41502608  0.48113421  0.67334473  1
  O  O583  1  0.41366062  0.48274251  0.92238196  1
  O  O584  1  0.41553393  0.81494361  0.17190228  1
  O  O585  1  0.41144844  0.81497630  0.42259038  1
  O  O586  1  0.41195169  0.81469168  0.67281807  1
  O  O587  1  0.41297323  0.81379776  0.92291290  1
  O  O588  1  0.90946166  0.14841401  0.17188263  1
  O  O589  1  0.90980357  0.14869128  0.42198672  1
  O  O590  1  0.91198893  0.14970576  0.67141143  1
  O  O591  1  0.91108295  0.14848618  0.92232392  1
  O  O592  1  0.91131684  0.48186567  0.17258105  1
  O  O593  1  0.91124408  0.48082321  0.42331133  1
  O  O594  1  0.91157971  0.48128771  0.67267091  1
  O  O595  1  0.91115224  0.48176550  0.92220054  1
  O  O596  1  0.91087551  0.81511772  0.17175348  1
  O  O597  1  0.91265128  0.81591518  0.42255415  1
  O  O598  1  0.91228232  0.81471021  0.67341821  1
  O  O599  1  0.91180530  0.81484533  0.92253214  1
  O  O600  1  0.08479838  0.18589391  0.07668588  1
  O  O601  1  0.08409966  0.18568848  0.32702954  1
  O  O602  1  0.08549724  0.18591370  0.57681739  1
  O  O603  1  0.08627169  0.18592540  0.82681925  1
  O  O604  1  0.08463684  0.51738379  0.07755774  1
  O  O605  1  0.08755541  0.51715688  0.32853565  1
  O  O606  1  0.08747014  0.51697368  0.57724529  1
  O  O607  1  0.08458664  0.51809594  0.82759051  1
  O  O608  1  0.08535818  0.85194410  0.07690027  1
  O  O609  1  0.08597675  0.85218901  0.32739212  1
  O  O610  1  0.08933528  0.85191438  0.57719696  1
  O  O611  1  0.08646832  0.85081735  0.82798486  1
  O  O612  1  0.59083665  0.18602832  0.07667425  1
  O  O613  1  0.59034643  0.18563109  0.32713640  1
  O  O614  1  0.59015399  0.18602270  0.57719296  1
  O  O615  1  0.58971236  0.18509082  0.82674849  1
  O  O616  1  0.59006193  0.51814456  0.07701100  1
  O  O617  1  0.58700834  0.51749750  0.32830668  1
  O  O618  1  0.58996776  0.51720131  0.57831885  1
  O  O619  1  0.58891341  0.51835726  0.82709613  1
  O  O620  1  0.58996909  0.85085398  0.07733604  1
  O  O621  1  0.58700530  0.85214344  0.32696695  1
  O  O622  1  0.58684095  0.85170029  0.57739980  1
  O  O623  1  0.58829536  0.85145940  0.82736993  1
  O  O624  1  0.33483574  0.18537060  0.04780989  1
  O  O625  1  0.33764997  0.18566897  0.29704300  1
  O  O626  1  0.33744861  0.18471220  0.54691351  1
  O  O627  1  0.33498262  0.18450881  0.79762695  1
  O  O628  1  0.33696023  0.51783420  0.04734156  1
  O  O629  1  0.33837245  0.51740885  0.29839782  1
  O  O630  1  0.33679243  0.51829438  0.54815403  1
  O  O631  1  0.33755679  0.51730553  0.79861471  1
  O  O632  1  0.33494157  0.85164218  0.04767387  1
  O  O633  1  0.33868405  0.85143840  0.29753243  1
  O  O634  1  0.33687837  0.85120539  0.54707666  1
  O  O635  1  0.33505142  0.85276722  0.79838129  1
  O  O636  1  0.83852994  0.18518294  0.04706045  1
  O  O637  1  0.83809715  0.18538402  0.29702810  1
  O  O638  1  0.83801145  0.18540692  0.54716596  1
  O  O639  1  0.83861849  0.18660844  0.79753487  1
  O  O640  1  0.83825172  0.51815888  0.04762878  1
  O  O641  1  0.83783863  0.51717135  0.29656958  1
  O  O642  1  0.83525405  0.51684661  0.54726636  1
  O  O643  1  0.83719978  0.51789940  0.79800356  1
  O  O644  1  0.83813992  0.85151601  0.04786601  1
  O  O645  1  0.83737203  0.85245859  0.29811946  1
  O  O646  1  0.83879345  0.85247611  0.54682461  1
  O  O647  1  0.83862573  0.85002812  0.79778611  1
  O  O648  1  0.16177677  0.14841132  0.20258167  1
  O  O649  1  0.16371991  0.14781533  0.45163660  1
  O  O650  1  0.16292481  0.14908283  0.70216242  1
  O  O651  1  0.16058034  0.14871350  0.95312778  1
  O  O652  1  0.16041182  0.48161715  0.20201819  1
  O  O653  1  0.16088072  0.48276462  0.45290193  1
  O  O654  1  0.15942146  0.48050477  0.70233507  1
  O  O655  1  0.15900750  0.48059836  0.95190473  1
  O  O656  1  0.16286272  0.81481638  0.20243253  1
  O  O657  1  0.16396358  0.81479427  0.45234806  1
  O  O658  1  0.16130609  0.81574269  0.70392352  1
  O  O659  1  0.16010254  0.81564538  0.95272379  1
  O  O660  1  0.66488717  0.14845589  0.20234694  1
  O  O661  1  0.66475126  0.14951917  0.45254389  1
  O  O662  1  0.66370758  0.14936260  0.70280518  1
  O  O663  1  0.66526926  0.14853412  0.95244297  1
  O  O664  1  0.66281887  0.48073178  0.20198945  1
  O  O665  1  0.66277701  0.48141465  0.45222753  1
  O  O666  1  0.66388151  0.48169066  0.70273160  1
  O  O667  1  0.66454818  0.48182140  0.95321640  1
  O  O668  1  0.66193566  0.81621497  0.20226959  1
  O  O669  1  0.66233789  0.81420948  0.45238468  1
  O  O670  1  0.66519412  0.81425733  0.70230820  1
  O  O671  1  0.66434242  0.81495318  0.95304834  1
