# generated using pymatgen
data_Na2MnFe(PO4)2
_symmetry_space_group_name_H-M   'P 1'
_cell_length_a   21.08386431
_cell_length_b   18.93565752
_cell_length_c   20.04252924
_cell_angle_alpha   90.00032227
_cell_angle_beta   89.99830727
_cell_angle_gamma   90.00121047
_symmetry_Int_Tables_number   1
_chemical_formula_structural   Na2MnFe(PO4)2
_chemical_formula_sum   'Na96 Mn48 Fe48 P96 O384'
_cell_volume   8001.71590913
_cell_formula_units_Z   48
loop_
 _symmetry_equiv_pos_site_id
 _symmetry_equiv_pos_as_xyz
  1  'x, y, z'
loop_
 _atom_site_type_symbol
 _atom_site_label
 _atom_site_symmetry_multiplicity
 _atom_site_fract_x
 _atom_site_fract_y
 _atom_site_fract_z
 _atom_site_occupancy
  Na  Na0  1  0.00104792  0.00022354  0.00100735  1
  Na  Na1  1  0.00080397  0.00051476  0.25046158  1
  Na  Na2  1  0.00010844  -0.00002390  0.49895769  1
  Na  Na3  1  -0.00085505  -0.00056717  0.75034393  1
  Na  Na4  1  -0.00116613  0.33262034  -0.00146058  1
  Na  Na5  1  -0.00021251  0.33349117  0.25070442  1
  Na  Na6  1  0.00010614  0.33355446  0.50126438  1
  Na  Na7  1  -0.00034969  0.33316026  0.74888168  1
  Na  Na8  1  0.00058667  0.66679847  -0.00039169  1
  Na  Na9  1  -0.00168144  0.66599410  0.25138944  1
  Na  Na10  1  -0.00214747  0.66581685  0.50055425  1
  Na  Na11  1  0.00147261  0.66758507  0.74857920  1
  Na  Na12  1  0.50252081  0.00152404  -0.00069920  1
  Na  Na13  1  0.50084123  -0.00004247  0.25081755  1
  Na  Na14  1  0.50235447  0.00098173  0.49947023  1
  Na  Na15  1  0.50060536  0.00037553  0.74999921  1
  Na  Na16  1  0.49744700  0.33270698  0.00064025  1
  Na  Na17  1  0.49970678  0.33333318  0.25021331  1
  Na  Na18  1  0.50129165  0.33377165  0.49902116  1
  Na  Na19  1  0.49920841  0.33308955  0.75052580  1
  Na  Na20  1  0.49757179  0.66594404  0.00050791  1
  Na  Na21  1  0.50109907  0.66765041  0.24916746  1
  Na  Na22  1  0.49961530  0.66622195  0.50062922  1
  Na  Na23  1  0.49954026  0.66682854  0.74962055  1
  Na  Na24  1  0.24707976  -0.00034126  0.12396290  1
  Na  Na25  1  0.24932363  -0.00011676  0.37468790  1
  Na  Na26  1  0.25129187  0.00088287  0.62616902  1
  Na  Na27  1  0.24812347  -0.00014104  0.87528067  1
  Na  Na28  1  0.25036377  0.33357877  0.12387124  1
  Na  Na29  1  0.25018035  0.33377310  0.37608621  1
  Na  Na30  1  0.24947406  0.33289044  0.62509304  1
  Na  Na31  1  0.25142505  0.33382400  0.87491321  1
  Na  Na32  1  0.24920239  0.66670226  0.12420042  1
  Na  Na33  1  0.25031863  0.66659225  0.37486961  1
  Na  Na34  1  0.25104668  0.66722705  0.62592700  1
  Na  Na35  1  0.24971798  0.66682166  0.87578191  1
  Na  Na36  1  0.75003019  0.00065654  0.12420429  1
  Na  Na37  1  0.74780610  -0.00045259  0.37573041  1
  Na  Na38  1  0.74879798  0.00032988  0.62596386  1
  Na  Na39  1  0.74962811  -0.00005987  0.87442384  1
  Na  Na40  1  0.75168455  0.33354775  0.12495910  1
  Na  Na41  1  0.74921939  0.33295749  0.37415233  1
  Na  Na42  1  0.74895214  0.33335481  0.62517444  1
  Na  Na43  1  0.75227534  0.33407477  0.87551257  1
  Na  Na44  1  0.75279168  0.66733335  0.12493220  1
  Na  Na45  1  0.75223292  0.66702787  0.37584589  1
  Na  Na46  1  0.75021548  0.66648321  0.62421877  1
  Na  Na47  1  0.74904046  0.66567692  0.87425995  1
  Na  Na48  1  -0.00091543  0.16642676  0.00036150  1
  Na  Na49  1  -0.00115417  0.16672703  0.25009705  1
  Na  Na50  1  -0.00012916  0.16672978  0.50055253  1
  Na  Na51  1  0.00022923  0.16608265  0.74917007  1
  Na  Na52  1  0.00007147  0.49963340  -0.00170759  1
  Na  Na53  1  -0.00143535  0.50042357  0.25141304  1
  Na  Na54  1  -0.00154777  0.50065108  0.50137568  1
  Na  Na55  1  0.00105569  0.49967820  0.74895346  1
  Na  Na56  1  0.00251008  0.83283851  0.00107254  1
  Na  Na57  1  0.00134456  0.83320956  0.25103641  1
  Na  Na58  1  -0.00051463  0.83367996  0.49883803  1
  Na  Na59  1  -0.00124991  0.83452277  0.74934038  1
  Na  Na60  1  0.49976010  0.16597856  -0.00013556  1
  Na  Na61  1  0.50049707  0.16578421  0.25122277  1
  Na  Na62  1  0.50018250  0.16599067  0.49947545  1
  Na  Na63  1  0.49946468  0.16648388  0.74942362  1
  Na  Na64  1  0.49815562  0.50067898  0.00122332  1
  Na  Na65  1  0.50126025  0.49978411  0.24896372  1
  Na  Na66  1  0.50333399  0.49930142  0.49945255  1
  Na  Na67  1  0.50069858  0.49964494  0.75002668  1
  Na  Na68  1  0.50013371  0.83293522  -0.00069834  1
  Na  Na69  1  0.49954612  0.83397580  0.25006342  1
  Na  Na70  1  0.50048336  0.83260355  0.50030551  1
  Na  Na71  1  0.49973682  0.83276558  0.75075772  1
  Na  Na72  1  0.24920985  0.16682336  0.12343184  1
  Na  Na73  1  0.25292490  0.16562901  0.37527314  1
  Na  Na74  1  0.25272814  0.16611752  0.62616429  1
  Na  Na75  1  0.24930451  0.16685847  0.87498588  1
  Na  Na76  1  0.25030775  0.49944816  0.12386781  1
  Na  Na77  1  0.24955259  0.49945106  0.37565217  1
  Na  Na78  1  0.24713107  0.50147959  0.62504253  1
  Na  Na79  1  0.25032842  0.49958859  0.87540600  1
  Na  Na80  1  0.24668851  0.83417930  0.12491707  1
  Na  Na81  1  0.24829124  0.83366033  0.37429640  1
  Na  Na82  1  0.25100554  0.83276169  0.62620748  1
  Na  Na83  1  0.25066699  0.83225080  0.87518731  1
  Na  Na84  1  0.75159336  0.16575085  0.12457521  1
  Na  Na85  1  0.74800977  0.16643681  0.37456795  1
  Na  Na86  1  0.74744170  0.16689357  0.62554319  1
  Na  Na87  1  0.75084664  0.16613855  0.87559449  1
  Na  Na88  1  0.75001177  0.50102594  0.12574075  1
  Na  Na89  1  0.75031269  0.50010205  0.37508658  1
  Na  Na90  1  0.75047417  0.49965451  0.62398976  1
  Na  Na91  1  0.75040515  0.50004661  0.87462665  1
  Na  Na92  1  0.75044051  0.83435439  0.12424190  1
  Na  Na93  1  0.75257038  0.83227787  0.37553311  1
  Na  Na94  1  0.74927517  0.83399188  0.62587259  1
  Na  Na95  1  0.75015926  0.83375215  0.87390420  1
  Mn  Mn96  1  0.35832279  0.41725181  0.50277085  1
  Mn  Mn97  1  0.64150872  0.25109455  0.74834340  1
  Mn  Mn98  1  0.60757883  0.41594030  0.12245619  1
  Mn  Mn99  1  0.39201930  0.91732922  0.12643218  1
  Mn  Mn100  1  0.64239932  0.58389575  0.99759413  1
  Mn  Mn101  1  0.89149966  0.24965700  0.62741821  1
  Mn  Mn102  1  0.85755374  0.74941755  0.75221818  1
  Mn  Mn103  1  0.85831652  0.41672811  0.25236791  1
  Mn  Mn104  1  0.64322055  0.58357142  0.49748075  1
  Mn  Mn105  1  0.14139369  0.24992552  0.99721690  1
  Mn  Mn106  1  0.35703238  0.75010894  0.25220308  1
  Mn  Mn107  1  0.39180106  0.58361977  0.12798636  1
  Mn  Mn108  1  0.14318476  0.24949377  0.49805616  1
  Mn  Mn109  1  0.60694657  0.74960022  0.87308785  1
  Mn  Mn110  1  0.39292259  0.25037287  0.37708287  1
  Mn  Mn111  1  0.14124321  0.58296670  0.24755767  1
  Mn  Mn112  1  0.39213861  0.91675638  0.87791402  1
  Mn  Mn113  1  0.35777489  0.41699850  0.75152396  1
  Mn  Mn114  1  0.60875732  0.75071033  0.12237545  1
  Mn  Mn115  1  0.10835458  0.08311717  0.62276602  1
  Mn  Mn116  1  0.39275808  0.58339778  0.37665138  1
  Mn  Mn117  1  0.85636377  0.08351095  0.50230989  1
  Mn  Mn118  1  0.89230875  0.91689987  0.37747803  1
  Mn  Mn119  1  0.10789539  0.75011188  0.62219505  1
  Mn  Mn120  1  0.64260003  0.91567862  0.24742788  1
  Mn  Mn121  1  0.39257720  0.91684792  0.62680005  1
  Mn  Mn122  1  0.89262477  0.58396088  0.87628648  1
  Mn  Mn123  1  0.85746648  0.08412329  0.75235535  1
  Mn  Mn124  1  0.89143177  0.25043824  0.37809240  1
  Mn  Mn125  1  0.85893697  0.41654620  0.00259644  1
  Mn  Mn126  1  0.10876816  0.08414285  0.37307357  1
  Mn  Mn127  1  0.85892800  0.75054588  0.00177340  1
  Mn  Mn128  1  0.64265132  0.25000334  0.24684287  1
  Mn  Mn129  1  0.10778515  0.41614737  0.87162709  1
  Mn  Mn130  1  0.60874382  0.74970806  0.37260229  1
  Mn  Mn131  1  0.60715529  0.41643678  0.87347205  1
  Mn  Mn132  1  0.39239902  0.58237282  0.62711411  1
  Mn  Mn133  1  0.14238060  0.24982829  0.24768495  1
  Mn  Mn134  1  0.14208477  0.91672400  0.74749937  1
  Mn  Mn135  1  0.89316419  0.91645741  0.12755094  1
  Mn  Mn136  1  0.10733614  0.74954286  0.37363046  1
  Mn  Mn137  1  0.35721620  0.08263244  0.00228570  1
  Mn  Mn138  1  0.39162690  0.91622590  0.37742086  1
  Mn  Mn139  1  0.39174136  0.24890105  0.12770169  1
  Mn  Mn140  1  0.14183018  0.58350746  0.99783134  1
  Mn  Mn141  1  0.64208006  0.91589114  0.74763053  1
  Mn  Mn142  1  0.64290192  0.24990266  0.99760380  1
  Mn  Mn143  1  0.10732913  0.41653752  0.37338501  1
  Fe  Fe144  1  0.10691416  0.74919440  0.12368883  1
  Fe  Fe145  1  0.35602151  0.75031973  0.00211701  1
  Fe  Fe146  1  0.14292251  0.91648037  0.49925555  1
  Fe  Fe147  1  0.14307712  0.25029001  0.74839458  1
  Fe  Fe148  1  0.60697134  0.74999447  0.62307138  1
  Fe  Fe149  1  0.10690709  0.08405687  0.12349307  1
  Fe  Fe150  1  0.10769531  0.75058228  0.87289787  1
  Fe  Fe151  1  0.35712306  0.41643679  0.25163786  1
  Fe  Fe152  1  0.35720299  0.75024452  0.50141764  1
  Fe  Fe153  1  0.89215843  0.91670285  0.62584859  1
  Fe  Fe154  1  0.35776712  0.08327930  0.75224746  1
  Fe  Fe155  1  0.85850222  0.75064105  0.25143157  1
  Fe  Fe156  1  0.85716613  0.75058904  0.50271653  1
  Fe  Fe157  1  0.89319999  0.91725034  0.87694876  1
  Fe  Fe158  1  0.85737709  0.08271519  0.25164988  1
  Fe  Fe159  1  0.64196153  0.58297531  0.74825151  1
  Fe  Fe160  1  0.60693256  0.08335145  0.37273018  1
  Fe  Fe161  1  0.85710597  0.41680703  0.75076146  1
  Fe  Fe162  1  0.10736218  0.41657950  0.12389917  1
  Fe  Fe163  1  0.14240045  0.58409138  0.49865172  1
  Fe  Fe164  1  0.85762052  0.08284736  0.00155019  1
  Fe  Fe165  1  0.14187781  0.91658500  0.99784553  1
  Fe  Fe166  1  0.35748250  0.74988437  0.75212784  1
  Fe  Fe167  1  0.39191033  0.58264480  0.87620582  1
  Fe  Fe168  1  0.39205452  0.25030017  0.87631369  1
  Fe  Fe169  1  0.89306721  0.58285543  0.12655935  1
  Fe  Fe170  1  0.85635096  0.41619076  0.50215196  1
  Fe  Fe171  1  0.14297586  0.58307986  0.74837333  1
  Fe  Fe172  1  0.89297562  0.58348723  0.62731180  1
  Fe  Fe173  1  0.89333207  0.25018222  0.12647731  1
  Fe  Fe174  1  0.60800715  0.08332457  0.12321810  1
  Fe  Fe175  1  0.60809629  0.41684291  0.37251763  1
  Fe  Fe176  1  0.60731198  0.08401684  0.87352608  1
  Fe  Fe177  1  0.35720034  0.08335469  0.25086944  1
  Fe  Fe178  1  0.89299254  0.24908903  0.87609423  1
  Fe  Fe179  1  0.10645705  0.08330596  0.87326406  1
  Fe  Fe180  1  0.35694498  0.41712347  0.00180526  1
  Fe  Fe181  1  0.60652556  0.08335527  0.62311561  1
  Fe  Fe182  1  0.39345038  0.25037382  0.62633497  1
  Fe  Fe183  1  0.89215904  0.58288326  0.37765729  1
  Fe  Fe184  1  0.64166272  0.24980979  0.49865516  1
  Fe  Fe185  1  0.64428557  0.58401823  0.24846657  1
  Fe  Fe186  1  0.64275303  0.91651642  0.49863616  1
  Fe  Fe187  1  0.14247916  0.91716129  0.24819424  1
  Fe  Fe188  1  0.64327815  0.91674509  0.99811263  1
  Fe  Fe189  1  0.60822356  0.41638250  0.62334229  1
  Fe  Fe190  1  0.35830812  0.08241058  0.50177655  1
  Fe  Fe191  1  0.10661074  0.41669227  0.62329548  1
  P  P192  1  0.05229176  0.25032891  0.11014598  1
  P  P193  1  0.05308429  0.25004102  0.36019188  1
  P  P194  1  0.05455498  0.25046564  0.61126067  1
  P  P195  1  0.05256255  0.24871583  0.85895437  1
  P  P196  1  0.05192716  0.58284282  0.11021899  1
  P  P197  1  0.05278264  0.58334650  0.36185928  1
  P  P198  1  0.05420041  0.58282154  0.61081916  1
  P  P199  1  0.05422584  0.58425210  0.85869248  1
  P  P200  1  0.05563115  0.91687123  0.11131171  1
  P  P201  1  0.05570181  0.91690222  0.36080728  1
  P  P202  1  0.05248240  0.91667168  0.60900891  1
  P  P203  1  0.05350391  0.91695986  0.86122569  1
  P  P204  1  0.55330737  0.24874360  0.10987958  1
  P  P205  1  0.55538695  0.24999671  0.36107818  1
  P  P206  1  0.55282726  0.25004074  0.60962632  1
  P  P207  1  0.55173032  0.24956709  0.86049133  1
  P  P208  1  0.55477239  0.58376260  0.11106851  1
  P  P209  1  0.55493299  0.58303186  0.35893201  1
  P  P210  1  0.55503712  0.58330129  0.61108772  1
  P  P211  1  0.55203333  0.58312674  0.85971073  1
  P  P212  1  0.55431267  0.91761531  0.10896908  1
  P  P213  1  0.55462277  0.91681451  0.36121394  1
  P  P214  1  0.55398200  0.91630373  0.60967711  1
  P  P215  1  0.55465072  0.91730538  0.86120195  1
  P  P216  1  0.44771234  0.08267317  0.14079441  1
  P  P217  1  0.44584827  0.08295921  0.38929562  1
  P  P218  1  0.44591539  0.08376467  0.63913047  1
  P  P219  1  0.44625747  0.08399898  0.88891507  1
  P  P220  1  0.44456997  0.41636831  0.13993692  1
  P  P221  1  0.44731150  0.41719024  0.38877618  1
  P  P222  1  0.44869951  0.41594291  0.63967659  1
  P  P223  1  0.44538608  0.41688409  0.89054424  1
  P  P224  1  0.44566942  0.75101975  0.13905235  1
  P  P225  1  0.44640628  0.74981934  0.39077957  1
  P  P226  1  0.44578057  0.74993129  0.63943445  1
  P  P227  1  0.44402030  0.74875587  0.88970921  1
  P  P228  1  0.94623733  0.08369238  0.13940832  1
  P  P229  1  0.94569952  0.08343622  0.38950211  1
  P  P230  1  0.94639004  0.08222623  0.63973835  1
  P  P231  1  0.94697258  0.08328796  0.89031785  1
  P  P232  1  0.94817384  0.41661169  0.13986567  1
  P  P233  1  0.94552745  0.41720383  0.39170014  1
  P  P234  1  0.94525635  0.41724606  0.63919744  1
  P  P235  1  0.94545227  0.41594498  0.88762114  1
  P  P236  1  0.94785085  0.74940191  0.14057094  1
  P  P237  1  0.94431913  0.74945653  0.38993623  1
  P  P238  1  0.94518977  0.75046135  0.63849136  1
  P  P239  1  0.94843453  0.75096887  0.88951336  1
  P  P240  1  0.19733431  0.08332888  0.23418673  1
  P  P241  1  0.19873392  0.08268887  0.48563998  1
  P  P242  1  0.19670110  0.08435389  0.73665264  1
  P  P243  1  0.19395639  0.08288591  0.98520026  1
  P  P244  1  0.19719239  0.41633455  0.23428888  1
  P  P245  1  0.19539159  0.41761400  0.48672473  1
  P  P246  1  0.19596808  0.41655461  0.73447949  1
  P  P247  1  0.19599709  0.41666026  0.98576993  1
  P  P248  1  0.19534409  0.75017897  0.23455990  1
  P  P249  1  0.19764575  0.74995620  0.48549725  1
  P  P250  1  0.19652390  0.74930917  0.73636396  1
  P  P251  1  0.19487211  0.75052659  0.98567919  1
  P  P252  1  0.69634590  0.08292287  0.23510906  1
  P  P253  1  0.69365204  0.08332611  0.48602218  1
  P  P254  1  0.69423771  0.08381496  0.73580640  1
  P  P255  1  0.69629001  0.08265696  0.98534589  1
  P  P256  1  0.69607091  0.41773958  0.23576199  1
  P  P257  1  0.69571099  0.41587049  0.48535610  1
  P  P258  1  0.69694551  0.41741115  0.73471122  1
  P  P259  1  0.69743758  0.41670129  0.98494601  1
  P  P260  1  0.69913566  0.74913820  0.23502065  1
  P  P261  1  0.69700574  0.75076831  0.48653393  1
  P  P262  1  0.69548909  0.74879234  0.73428712  1
  P  P263  1  0.69748823  0.75104119  0.98439436  1
  P  P264  1  0.30435459  0.25040014  0.01345686  1
  P  P265  1  0.30344609  0.25003871  0.26486293  1
  P  P266  1  0.30503313  0.24942889  0.51592165  1
  P  P267  1  0.30445255  0.24977172  0.76418436  1
  P  P268  1  0.30448802  0.58360401  0.01358819  1
  P  P269  1  0.30257822  0.58221141  0.26506841  1
  P  P270  1  0.30237024  0.58424175  0.51501904  1
  P  P271  1  0.30275238  0.58361098  0.76543296  1
  P  P272  1  0.30134308  0.91596168  0.01480570  1
  P  P273  1  0.30194644  0.91771734  0.26425596  1
  P  P274  1  0.30217439  0.91620256  0.51509432  1
  P  P275  1  0.30381097  0.91681979  0.76526209  1
  P  P276  1  0.80588841  0.24869303  0.01438832  1
  P  P277  1  0.80505281  0.24892717  0.26359492  1
  P  P278  1  0.80099608  0.25036640  0.51510007  1
  P  P279  1  0.80342822  0.25098115  0.76570988  1
  P  P280  1  0.80463186  0.58354140  0.01550161  1
  P  P281  1  0.80521986  0.58413003  0.26463761  1
  P  P282  1  0.80568895  0.58294797  0.51451129  1
  P  P283  1  0.80308407  0.58244282  0.76330306  1
  P  P284  1  0.80429041  0.91770313  0.01352626  1
  P  P285  1  0.80385486  0.91717346  0.26483897  1
  P  P286  1  0.80238523  0.91669387  0.51582335  1
  P  P287  1  0.80523654  0.91682596  0.76454223  1
  O  O288  1  0.05574810  0.25022545  0.18685063  1
  O  O289  1  0.05699006  0.24964469  0.43695369  1
  O  O290  1  0.05905477  0.24966931  0.68797786  1
  O  O291  1  0.05583341  0.24967926  0.93567096  1
  O  O292  1  0.05485587  0.58279791  0.18699709  1
  O  O293  1  0.05795145  0.58377825  0.43849502  1
  O  O294  1  0.05935832  0.58376337  0.68745727  1
  O  O295  1  0.05690441  0.58336801  0.93551034  1
  O  O296  1  0.05905601  0.91724271  0.18817035  1
  O  O297  1  0.06025987  0.91693775  0.43757506  1
  O  O298  1  0.05650996  0.91667205  0.68578377  1
  O  O299  1  0.05790113  0.91656294  0.93792988  1
  O  O300  1  0.55660404  0.24953304  0.18667415  1
  O  O301  1  0.55867855  0.25013328  0.43785657  1
  O  O302  1  0.55572103  0.25031038  0.68636645  1
  O  O303  1  0.55580557  0.24990356  0.93712868  1
  O  O304  1  0.55998807  0.58426995  0.18772438  1
  O  O305  1  0.55790206  0.58390538  0.43577346  1
  O  O306  1  0.55848482  0.58325800  0.68788086  1
  O  O307  1  0.55580913  0.58345345  0.93646113  1
  O  O308  1  0.55711804  0.91644963  0.18583342  1
  O  O309  1  0.55897336  0.91584033  0.43791224  1
  O  O310  1  0.55625961  0.91606503  0.68650879  1
  O  O311  1  0.55902850  0.91674374  0.93790989  1
  O  O312  1  0.44323636  0.08269490  0.06407243  1
  O  O313  1  0.44064489  0.08258419  0.31267163  1
  O  O314  1  0.44145972  0.08248793  0.56238173  1
  O  O315  1  0.44148367  0.08312274  0.81219592  1
  O  O316  1  0.43999179  0.41671057  0.06316224  1
  O  O317  1  0.44187325  0.41718650  0.31218105  1
  O  O318  1  0.44497708  0.41704849  0.56296886  1
  O  O319  1  0.44299612  0.41700062  0.81375830  1
  O  O320  1  0.44055335  0.75091117  0.06233450  1
  O  O321  1  0.44279081  0.75026654  0.31397589  1
  O  O322  1  0.44067508  0.74989973  0.56275452  1
  O  O323  1  0.44026887  0.74971844  0.81281248  1
  O  O324  1  0.94173482  0.08262019  0.06275173  1
  O  O325  1  0.94131807  0.08312486  0.31275090  1
  O  O326  1  0.94282849  0.08310330  0.56301028  1
  O  O327  1  0.94354386  0.08311739  0.81356382  1
  O  O328  1  0.94506408  0.41660400  0.06312586  1
  O  O329  1  0.94285534  0.41643561  0.31484308  1
  O  O330  1  0.94038097  0.41614654  0.56256660  1
  O  O331  1  0.94138956  0.41683910  0.81090380  1
  O  O332  1  0.94462066  0.75039935  0.06383219  1
  O  O333  1  0.94089205  0.75050663  0.31310105  1
  O  O334  1  0.94113584  0.75053411  0.56170278  1
  O  O335  1  0.94432105  0.75047712  0.81281789  1
  O  O336  1  0.18964107  0.08414839  0.06195957  1
  O  O337  1  0.19430742  0.08421941  0.31095263  1
  O  O338  1  0.19496258  0.08355250  0.56235140  1
  O  O339  1  0.19118099  0.08375534  0.81323896  1
  O  O340  1  0.19062345  0.41641084  0.06239622  1
  O  O341  1  0.19309389  0.41636390  0.31102704  1
  O  O342  1  0.19081456  0.41702475  0.56341443  1
  O  O343  1  0.19376539  0.41625785  0.81139971  1
  O  O344  1  0.19000786  0.74951132  0.06236413  1
  O  O345  1  0.19255287  0.74893623  0.31135991  1
  O  O346  1  0.19454481  0.74982504  0.56226018  1
  O  O347  1  0.19160789  0.75020799  0.81302485  1
  O  O348  1  0.69192591  0.08354834  0.06205552  1
  O  O349  1  0.69123285  0.08308688  0.31180049  1
  O  O350  1  0.68994244  0.08355339  0.56288165  1
  O  O351  1  0.69025041  0.08393427  0.81261066  1
  O  O352  1  0.69386480  0.41643271  0.06171081  1
  O  O353  1  0.69218762  0.41681617  0.31255972  1
  O  O354  1  0.69118612  0.41636707  0.56212590  1
  O  O355  1  0.69322448  0.41682594  0.81140310  1
  O  O356  1  0.69482207  0.75060388  0.06118940  1
  O  O357  1  0.69545332  0.74956334  0.31173179  1
  O  O358  1  0.69173511  0.75023278  0.56310721  1
  O  O359  1  0.69232914  0.74936685  0.81107305  1
  O  O360  1  0.30548556  0.24988416  0.18803190  1
  O  O361  1  0.30797698  0.25044011  0.43908216  1
  O  O362  1  0.30956271  0.25033126  0.68753762  1
  O  O363  1  0.30850614  0.24971958  0.93666980  1
  O  O364  1  0.30556068  0.58291949  0.18826003  1
  O  O365  1  0.30632984  0.58306282  0.43838019  1
  O  O366  1  0.30655721  0.58302873  0.68870034  1
  O  O367  1  0.30801258  0.58320802  0.93685120  1
  O  O368  1  0.30549252  0.91720398  0.18760752  1
  O  O369  1  0.30514581  0.91636588  0.43836126  1
  O  O370  1  0.30711356  0.91703541  0.68850160  1
  O  O371  1  0.30557722  0.91673851  0.93815810  1
  O  O372  1  0.80970351  0.24981966  0.18683468  1
  O  O373  1  0.80472682  0.24969492  0.43839069  1
  O  O374  1  0.80596004  0.24971850  0.68888287  1
  O  O375  1  0.80988488  0.24942819  0.93762330  1
  O  O376  1  0.80993285  0.58321136  0.18788741  1
  O  O377  1  0.80881156  0.58292328  0.43762936  1
  O  O378  1  0.80811660  0.58326633  0.68665452  1
  O  O379  1  0.80772072  0.58341245  0.93866902  1
  O  O380  1  0.80683444  0.91745371  0.18801730  1
  O  O381  1  0.80631314  0.91718627  0.43911990  1
  O  O382  1  0.80928861  0.91705418  0.68780845  1
  O  O383  1  0.80925445  0.91702751  0.93684478  1
  O  O384  1  0.23429989  0.24999784  0.03752048  1
  O  O385  1  0.23416379  0.24985620  0.29127631  1
  O  O386  1  0.23527592  0.24965527  0.54085694  1
  O  O387  1  0.23398058  0.25053157  0.78775126  1
  O  O388  1  0.23455169  0.58369542  0.03828541  1
  O  O389  1  0.23295291  0.58277540  0.29036051  1
  O  O390  1  0.23234333  0.58440076  0.53972606  1
  O  O391  1  0.23264971  0.58296161  0.78987926  1
  O  O392  1  0.23120669  0.91655193  0.03886604  1
  O  O393  1  0.23188892  0.91710454  0.28894007  1
  O  O394  1  0.23243545  0.91647145  0.54088184  1
  O  O395  1  0.23402302  0.91643562  0.79016710  1
  O  O396  1  0.73586600  0.24962638  0.03868662  1
  O  O397  1  0.73496579  0.24939873  0.28744093  1
  O  O398  1  0.73098568  0.25002454  0.53975271  1
  O  O399  1  0.73383814  0.25039517  0.79116430  1
  O  O400  1  0.73491013  0.58399111  0.04042236  1
  O  O401  1  0.73496797  0.58344815  0.28868196  1
  O  O402  1  0.73564423  0.58314622  0.53876195  1
  O  O403  1  0.73279136  0.58277326  0.78718987  1
  O  O404  1  0.73403469  0.91762189  0.03736542  1
  O  O405  1  0.73431392  0.91624706  0.29033654  1
  O  O406  1  0.73223382  0.91720825  0.54011694  1
  O  O407  1  0.73502718  0.91656504  0.78818022  1
  O  O408  1  0.26723993  0.08347344  0.20894828  1
  O  O409  1  0.26878036  0.08274297  0.46100785  1
  O  O410  1  0.26723375  0.08376966  0.71344052  1
  O  O411  1  0.26414426  0.08320861  0.96144585  1
  O  O412  1  0.26725423  0.41632312  0.20996754  1
  O  O413  1  0.26550967  0.41684975  0.46273535  1
  O  O414  1  0.26560164  0.41703687  0.70896697  1
  O  O415  1  0.26640511  0.41685772  0.96241961  1
  O  O416  1  0.26500962  0.75015997  0.20927807  1
  O  O417  1  0.26739102  0.74998646  0.45996411  1
  O  O418  1  0.26697090  0.74979804  0.71288431  1
  O  O419  1  0.26530083  0.74988094  0.96226011  1
  O  O420  1  0.76673779  0.08307246  0.21163265  1
  O  O421  1  0.76365571  0.08305410  0.46152402  1
  O  O422  1  0.76438175  0.08386974  0.71192295  1
  O  O423  1  0.76664079  0.08285295  0.96147161  1
  O  O424  1  0.76607808  0.41728597  0.21139736  1
  O  O425  1  0.76611398  0.41677238  0.46170166  1
  O  O426  1  0.76695666  0.41666308  0.70999082  1
  O  O427  1  0.76722016  0.41685354  0.96032996  1
  O  O428  1  0.76913967  0.75043248  0.21023928  1
  O  O429  1  0.76751462  0.74999756  0.46325428  1
  O  O430  1  0.76534229  0.74980137  0.70964190  1
  O  O431  1  0.76699429  0.75020840  0.95865095  1
  O  O432  1  0.01670415  0.08338087  0.16312190  1
  O  O433  1  0.01575375  0.08348205  0.41355558  1
  O  O434  1  0.01615096  0.08257576  0.66466536  1
  O  O435  1  0.01701603  0.08328818  0.91499980  1
  O  O436  1  0.01794216  0.41674876  0.16543694  1
  O  O437  1  0.01517519  0.41690088  0.41682958  1
  O  O438  1  0.01574549  0.41684858  0.66256011  1
  O  O439  1  0.01548808  0.41613490  0.91199664  1
  O  O440  1  0.01782725  0.74972305  0.16549390  1
  O  O441  1  0.01433409  0.74986777  0.41435141  1
  O  O442  1  0.01522019  0.75046302  0.66275357  1
  O  O443  1  0.01845855  0.75030875  0.91405307  1
  O  O444  1  0.51786721  0.08283758  0.16483732  1
  O  O445  1  0.51636834  0.08348299  0.41236242  1
  O  O446  1  0.51640449  0.08324397  0.66257776  1
  O  O447  1  0.51661189  0.08396121  0.91259930  1
  O  O448  1  0.51480580  0.41616385  0.16334775  1
  O  O449  1  0.51776840  0.41676018  0.41204401  1
  O  O450  1  0.51866673  0.41623717  0.66445407  1
  O  O451  1  0.51493777  0.41681954  0.91640516  1
  O  O452  1  0.51585619  0.75112813  0.16268581  1
  O  O453  1  0.51629252  0.74939028  0.41522135  1
  O  O454  1  0.51626310  0.74999857  0.66271897  1
  O  O455  1  0.51410393  0.74949652  0.91383188  1
  O  O456  1  0.48356995  0.24895253  0.08506975  1
  O  O457  1  0.48551447  0.24980991  0.33627112  1
  O  O458  1  0.48294693  0.24985303  0.58430809  1
  O  O459  1  0.48172365  0.24991240  0.83582263  1
  O  O460  1  0.48448065  0.58336024  0.08782751  1
  O  O461  1  0.48523340  0.58383237  0.33380637  1
  O  O462  1  0.48519116  0.58284946  0.58615764  1
  O  O463  1  0.48193004  0.58303875  0.83526588  1
  O  O464  1  0.48468549  0.91731694  0.08355838  1
  O  O465  1  0.48461194  0.91676336  0.33695173  1
  O  O466  1  0.48437223  0.91677029  0.58409386  1
  O  O467  1  0.48462410  0.91664976  0.83698626  1
  O  O468  1  0.98233866  0.24991036  0.08514291  1
  O  O469  1  0.98328102  0.25027047  0.33569169  1
  O  O470  1  0.98441083  0.25023615  0.58725637  1
  O  O471  1  0.98252220  0.24922205  0.83427457  1
  O  O472  1  0.98216233  0.58306784  0.08463777  1
  O  O473  1  0.98239561  0.58317375  0.33844045  1
  O  O474  1  0.98359715  0.58325606  0.58786677  1
  O  O475  1  0.98456638  0.58372827  0.83339099  1
  O  O476  1  0.98560173  0.91661742  0.08681432  1
  O  O477  1  0.98549884  0.91678672  0.33723045  1
  O  O478  1  0.98240549  0.91663299  0.58471782  1
  O  O479  1  0.98325318  0.91728988  0.83713442  1
  O  O480  1  0.08589035  0.31549031  0.07731428  1
  O  O481  1  0.08701605  0.31517465  0.32775635  1
  O  O482  1  0.08785888  0.31579066  0.57855760  1
  O  O483  1  0.08702056  0.31341268  0.82602494  1
  O  O484  1  0.08609958  0.64801641  0.07797823  1
  O  O485  1  0.08583928  0.64829500  0.32816161  1
  O  O486  1  0.08742337  0.64770399  0.57680340  1
  O  O487  1  0.08827808  0.64952174  0.82670654  1
  O  O488  1  0.08914653  0.98192546  0.07819047  1
  O  O489  1  0.08924049  0.98184219  0.32744367  1
  O  O490  1  0.08665625  0.98156663  0.57633446  1
  O  O491  1  0.08690076  0.98219228  0.82819274  1
  O  O492  1  0.58739000  0.31368045  0.07708423  1
  O  O493  1  0.58907733  0.31503303  0.32813729  1
  O  O494  1  0.58712642  0.31497174  0.57704456  1
  O  O495  1  0.58547994  0.31476586  0.82770223  1
  O  O496  1  0.58764083  0.64889729  0.07733722  1
  O  O497  1  0.58971653  0.64779197  0.32635022  1
  O  O498  1  0.58843106  0.64864465  0.57816744  1
  O  O499  1  0.58607798  0.64796583  0.82675060  1
  O  O500  1  0.58857218  0.98301158  0.07729749  1
  O  O501  1  0.58817699  0.98211214  0.32857195  1
  O  O502  1  0.58851486  0.98133409  0.57772771  1
  O  O503  1  0.58790115  0.98253800  0.82831427  1
  O  O504  1  0.41393776  0.01764454  0.17370844  1
  O  O505  1  0.41295472  0.01792774  0.42327275  1
  O  O506  1  0.41231456  0.01910252  0.67301975  1
  O  O507  1  0.41319985  0.01898131  0.92279122  1
  O  O508  1  0.41107264  0.35130461  0.17307166  1
  O  O509  1  0.41388655  0.35228586  0.42227433  1
  O  O510  1  0.41484814  0.35075733  0.67195455  1
  O  O511  1  0.41091135  0.35175388  0.92255857  1
  O  O512  1  0.41234250  0.68597645  0.17245356  1
  O  O513  1  0.41211775  0.68487572  0.42325566  1
  O  O514  1  0.41241189  0.68493325  0.67290890  1
  O  O515  1  0.41072333  0.68336714  0.92214068  1
  O  O516  1  0.91280843  0.01881649  0.17322531  1
  O  O517  1  0.91213009  0.01841660  0.42262853  1
  O  O518  1  0.91255868  0.01705442  0.67204148  1
  O  O519  1  0.91304011  0.01839025  0.92338376  1
  O  O520  1  0.91403710  0.35155745  0.17232537  1
  O  O521  1  0.91097372  0.35235922  0.42432473  1
  O  O522  1  0.91157420  0.35254793  0.67289942  1
  O  O523  1  0.91215733  0.35058889  0.92033522  1
  O  O524  1  0.91384495  0.68426131  0.17271785  1
  O  O525  1  0.91067963  0.68429228  0.42245295  1
  O  O526  1  0.91180959  0.68516022  0.67153685  1
  O  O527  1  0.91445305  0.68588648  0.92207831  1
  O  O528  1  0.16289453  0.01830537  0.20221291  1
  O  O529  1  0.16471466  0.01763506  0.45340316  1
  O  O530  1  0.16348180  0.01934762  0.70293620  1
  O  O531  1  0.16056609  0.01751265  0.95257522  1
  O  O532  1  0.16329476  0.35134075  0.20132850  1
  O  O533  1  0.16180440  0.35267435  0.45333890  1
  O  O534  1  0.16173759  0.35142386  0.70234704  1
  O  O535  1  0.16295556  0.35167361  0.95200586  1
  O  O536  1  0.16104352  0.68530926  0.20162214  1
  O  O537  1  0.16335643  0.68493347  0.45300177  1
  O  O538  1  0.16358993  0.68404745  0.70318907  1
  O  O539  1  0.16126727  0.68580232  0.95197067  1
  O  O540  1  0.66308292  0.01784447  0.20180226  1
  O  O541  1  0.65987152  0.01818938  0.45324401  1
  O  O542  1  0.66065995  0.01880227  0.70270061  1
  O  O543  1  0.66266434  0.01764885  0.95232120  1
  O  O544  1  0.66239739  0.35282325  0.20245005  1
  O  O545  1  0.66255684  0.35069497  0.45228022  1
  O  O546  1  0.66268508  0.35244806  0.70188841  1
  O  O547  1  0.66364372  0.35157291  0.95221580  1
  O  O548  1  0.66587038  0.68384500  0.20230201  1
  O  O549  1  0.66387292  0.68581513  0.45273543  1
  O  O550  1  0.66180034  0.68360443  0.70181844  1
  O  O551  1  0.66274736  0.68613531  0.95222358  1
  O  O552  1  0.33773749  0.31557202  0.04623620  1
  O  O553  1  0.33782200  0.31524052  0.29695680  1
  O  O554  1  0.33937897  0.31432052  0.54873475  1
  O  O555  1  0.33808799  0.31473491  0.79751161  1
  O  O556  1  0.33807285  0.64888802  0.04635961  1
  O  O557  1  0.33704082  0.64722376  0.29729737  1
  O  O558  1  0.33636237  0.64936113  0.54732163  1
  O  O559  1  0.33651347  0.64865562  0.79807848  1
  O  O560  1  0.33516350  0.98098078  0.04776267  1
  O  O561  1  0.33551225  0.98294761  0.29688471  1
  O  O562  1  0.33664454  0.98109702  0.54751887  1
  O  O563  1  0.33754745  0.98202919  0.79793170  1
  O  O564  1  0.84021850  0.31331306  0.04777396  1
  O  O565  1  0.83840073  0.31405150  0.29696235  1
  O  O566  1  0.83484615  0.31550562  0.54754024  1
  O  O567  1  0.83764212  0.31632012  0.79721709  1
  O  O568  1  0.83926480  0.64843467  0.04773936  1
  O  O569  1  0.83836516  0.64946140  0.29745475  1
  O  O570  1  0.83962512  0.64787892  0.54741205  1
  O  O571  1  0.83646985  0.64741635  0.79698637  1
  O  O572  1  0.83763581  0.98273430  0.04681948  1
  O  O573  1  0.83741526  0.98252290  0.29745184  1
  O  O574  1  0.83633443  0.98158105  0.54887141  1
  O  O575  1  0.83857280  0.98187636  0.79794187  1
  O  O576  1  0.41365338  0.14752424  0.17379693  1
  O  O577  1  0.41246005  0.14790100  0.42273202  1
  O  O578  1  0.41290188  0.14916301  0.67199722  1
  O  O579  1  0.41281647  0.14900700  0.92187658  1
  O  O580  1  0.41114230  0.48127346  0.17345080  1
  O  O581  1  0.41454700  0.48233818  0.42260484  1
  O  O582  1  0.41455308  0.48071474  0.67271999  1
  O  O583  1  0.41103200  0.48201081  0.92277076  1
  O  O584  1  0.41233932  0.81612025  0.17226582  1
  O  O585  1  0.41243001  0.81484036  0.42363186  1
  O  O586  1  0.41247500  0.81497001  0.67288441  1
  O  O587  1  0.40993081  0.81349311  0.92309530  1
  O  O588  1  0.91293296  0.14888474  0.17229436  1
  O  O589  1  0.91200337  0.14838427  0.42266384  1
  O  O590  1  0.91222561  0.14725557  0.67247530  1
  O  O591  1  0.91302365  0.14846804  0.92267240  1
  O  O592  1  0.91398043  0.48165115  0.17230033  1
  O  O593  1  0.91125626  0.48233157  0.42359198  1
  O  O594  1  0.91221042  0.48256862  0.67237362  1
  O  O595  1  0.91202599  0.48089935  0.92107890  1
  O  O596  1  0.91377054  0.81436316  0.17351690  1
  O  O597  1  0.91037323  0.81434265  0.42314714  1
  O  O598  1  0.91169004  0.81557462  0.67133510  1
  O  O599  1  0.91500868  0.81606223  0.92257252  1
  O  O600  1  0.08628304  0.18526031  0.07755838  1
  O  O601  1  0.08691288  0.18507488  0.32725918  1
  O  O602  1  0.08799607  0.18547709  0.57779344  1
  O  O603  1  0.08640938  0.18341439  0.82673883  1
  O  O604  1  0.08604432  0.51786131  0.07764556  1
  O  O605  1  0.08595131  0.51829901  0.32842975  1
  O  O606  1  0.08719005  0.51759891  0.57764614  1
  O  O607  1  0.08882295  0.51937597  0.82621951  1
  O  O608  1  0.08931684  0.85169799  0.07857737  1
  O  O609  1  0.08915084  0.85180069  0.32776885  1
  O  O610  1  0.08651109  0.85167796  0.57629363  1
  O  O611  1  0.08677984  0.85198639  0.82764501  1
  O  O612  1  0.58729005  0.18347362  0.07778817  1
  O  O613  1  0.58905050  0.18470252  0.32847666  1
  O  O614  1  0.58689505  0.18487696  0.57725224  1
  O  O615  1  0.58557539  0.18472357  0.82760575  1
  O  O616  1  0.58799815  0.51862483  0.07778617  1
  O  O617  1  0.58894653  0.51771213  0.32700118  1
  O  O618  1  0.58914858  0.51835413  0.57843181  1
  O  O619  1  0.58612862  0.51804881  0.82720293  1
  O  O620  1  0.58910497  0.85298546  0.07623633  1
  O  O621  1  0.58810945  0.85185963  0.32767379  1
  O  O622  1  0.58815151  0.85117052  0.57727977  1
  O  O623  1  0.58827954  0.85229362  0.82796916  1
  O  O624  1  0.33788597  0.18534060  0.04673876  1
  O  O625  1  0.33816268  0.18486199  0.29646435  1
  O  O626  1  0.33911533  0.18416828  0.54785560  1
  O  O627  1  0.33752425  0.18465920  0.79769888  1
  O  O628  1  0.33807805  0.51854145  0.04660924  1
  O  O629  1  0.33649901  0.51695037  0.29731468  1
  O  O630  1  0.33606909  0.51923545  0.54836620  1
  O  O631  1  0.33694556  0.51863041  0.79808437  1
  O  O632  1  0.33476443  0.85078699  0.04751476  1
  O  O633  1  0.33590784  0.85283942  0.29732830  1
  O  O634  1  0.33614335  0.85096146  0.54734946  1
  O  O635  1  0.33791689  0.85164063  0.79740811  1
  O  O636  1  0.83902394  0.18315511  0.04701505  1
  O  O637  1  0.83806911  0.18360865  0.29658973  1
  O  O638  1  0.83494459  0.18548502  0.54812474  1
  O  O639  1  0.83818003  0.18623396  0.79837198  1
  O  O640  1  0.83863293  0.51849639  0.04826430  1
  O  O641  1  0.83894774  0.51926851  0.29820614  1
  O  O642  1  0.83914857  0.51773469  0.54736024  1
  O  O643  1  0.83640685  0.51732201  0.79628080  1
  O  O644  1  0.83769825  0.85272251  0.04707761  1
  O  O645  1  0.83858479  0.85224277  0.29677096  1
  O  O646  1  0.83619038  0.85163531  0.54857002  1
  O  O647  1  0.83897614  0.85187787  0.79766920  1
  O  O648  1  0.16305494  0.14819179  0.20125540  1
  O  O649  1  0.16510262  0.14771379  0.45243043  1
  O  O650  1  0.16399237  0.14956535  0.70310834  1
  O  O651  1  0.16019789  0.14757297  0.95152797  1
  O  O652  1  0.16313279  0.48128391  0.20139075  1
  O  O653  1  0.16235076  0.48306192  0.45378267  1
  O  O654  1  0.16127481  0.48159811  0.70268754  1
  O  O655  1  0.16274215  0.48173075  0.95250797  1
  O  O656  1  0.16110659  0.81542576  0.20286041  1
  O  O657  1  0.16344822  0.81509259  0.45342038  1
  O  O658  1  0.16306956  0.81413320  0.70264903  1
  O  O659  1  0.16189907  0.81586002  0.95243780  1
  O  O660  1  0.66291002  0.14774980  0.20137774  1
  O  O661  1  0.66018810  0.14844894  0.45290052  1
  O  O662  1  0.66050803  0.14877171  0.70279821  1
  O  O663  1  0.66272493  0.14762787  0.95176908  1
  O  O664  1  0.66276623  0.48314219  0.20336205  1
  O  O665  1  0.66205495  0.48081759  0.45198139  1
  O  O666  1  0.66317845  0.48236162  0.70179688  1
  O  O667  1  0.66341317  0.48174157  0.95247656  1
  O  O668  1  0.66463068  0.81387358  0.20231268  1
  O  O669  1  0.66430268  0.81597926  0.45299882  1
  O  O670  1  0.66092677  0.81362655  0.70168816  1
  O  O671  1  0.66352236  0.81634396  0.95236527  1
