# generated using pymatgen
data_Na2MnFe(PO4)2
_symmetry_space_group_name_H-M   'P 1'
_cell_length_a   21.09248424
_cell_length_b   18.94598566
_cell_length_c   20.05023529
_cell_angle_alpha   90.00004693
_cell_angle_beta   89.99466790
_cell_angle_gamma   90.00084828
_symmetry_Int_Tables_number   1
_chemical_formula_structural   Na2MnFe(PO4)2
_chemical_formula_sum   'Na96 Mn48 Fe48 P96 O384'
_cell_volume   8012.43296336
_cell_formula_units_Z   48
loop_
 _symmetry_equiv_pos_site_id
 _symmetry_equiv_pos_as_xyz
  1  'x, y, z'
loop_
 _atom_site_type_symbol
 _atom_site_label
 _atom_site_symmetry_multiplicity
 _atom_site_fract_x
 _atom_site_fract_y
 _atom_site_fract_z
 _atom_site_occupancy
  Na  Na0  1  0.00289863  0.00083322  0.00015624  1
  Na  Na1  1  0.00211133  0.00031860  0.25031729  1
  Na  Na2  1  0.00089627  -0.00042103  0.49970090  1
  Na  Na3  1  0.00251177  0.00046960  0.74960069  1
  Na  Na4  1  0.00063593  0.33355015  -0.00004648  1
  Na  Na5  1  0.00231415  0.33380163  0.25011358  1
  Na  Na6  1  0.00290826  0.33410677  0.50085671  1
  Na  Na7  1  0.00094736  0.33410379  0.74968363  1
  Na  Na8  1  0.00076271  0.66612881  0.00080632  1
  Na  Na9  1  0.00120865  0.66580607  0.24984751  1
  Na  Na10  1  0.00097624  0.66655136  0.49931026  1
  Na  Na11  1  -0.00054218  0.66575245  0.75052655  1
  Na  Na12  1  0.49840387  0.00001701  -0.00016969  1
  Na  Na13  1  0.49890295  -0.00023275  0.25136239  1
  Na  Na14  1  0.50076001  0.00066273  0.50017901  1
  Na  Na15  1  0.49926138  0.00025914  0.74856019  1
  Na  Na16  1  0.49705288  0.33280547  0.00098331  1
  Na  Na17  1  0.49883292  0.33332265  0.25078477  1
  Na  Na18  1  0.49992197  0.33377969  0.49859056  1
  Na  Na19  1  0.50096981  0.33457340  0.74885435  1
  Na  Na20  1  0.50140921  0.66711657  -0.00055230  1
  Na  Na21  1  0.50085606  0.66671296  0.24965446  1
  Na  Na22  1  0.50292065  0.66680771  0.50078135  1
  Na  Na23  1  0.50241452  0.66638010  0.74997003  1
  Na  Na24  1  0.24950898  -0.00093531  0.12383858  1
  Na  Na25  1  0.24876864  -0.00002326  0.37466936  1
  Na  Na26  1  0.24852718  0.00005760  0.62615397  1
  Na  Na27  1  0.24900847  -0.00044163  0.87548335  1
  Na  Na28  1  0.25151080  0.33433637  0.12443579  1
  Na  Na29  1  0.24884676  0.33358584  0.37494716  1
  Na  Na30  1  0.24705670  0.33312582  0.62548315  1
  Na  Na31  1  0.24962823  0.33367243  0.87535827  1
  Na  Na32  1  0.24955230  0.66513151  0.12439557  1
  Na  Na33  1  0.24883628  0.66611334  0.37613429  1
  Na  Na34  1  0.24829088  0.66553401  0.62446169  1
  Na  Na35  1  0.25234794  0.66699741  0.87423831  1
  Na  Na36  1  0.74962335  0.00095625  0.12530691  1
  Na  Na37  1  0.74851668  -0.00037110  0.37489668  1
  Na  Na38  1  0.75007368  0.00015593  0.62615412  1
  Na  Na39  1  0.74864352  -0.00045209  0.87383066  1
  Na  Na40  1  0.74956777  0.33278438  0.12381060  1
  Na  Na41  1  0.74931549  0.33286954  0.37594129  1
  Na  Na42  1  0.74976646  0.33341916  0.62513073  1
  Na  Na43  1  0.75092782  0.33388616  0.87504766  1
  Na  Na44  1  0.74720739  0.66603295  0.12436208  1
  Na  Na45  1  0.74882468  0.66676126  0.37516609  1
  Na  Na46  1  0.74833425  0.66567977  0.62614088  1
  Na  Na47  1  0.74820109  0.66565845  0.87464289  1
  Na  Na48  1  0.00193099  0.16682753  0.00077936  1
  Na  Na49  1  0.00174939  0.16722624  0.25023370  1
  Na  Na50  1  0.00137066  0.16730844  0.50049653  1
  Na  Na51  1  0.00225836  0.16630811  0.74930006  1
  Na  Na52  1  0.00236809  0.49940132  -0.00037730  1
  Na  Na53  1  0.00329842  0.49942720  0.24984949  1
  Na  Na54  1  0.00129206  0.49975542  0.49952619  1
  Na  Na55  1  -0.00029986  0.50037827  0.75062936  1
  Na  Na56  1  -0.00041938  0.83391555  0.00048155  1
  Na  Na57  1  0.00052656  0.83350604  0.25022222  1
  Na  Na58  1  0.00147903  0.83321145  0.49969203  1
  Na  Na59  1  0.00113056  0.83295181  0.74987898  1
  Na  Na60  1  0.49857693  0.16760386  0.00049551  1
  Na  Na61  1  0.50078244  0.16670136  0.25081889  1
  Na  Na62  1  0.50145326  0.16634617  0.49993661  1
  Na  Na63  1  0.49984395  0.16702120  0.74836081  1
  Na  Na64  1  0.49971884  0.49956120  0.00016889  1
  Na  Na65  1  0.49687039  0.50048728  0.25050828  1
  Na  Na66  1  0.50023205  0.49935347  0.50004251  1
  Na  Na67  1  0.50097055  0.49964453  0.74929892  1
  Na  Na68  1  0.49786497  0.83372035  -0.00039277  1
  Na  Na69  1  0.50133428  0.83234712  0.25070663  1
  Na  Na70  1  0.50260703  0.83247179  0.49939141  1
  Na  Na71  1  0.50146638  0.83243347  0.74973078  1
  Na  Na72  1  0.24912311  0.16765379  0.12364485  1
  Na  Na73  1  0.24849824  0.16742643  0.37479155  1
  Na  Na74  1  0.24756848  0.16740878  0.62604994  1
  Na  Na75  1  0.24953949  0.16678002  0.87558920  1
  Na  Na76  1  0.24995663  0.50012488  0.12461079  1
  Na  Na77  1  0.24957387  0.49947373  0.37578162  1
  Na  Na78  1  0.24875384  0.49984525  0.62530145  1
  Na  Na79  1  0.25029846  0.49981454  0.87464130  1
  Na  Na80  1  0.25240108  0.83259197  0.12415574  1
  Na  Na81  1  0.24792247  0.83429084  0.37537705  1
  Na  Na82  1  0.24730903  0.83438742  0.62464457  1
  Na  Na83  1  0.25116880  0.83317147  0.87491848  1
  Na  Na84  1  0.74937124  0.16751613  0.12448991  1
  Na  Na85  1  0.74908937  0.16729748  0.37507966  1
  Na  Na86  1  0.74909110  0.16747196  0.62527368  1
  Na  Na87  1  0.75058728  0.16694998  0.87467609  1
  Na  Na88  1  0.74789983  0.50035946  0.12404484  1
  Na  Na89  1  0.74981607  0.49979656  0.37554132  1
  Na  Na90  1  0.74983197  0.50019920  0.62597104  1
  Na  Na91  1  0.74883861  0.50024561  0.87412846  1
  Na  Na92  1  0.74860211  0.83300363  0.12502462  1
  Na  Na93  1  0.74763369  0.83351484  0.37545497  1
  Na  Na94  1  0.74919393  0.83304434  0.62621553  1
  Na  Na95  1  0.74904348  0.83310373  0.87470139  1
  Mn  Mn96  1  0.85678384  0.75003565  0.00212691  1
  Mn  Mn97  1  0.14333111  0.91524755  0.99757247  1
  Mn  Mn98  1  0.85741675  0.08287502  0.50203217  1
  Mn  Mn99  1  0.35740871  0.75012587  0.50281148  1
  Mn  Mn100  1  0.60646273  0.41669692  0.12299660  1
  Mn  Mn101  1  0.60782520  0.08360836  0.62213932  1
  Mn  Mn102  1  0.64118209  0.58211293  0.24794998  1
  Mn  Mn103  1  0.64138949  0.91749707  0.24728843  1
  Mn  Mn104  1  0.14184390  0.58368486  0.74780990  1
  Mn  Mn105  1  0.64077502  0.91684131  0.99733956  1
  Mn  Mn106  1  0.39201151  0.58341103  0.12726403  1
  Mn  Mn107  1  0.85773851  0.74938039  0.75223949  1
  Mn  Mn108  1  0.35804824  0.08346246  0.00191238  1
  Mn  Mn109  1  0.85848413  0.41648105  0.25181859  1
  Mn  Mn110  1  0.89291154  0.91704003  0.87770091  1
  Mn  Mn111  1  0.89278932  0.58255488  0.37701624  1
  Mn  Mn112  1  0.85833073  0.08304059  0.00159329  1
  Mn  Mn113  1  0.35671977  0.08350062  0.75229865  1
  Mn  Mn114  1  0.39164168  0.24985115  0.37769928  1
  Mn  Mn115  1  0.35759109  0.41634777  0.75185111  1
  Mn  Mn116  1  0.35792319  0.74927567  0.25283671  1
  Mn  Mn117  1  0.14298831  0.25081672  0.99721049  1
  Mn  Mn118  1  0.85779827  0.41701027  0.00198891  1
  Mn  Mn119  1  0.85877135  0.08399729  0.75245003  1
  Mn  Mn120  1  0.39210870  0.91621999  0.37792449  1
  Mn  Mn121  1  0.39179172  0.25042992  0.62652250  1
  Mn  Mn122  1  0.85796722  0.41691459  0.50211761  1
  Mn  Mn123  1  0.64203465  0.25068209  0.74852623  1
  Mn  Mn124  1  0.64120063  0.25033986  0.99707107  1
  Mn  Mn125  1  0.85690657  0.74980841  0.25184313  1
  Mn  Mn126  1  0.10850520  0.08394680  0.37260447  1
  Mn  Mn127  1  0.85812417  0.08376114  0.25222774  1
  Mn  Mn128  1  0.60719099  0.08296975  0.12247112  1
  Mn  Mn129  1  0.35692110  0.08368447  0.25230146  1
  Mn  Mn130  1  0.39297436  0.58359367  0.62649250  1
  Mn  Mn131  1  0.85713739  0.74999880  0.50232131  1
  Mn  Mn132  1  0.89235719  0.91707995  0.37750533  1
  Mn  Mn133  1  0.10884099  0.74992078  0.12236173  1
  Mn  Mn134  1  0.39204420  0.91602453  0.62642060  1
  Mn  Mn135  1  0.89270582  0.58307030  0.12680426  1
  Mn  Mn136  1  0.60698222  0.41656231  0.37246514  1
  Mn  Mn137  1  0.89314697  0.25003108  0.62712036  1
  Mn  Mn138  1  0.89312607  0.25021233  0.12745037  1
  Mn  Mn139  1  0.64158649  0.91657258  0.74774884  1
  Mn  Mn140  1  0.35810545  0.75009983  0.75111988  1
  Mn  Mn141  1  0.10831055  0.74947964  0.37218162  1
  Mn  Mn142  1  0.89252788  0.91694823  0.12720108  1
  Mn  Mn143  1  0.10840756  0.74985896  0.87284099  1
  Fe  Fe144  1  0.60805222  0.41668326  0.62267153  1
  Fe  Fe145  1  0.60698873  0.74979642  0.37337922  1
  Fe  Fe146  1  0.39223251  0.24930751  0.12771261  1
  Fe  Fe147  1  0.64279992  0.91690844  0.49853903  1
  Fe  Fe148  1  0.60661968  0.41613514  0.87342042  1
  Fe  Fe149  1  0.14288078  0.25019344  0.24772549  1
  Fe  Fe150  1  0.39191499  0.58371529  0.37742904  1
  Fe  Fe151  1  0.14228133  0.91694867  0.49857994  1
  Fe  Fe152  1  0.14267322  0.25000347  0.49809677  1
  Fe  Fe153  1  0.10794831  0.08377258  0.87324511  1
  Fe  Fe154  1  0.39208363  0.25037490  0.87571929  1
  Fe  Fe155  1  0.10682481  0.41748651  0.62337956  1
  Fe  Fe156  1  0.35863767  0.74901095  0.00121127  1
  Fe  Fe157  1  0.14217689  0.58304982  0.49830529  1
  Fe  Fe158  1  0.64270381  0.24995273  0.49766551  1
  Fe  Fe159  1  0.39253137  0.91698817  0.12730383  1
  Fe  Fe160  1  0.89268794  0.58382466  0.62622438  1
  Fe  Fe161  1  0.89262422  0.58290676  0.87735194  1
  Fe  Fe162  1  0.60646548  0.75026348  0.12285440  1
  Fe  Fe163  1  0.10821125  0.08355318  0.12345255  1
  Fe  Fe164  1  0.89389651  0.25019209  0.87618834  1
  Fe  Fe165  1  0.60716898  0.08319231  0.37346305  1
  Fe  Fe166  1  0.10884144  0.41652337  0.12267140  1
  Fe  Fe167  1  0.89346742  0.25028746  0.37653649  1
  Fe  Fe168  1  0.10758004  0.08291960  0.62262700  1
  Fe  Fe169  1  0.14362941  0.58339443  0.24802599  1
  Fe  Fe170  1  0.35740457  0.41738820  0.00104725  1
  Fe  Fe171  1  0.89335940  0.91618259  0.62644620  1
  Fe  Fe172  1  0.14202595  0.24981556  0.74878482  1
  Fe  Fe173  1  0.10734027  0.41647080  0.87323740  1
  Fe  Fe174  1  0.35594095  0.41674328  0.25172142  1
  Fe  Fe175  1  0.64163293  0.58275735  0.99725133  1
  Fe  Fe176  1  0.10814259  0.41649804  0.37290385  1
  Fe  Fe177  1  0.14236780  0.91647937  0.74817886  1
  Fe  Fe178  1  0.85763227  0.41690605  0.75176234  1
  Fe  Fe179  1  0.14299024  0.91655651  0.24741521  1
  Fe  Fe180  1  0.60636787  0.75025470  0.87361171  1
  Fe  Fe181  1  0.39364848  0.58295175  0.87630875  1
  Fe  Fe182  1  0.64278479  0.25034951  0.24842917  1
  Fe  Fe183  1  0.60652851  0.08388909  0.87371313  1
  Fe  Fe184  1  0.35673378  0.08388777  0.50140881  1
  Fe  Fe185  1  0.10704545  0.74959798  0.62349040  1
  Fe  Fe186  1  0.60818380  0.74977136  0.62276678  1
  Fe  Fe187  1  0.39235854  0.91670517  0.87563156  1
  Fe  Fe188  1  0.64278472  0.58238642  0.74839052  1
  Fe  Fe189  1  0.35582485  0.41616323  0.50186593  1
  Fe  Fe190  1  0.14381151  0.58358845  0.99776802  1
  Fe  Fe191  1  0.64284535  0.58304010  0.49801544  1
  P  P192  1  0.05585379  0.25044054  0.11126298  1
  P  P193  1  0.05504209  0.25093894  0.36061271  1
  P  P194  1  0.05579139  0.25025814  0.61099391  1
  P  P195  1  0.05344338  0.25055452  0.85943568  1
  P  P196  1  0.05642075  0.58236398  0.11019794  1
  P  P197  1  0.05583463  0.58209748  0.36035162  1
  P  P198  1  0.05266810  0.58332390  0.61003257  1
  P  P199  1  0.05374158  0.58270811  0.86138750  1
  P  P200  1  0.05528159  0.91722256  0.11088331  1
  P  P201  1  0.05564834  0.91687250  0.36025387  1
  P  P202  1  0.05426914  0.91636003  0.61071518  1
  P  P203  1  0.05449368  0.91701746  0.85951160  1
  P  P204  1  0.55262998  0.25026459  0.11139742  1
  P  P205  1  0.55469384  0.24933979  0.36065420  1
  P  P206  1  0.55415274  0.25134597  0.60883608  1
  P  P207  1  0.55122339  0.25045658  0.86000506  1
  P  P208  1  0.55346718  0.58362300  0.10932760  1
  P  P209  1  0.55258464  0.58345714  0.36136745  1
  P  P210  1  0.55596988  0.58265940  0.61073371  1
  P  P211  1  0.55403221  0.58260197  0.86063694  1
  P  P212  1  0.55133626  0.91621159  0.11000159  1
  P  P213  1  0.55457799  0.91680127  0.36162977  1
  P  P214  1  0.55398741  0.91602596  0.60913547  1
  P  P215  1  0.55156596  0.91709754  0.85988920  1
  P  P216  1  0.44603530  0.08338445  0.14045002  1
  P  P217  1  0.44676018  0.08357865  0.39085772  1
  P  P218  1  0.44479026  0.08362970  0.63839889  1
  P  P219  1  0.44714986  0.08382206  0.88909955  1
  P  P220  1  0.44378881  0.41600454  0.13984322  1
  P  P221  1  0.44340213  0.41741825  0.38938118  1
  P  P222  1  0.44653752  0.41677576  0.63820423  1
  P  P223  1  0.44693965  0.41677572  0.88983106  1
  P  P224  1  0.44636113  0.75032497  0.13900145  1
  P  P225  1  0.44748072  0.74886957  0.39042310  1
  P  P226  1  0.44870096  0.74967487  0.63960908  1
  P  P227  1  0.44702748  0.74944429  0.88936786  1
  P  P228  1  0.94863908  0.08357064  0.14014408  1
  P  P229  1  0.94728232  0.08476519  0.39020727  1
  P  P230  1  0.94816886  0.08247917  0.63935437  1
  P  P231  1  0.94892375  0.08445948  0.88976323  1
  P  P232  1  0.94903267  0.41696606  0.13984439  1
  P  P233  1  0.94851233  0.41548133  0.38984347  1
  P  P234  1  0.94713769  0.41763559  0.64023753  1
  P  P235  1  0.94662198  0.41660762  0.88857685  1
  P  P236  1  0.94706449  0.74966913  0.14014142  1
  P  P237  1  0.94668477  0.74973898  0.38991262  1
  P  P238  1  0.94771253  0.74988718  0.63950193  1
  P  P239  1  0.94683020  0.74899720  0.89032631  1
  P  P240  1  0.19608342  0.08357376  0.23419566  1
  P  P241  1  0.19624895  0.08349862  0.48631411  1
  P  P242  1  0.19402818  0.08340571  0.73616857  1
  P  P243  1  0.19539538  0.08328485  0.98536799  1
  P  P244  1  0.19610629  0.41681839  0.23560389  1
  P  P245  1  0.19503738  0.41671858  0.48615675  1
  P  P246  1  0.19435002  0.41614408  0.73580410  1
  P  P247  1  0.19651167  0.41772645  0.98524271  1
  P  P248  1  0.19729589  0.74971129  0.23479570  1
  P  P249  1  0.19482266  0.74992256  0.48658299  1
  P  P250  1  0.19615403  0.75052222  0.73419625  1
  P  P251  1  0.19912742  0.74879287  0.98464649  1
  P  P252  1  0.69534873  0.08484289  0.23592336  1
  P  P253  1  0.69593245  0.08330381  0.48467937  1
  P  P254  1  0.69529648  0.08393624  0.73621518  1
  P  P255  1  0.69588612  0.08363221  0.98364802  1
  P  P256  1  0.69661900  0.41539579  0.23461100  1
  P  P257  1  0.69537723  0.41691569  0.48629708  1
  P  P258  1  0.69583148  0.41710452  0.73588033  1
  P  P259  1  0.69531846  0.41706360  0.98396306  1
  P  P260  1  0.69373253  0.74969572  0.23517806  1
  P  P261  1  0.69451854  0.74967940  0.48607696  1
  P  P262  1  0.69414746  0.74883350  0.73622933  1
  P  P263  1  0.69380328  0.74927505  0.98512491  1
  P  P264  1  0.30597395  0.25119799  0.01382385  1
  P  P265  1  0.30274203  0.25058951  0.26389202  1
  P  P266  1  0.30146867  0.25022330  0.51487954  1
  P  P267  1  0.30189538  0.25020521  0.76540248  1
  P  P268  1  0.30451345  0.58293762  0.01305109  1
  P  P269  1  0.30270592  0.58258007  0.26578923  1
  P  P270  1  0.30282613  0.58237557  0.51408108  1
  P  P271  1  0.30420536  0.58312925  0.76514116  1
  P  P272  1  0.30635630  0.91575685  0.01391228  1
  P  P273  1  0.30317867  0.91668947  0.26409030  1
  P  P274  1  0.30164411  0.91765462  0.51498891  1
  P  P275  1  0.30232018  0.91663388  0.76510047  1
  P  P276  1  0.80475847  0.24995156  0.01364805  1
  P  P277  1  0.80312469  0.25037202  0.26572814  1
  P  P278  1  0.80344899  0.24999952  0.51402347  1
  P  P279  1  0.80458056  0.25127765  0.76536706  1
  P  P280  1  0.80264281  0.58318307  0.01372479  1
  P  P281  1  0.80279150  0.58302193  0.26499072  1
  P  P282  1  0.80266106  0.58340051  0.51582999  1
  P  P283  1  0.80457366  0.58242656  0.76432849  1
  P  P284  1  0.80245985  0.91688749  0.01514592  1
  P  P285  1  0.80285623  0.91663712  0.26526323  1
  P  P286  1  0.80239710  0.91647725  0.51596318  1
  P  P287  1  0.80482327  0.91638672  0.76399930  1
  O  O288  1  0.05969660  0.25065640  0.18777187  1
  O  O289  1  0.05949173  0.25012898  0.43740319  1
  O  O290  1  0.05900163  0.25017255  0.68774745  1
  O  O291  1  0.05688882  0.25076947  0.93664716  1
  O  O292  1  0.06064517  0.58323792  0.18696220  1
  O  O293  1  0.05963335  0.58301637  0.43719589  1
  O  O294  1  0.05591159  0.58334995  0.68644274  1
  O  O295  1  0.05922117  0.58348208  0.93808045  1
  O  O296  1  0.05935212  0.91614789  0.18764356  1
  O  O297  1  0.05988058  0.91688263  0.43711440  1
  O  O298  1  0.05856923  0.91636263  0.68737043  1
  O  O299  1  0.05762457  0.91599231  0.93631942  1
  O  O300  1  0.55784405  0.25060436  0.18801031  1
  O  O301  1  0.55912154  0.25030353  0.43738358  1
  O  O302  1  0.55701860  0.25086592  0.68574183  1
  O  O303  1  0.55427236  0.25056612  0.93660740  1
  O  O304  1  0.55598341  0.58236613  0.18614899  1
  O  O305  1  0.55773622  0.58251095  0.43793990  1
  O  O306  1  0.55943208  0.58222829  0.68754344  1
  O  O307  1  0.55779560  0.58242967  0.93734607  1
  O  O308  1  0.55508534  0.91679451  0.18671559  1
  O  O309  1  0.55871830  0.91714809  0.43827850  1
  O  O310  1  0.55649577  0.91689043  0.68598495  1
  O  O311  1  0.55454303  0.91708226  0.93654594  1
  O  O312  1  0.44334237  0.08374114  0.06369116  1
  O  O313  1  0.44238186  0.08380163  0.31416672  1
  O  O314  1  0.44002351  0.08387128  0.56170244  1
  O  O315  1  0.44383222  0.08386550  0.81235023  1
  O  O316  1  0.44028116  0.41705536  0.06309742  1
  O  O317  1  0.43899404  0.41662060  0.31264269  1
  O  O318  1  0.44064793  0.41641694  0.56166280  1
  O  O319  1  0.44379531  0.41698459  0.81301144  1
  O  O320  1  0.44185668  0.74924196  0.06232758  1
  O  O321  1  0.44370717  0.74928922  0.31368658  1
  O  O322  1  0.44418894  0.74969572  0.56299001  1
  O  O323  1  0.44398333  0.74917592  0.81265953  1
  O  O324  1  0.94465639  0.08345130  0.06343381  1
  O  O325  1  0.94419942  0.08411515  0.31339709  1
  O  O326  1  0.94403509  0.08305900  0.56271033  1
  O  O327  1  0.94518137  0.08380142  0.81312130  1
  O  O328  1  0.94442358  0.41708682  0.06313843  1
  O  O329  1  0.94489222  0.41619403  0.31322740  1
  O  O330  1  0.94362606  0.41691147  0.56346386  1
  O  O331  1  0.94199853  0.41707962  0.81203026  1
  O  O332  1  0.94326308  0.74968940  0.06335881  1
  O  O333  1  0.94316442  0.74965763  0.31322644  1
  O  O334  1  0.94406548  0.74995488  0.56280923  1
  O  O335  1  0.94370349  0.74923399  0.81358162  1
  O  O336  1  0.19145833  0.08351821  0.06206385  1
  O  O337  1  0.19368259  0.08386179  0.31073260  1
  O  O338  1  0.19187899  0.08326336  0.56312165  1
  O  O339  1  0.19065762  0.08364534  0.81303207  1
  O  O340  1  0.19246180  0.41678926  0.06192812  1
  O  O341  1  0.19209861  0.41637959  0.31231300  1
  O  O342  1  0.19053815  0.41730564  0.56285247  1
  O  O343  1  0.19047872  0.41695948  0.81261573  1
  O  O344  1  0.19515596  0.74937795  0.06127289  1
  O  O345  1  0.19432032  0.74994340  0.31158004  1
  O  O346  1  0.19056163  0.74954797  0.56330416  1
  O  O347  1  0.19377932  0.74963187  0.81099540  1
  O  O348  1  0.69250108  0.08383905  0.06046004  1
  O  O349  1  0.69099088  0.08364628  0.31261976  1
  O  O350  1  0.69368680  0.08346316  0.56145494  1
  O  O351  1  0.68999155  0.08385979  0.81288375  1
  O  O352  1  0.69178727  0.41614574  0.06065558  1
  O  O353  1  0.69332252  0.41625427  0.31155885  1
  O  O354  1  0.69211030  0.41677008  0.56298103  1
  O  O355  1  0.69063174  0.41620691  0.81250078  1
  O  O356  1  0.68969164  0.75032559  0.06190767  1
  O  O357  1  0.68960867  0.74963334  0.31202352  1
  O  O358  1  0.69150566  0.74973007  0.56295432  1
  O  O359  1  0.68960154  0.74998681  0.81297680  1
  O  O360  1  0.30752658  0.24981261  0.18718887  1
  O  O361  1  0.30504737  0.25017363  0.43837055  1
  O  O362  1  0.30579133  0.25043463  0.68873424  1
  O  O363  1  0.30977731  0.25019895  0.93721004  1
  O  O364  1  0.30639536  0.58347737  0.18903402  1
  O  O365  1  0.30759399  0.58342075  0.43749740  1
  O  O366  1  0.30743366  0.58288230  0.68827024  1
  O  O367  1  0.30944497  0.58298698  0.93645305  1
  O  O368  1  0.30850503  0.91650812  0.18741476  1
  O  O369  1  0.30557217  0.91685480  0.43829320  1
  O  O370  1  0.30627163  0.91664052  0.68840582  1
  O  O371  1  0.31034083  0.91676642  0.93710449  1
  O  O372  1  0.80714726  0.25037376  0.18899311  1
  O  O373  1  0.80893478  0.25024235  0.43744347  1
  O  O374  1  0.80757878  0.25041772  0.68859707  1
  O  O375  1  0.81012775  0.24998473  0.93697273  1
  O  O376  1  0.80616117  0.58301163  0.18824017  1
  O  O377  1  0.80699592  0.58334491  0.43913825  1
  O  O378  1  0.80965967  0.58332455  0.68766185  1
  O  O379  1  0.80823549  0.58296128  0.93707224  1
  O  O380  1  0.80642795  0.91679953  0.18850485  1
  O  O381  1  0.80635778  0.91640218  0.43923263  1
  O  O382  1  0.80982423  0.91643193  0.68729644  1
  O  O383  1  0.80626497  0.91692916  0.93833834  1
  O  O384  1  0.23557650  0.25103845  0.03776890  1
  O  O385  1  0.23237677  0.25038422  0.28753895  1
  O  O386  1  0.23144627  0.25053481  0.53972358  1
  O  O387  1  0.23178561  0.25001498  0.78971268  1
  O  O388  1  0.23430076  0.58269536  0.03710319  1
  O  O389  1  0.23255654  0.58285073  0.28999793  1
  O  O390  1  0.23242602  0.58248231  0.53779808  1
  O  O391  1  0.23443913  0.58330870  0.78965238  1
  O  O392  1  0.23623176  0.91594926  0.03779386  1
  O  O393  1  0.23278197  0.91706590  0.28735547  1
  O  O394  1  0.23158348  0.91716846  0.53943738  1
  O  O395  1  0.23222531  0.91657008  0.78933521  1
  O  O396  1  0.73449234  0.25023487  0.03687387  1
  O  O397  1  0.73299549  0.25020629  0.28990513  1
  O  O398  1  0.73298726  0.25008002  0.53727630  1
  O  O399  1  0.73472060  0.25060949  0.79024207  1
  O  O400  1  0.73212702  0.58298061  0.03665254  1
  O  O401  1  0.73307056  0.58282966  0.29003237  1
  O  O402  1  0.73247947  0.58319395  0.53968192  1
  O  O403  1  0.73392210  0.58272591  0.78727843  1
  O  O404  1  0.73266951  0.91706986  0.03980512  1
  O  O405  1  0.73303168  0.91661365  0.28980836  1
  O  O406  1  0.73222111  0.91662168  0.54007900  1
  O  O407  1  0.73453958  0.91611815  0.78748094  1
  O  O408  1  0.26565054  0.08347668  0.20833098  1
  O  O409  1  0.26628111  0.08373447  0.46161321  1
  O  O410  1  0.26396680  0.08358408  0.71165143  1
  O  O411  1  0.26537890  0.08334017  0.96129838  1
  O  O412  1  0.26638589  0.41703111  0.21138879  1
  O  O413  1  0.26534811  0.41642550  0.46225820  1
  O  O414  1  0.26440444  0.41679061  0.71155789  1
  O  O415  1  0.26671664  0.41698784  0.96129875  1
  O  O416  1  0.26687381  0.74918079  0.20935913  1
  O  O417  1  0.26477269  0.75016944  0.46208905  1
  O  O418  1  0.26572092  0.74992087  0.70850207  1
  O  O419  1  0.26915580  0.74956085  0.96017269  1
  O  O420  1  0.76527736  0.08462625  0.21146456  1
  O  O421  1  0.76550275  0.08339921  0.45898969  1
  O  O422  1  0.76546501  0.08426996  0.71267182  1
  O  O423  1  0.76566210  0.08331281  0.95884069  1
  O  O424  1  0.76607194  0.41618907  0.20910385  1
  O  O425  1  0.76518083  0.41680480  0.46131035  1
  O  O426  1  0.76626935  0.41686957  0.71246968  1
  O  O427  1  0.76521483  0.41705825  0.95943489  1
  O  O428  1  0.76371348  0.74958841  0.21098562  1
  O  O429  1  0.76432573  0.74975410  0.46106442  1
  O  O430  1  0.76431975  0.74915939  0.71245253  1
  O  O431  1  0.76378216  0.74950513  0.96077572  1
  O  O432  1  0.01870151  0.08371373  0.16450577  1
  O  O433  1  0.01685551  0.08407460  0.41523389  1
  O  O434  1  0.01841314  0.08304754  0.66329610  1
  O  O435  1  0.01903938  0.08410977  0.91429955  1
  O  O436  1  0.01922585  0.41674575  0.16365512  1
  O  O437  1  0.01850880  0.41621004  0.41450473  1
  O  O438  1  0.01736388  0.41727423  0.66435671  1
  O  O439  1  0.01700918  0.41652627  0.91257460  1
  O  O440  1  0.01689782  0.74948261  0.16467104  1
  O  O441  1  0.01655649  0.74971483  0.41441936  1
  O  O442  1  0.01773848  0.74953200  0.66428308  1
  O  O443  1  0.01655876  0.74972465  0.91544811  1
  O  O444  1  0.51551476  0.08331048  0.16605320  1
  O  O445  1  0.51707329  0.08355941  0.41441944  1
  O  O446  1  0.51493934  0.08366559  0.66193614  1
  O  O447  1  0.51692675  0.08385919  0.91460607  1
  O  O448  1  0.51370874  0.41688892  0.16445959  1
  O  O449  1  0.51379225  0.41650656  0.41274451  1
  O  O450  1  0.51700751  0.41705722  0.66118840  1
  O  O451  1  0.51689296  0.41655684  0.91479663  1
  O  O452  1  0.51655953  0.74977671  0.16302382  1
  O  O453  1  0.51757419  0.74945780  0.41462779  1
  O  O454  1  0.51878685  0.74954770  0.66367659  1
  O  O455  1  0.51712532  0.74989361  0.91409439  1
  O  O456  1  0.48223238  0.25003807  0.08806736  1
  O  O457  1  0.48454627  0.25008626  0.33708674  1
  O  O458  1  0.48442859  0.25046899  0.58381124  1
  O  O459  1  0.48145443  0.25082415  0.83434266  1
  O  O460  1  0.48375288  0.58334604  0.08428561  1
  O  O461  1  0.48233977  0.58341505  0.33745245  1
  O  O462  1  0.48601628  0.58283369  0.58610656  1
  O  O463  1  0.48375605  0.58274838  0.83631917  1
  O  O464  1  0.48140508  0.91672531  0.08533944  1
  O  O465  1  0.48457830  0.91636458  0.33718212  1
  O  O466  1  0.48436887  0.91636229  0.58374387  1
  O  O467  1  0.48167446  0.91639878  0.83448223  1
  O  O468  1  0.98608314  0.25044186  0.08640542  1
  O  O469  1  0.98484898  0.25049547  0.33657792  1
  O  O470  1  0.98585418  0.25057071  0.58629344  1
  O  O471  1  0.98360390  0.25049737  0.83474106  1
  O  O472  1  0.98633049  0.58279107  0.08619205  1
  O  O473  1  0.98589203  0.58258934  0.33605274  1
  O  O474  1  0.98258746  0.58320464  0.58496094  1
  O  O475  1  0.98333661  0.58263081  0.83803483  1
  O  O476  1  0.98542902  0.91727452  0.08631239  1
  O  O477  1  0.98549970  0.91693845  0.33655476  1
  O  O478  1  0.98398371  0.91644960  0.58649670  1
  O  O479  1  0.98478728  0.91662281  0.83450822  1
  O  O480  1  0.08960799  0.31554360  0.07802738  1
  O  O481  1  0.08855436  0.31617443  0.32784214  1
  O  O482  1  0.08961909  0.31538524  0.57837594  1
  O  O483  1  0.08750074  0.31550971  0.82713825  1
  O  O484  1  0.09039993  0.64708828  0.07668312  1
  O  O485  1  0.08992031  0.64673386  0.32700155  1
  O  O486  1  0.08680798  0.64822038  0.57717684  1
  O  O487  1  0.08676886  0.64766955  0.82768320  1
  O  O488  1  0.08916271  0.98235395  0.07856025  1
  O  O489  1  0.08931060  0.98178450  0.32736553  1
  O  O490  1  0.08786594  0.98144982  0.57745953  1
  O  O491  1  0.08847415  0.98225168  0.82749568  1
  O  O492  1  0.58551441  0.31527590  0.07758324  1
  O  O493  1  0.58847081  0.31417240  0.32707335  1
  O  O494  1  0.58803783  0.31652100  0.57665704  1
  O  O495  1  0.58556925  0.31549753  0.82757358  1
  O  O496  1  0.58755447  0.64881423  0.07743332  1
  O  O497  1  0.58611287  0.64847775  0.32850077  1
  O  O498  1  0.58974184  0.64785289  0.57821812  1
  O  O499  1  0.58774281  0.64763607  0.82781532  1
  O  O500  1  0.58526742  0.98113795  0.07718950  1
  O  O501  1  0.58770010  0.98212150  0.32841782  1
  O  O502  1  0.58850433  0.98086289  0.57673486  1
  O  O503  1  0.58521538  0.98229839  0.82733486  1
  O  O504  1  0.41188769  0.01810307  0.17241607  1
  O  O505  1  0.41295433  0.01860263  0.42370727  1
  O  O506  1  0.41149074  0.01848866  0.67148052  1
  O  O507  1  0.41315101  0.01866332  0.92139887  1
  O  O508  1  0.41032338  0.35072688  0.17249404  1
  O  O509  1  0.40962307  0.35268534  0.42286558  1
  O  O510  1  0.41356154  0.35177102  0.67203190  1
  O  O511  1  0.41254817  0.35195493  0.92212296  1
  O  O512  1  0.41292031  0.68535930  0.17251248  1
  O  O513  1  0.41385849  0.68385525  0.42319496  1
  O  O514  1  0.41507390  0.68468487  0.67248961  1
  O  O515  1  0.41361964  0.68423615  0.92240098  1
  O  O516  1  0.91481250  0.01866502  0.17303531  1
  O  O517  1  0.91286751  0.01983802  0.42267270  1
  O  O518  1  0.91474155  0.01745256  0.67226908  1
  O  O519  1  0.91516856  0.01943508  0.92273292  1
  O  O520  1  0.91540197  0.35195750  0.17273812  1
  O  O521  1  0.91500185  0.35025145  0.42256314  1
  O  O522  1  0.91318874  0.35276980  0.67318492  1
  O  O523  1  0.91354510  0.35130905  0.92165833  1
  O  O524  1  0.91316718  0.68450973  0.17254313  1
  O  O525  1  0.91286883  0.68465407  0.42258714  1
  O  O526  1  0.91372786  0.68483733  0.67209195  1
  O  O527  1  0.91303719  0.68373356  0.92265923  1
  O  O528  1  0.16171659  0.01850496  0.20195250  1
  O  O529  1  0.16274157  0.01856007  0.45328770  1
  O  O530  1  0.16048521  0.01818082  0.70334570  1
  O  O531  1  0.16165456  0.01850726  0.95238780  1
  O  O532  1  0.16280972  0.35192245  0.20199428  1
  O  O533  1  0.16170344  0.35157573  0.45300505  1
  O  O534  1  0.16100396  0.35083589  0.70328567  1
  O  O535  1  0.16255653  0.35285601  0.95181130  1
  O  O536  1  0.16310403  0.68450138  0.20284954  1
  O  O537  1  0.16153011  0.68466319  0.45356571  1
  O  O538  1  0.16136398  0.68580450  0.70183906  1
  O  O539  1  0.16562055  0.68365009  0.95190547  1
  O  O540  1  0.66167421  0.01994651  0.20244882  1
  O  O541  1  0.66169999  0.01808219  0.45261502  1
  O  O542  1  0.66211117  0.01881699  0.70290925  1
  O  O543  1  0.66136483  0.01874966  0.95131983  1
  O  O544  1  0.66273920  0.35004789  0.20264735  1
  O  O545  1  0.66138580  0.35202186  0.45340684  1
  O  O546  1  0.66231203  0.35234766  0.70206886  1
  O  O547  1  0.66128573  0.35218784  0.95084789  1
  O  O548  1  0.65983755  0.68480609  0.20227924  1
  O  O549  1  0.66065680  0.68443604  0.45344156  1
  O  O550  1  0.66098021  0.68341067  0.70363331  1
  O  O551  1  0.66018611  0.68403808  0.95252876  1
  O  O552  1  0.33918228  0.31636980  0.04657237  1
  O  O553  1  0.33582787  0.31565112  0.29704647  1
  O  O554  1  0.33526992  0.31534697  0.54771930  1
  O  O555  1  0.33576726  0.31518137  0.79820210  1
  O  O556  1  0.33765306  0.64801494  0.04657594  1
  O  O557  1  0.33665579  0.64738267  0.29901899  1
  O  O558  1  0.33615230  0.64731759  0.54771003  1
  O  O559  1  0.33859303  0.64810504  0.79729278  1
  O  O560  1  0.33973962  0.98078207  0.04738882  1
  O  O561  1  0.33644110  0.98166694  0.29747283  1
  O  O562  1  0.33511233  0.98284001  0.54746435  1
  O  O563  1  0.33615127  0.98153134  0.79809495  1
  O  O564  1  0.83808806  0.31502971  0.04702839  1
  O  O565  1  0.83693359  0.31542303  0.29860189  1
  O  O566  1  0.83666982  0.31496384  0.54760382  1
  O  O567  1  0.83827854  0.31669156  0.79741510  1
  O  O568  1  0.83552390  0.64823427  0.04731644  1
  O  O569  1  0.83665691  0.64803729  0.29764521  1
  O  O570  1  0.83625286  0.64842313  0.54896296  1
  O  O571  1  0.83779752  0.64718688  0.79827664  1
  O  O572  1  0.83662323  0.98191209  0.04756966  1
  O  O573  1  0.83672219  0.98179540  0.29782072  1
  O  O574  1  0.83642689  0.98142747  0.54866151  1
  O  O575  1  0.83785617  0.98160592  0.79725365  1
  O  O576  1  0.41183777  0.14846889  0.17287174  1
  O  O577  1  0.41298868  0.14850595  0.42385154  1
  O  O578  1  0.41146301  0.14863292  0.67173366  1
  O  O579  1  0.41308752  0.14880223  0.92159893  1
  O  O580  1  0.40956483  0.48074375  0.17297443  1
  O  O581  1  0.41054050  0.48270286  0.42253834  1
  O  O582  1  0.41338909  0.48168630  0.67185121  1
  O  O583  1  0.41309464  0.48188308  0.92259521  1
  O  O584  1  0.41321578  0.81552078  0.17203911  1
  O  O585  1  0.41357222  0.81391241  0.42313519  1
  O  O586  1  0.41499895  0.81474541  0.67237088  1
  O  O587  1  0.41280687  0.81433772  0.92172332  1
  O  O588  1  0.91496341  0.14869942  0.17280803  1
  O  O589  1  0.91360791  0.15019444  0.42232549  1
  O  O590  1  0.91453290  0.14754735  0.67233417  1
  O  O591  1  0.91540620  0.14966573  0.92227559  1
  O  O592  1  0.91552890  0.48196238  0.17286939  1
  O  O593  1  0.91427735  0.48032588  0.42269553  1
  O  O594  1  0.91338411  0.48272257  0.67274914  1
  O  O595  1  0.91335484  0.48151968  0.92236497  1
  O  O596  1  0.91325059  0.81480870  0.17262916  1
  O  O597  1  0.91291332  0.81480616  0.42266915  1
  O  O598  1  0.91406265  0.81495873  0.67228576  1
  O  O599  1  0.91247721  0.81404759  0.92253581  1
  O  O600  1  0.08965832  0.18530459  0.07839773  1
  O  O601  1  0.08893781  0.18632660  0.32718906  1
  O  O602  1  0.08941703  0.18515095  0.57800657  1
  O  O603  1  0.08764142  0.18563272  0.82730422  1
  O  O604  1  0.08992188  0.51711944  0.07744444  1
  O  O605  1  0.08935095  0.51673037  0.32798489  1
  O  O606  1  0.08676348  0.51822058  0.57731031  1
  O  O607  1  0.08698398  0.51772558  0.82816528  1
  O  O608  1  0.08883545  0.85221834  0.07743607  1
  O  O609  1  0.08929922  0.85190910  0.32710631  1
  O  O610  1  0.08766070  0.85129523  0.57754916  1
  O  O611  1  0.08893411  0.85223766  0.82677752  1
  O  O612  1  0.58593122  0.18536243  0.07789369  1
  O  O613  1  0.58790610  0.18402850  0.32794651  1
  O  O614  1  0.58883853  0.18653531  0.57658303  1
  O  O615  1  0.58520428  0.18539139  0.82748294  1
  O  O616  1  0.58783156  0.51885385  0.07656272  1
  O  O617  1  0.58564503  0.51832262  0.32756472  1
  O  O618  1  0.58963843  0.51778360  0.57748419  1
  O  O619  1  0.58751939  0.51755175  0.82737546  1
  O  O620  1  0.58488109  0.85107954  0.07738363  1
  O  O621  1  0.58814644  0.85162848  0.32890382  1
  O  O622  1  0.58828068  0.85084721  0.57744964  1
  O  O623  1  0.58601164  0.85212597  0.82770593  1
  O  O624  1  0.33926726  0.18623329  0.04747925  1
  O  O625  1  0.33594156  0.18571987  0.29762725  1
  O  O626  1  0.33503551  0.18508680  0.54768224  1
  O  O627  1  0.33594872  0.18538422  0.79819367  1
  O  O628  1  0.33766086  0.51785631  0.04645669  1
  O  O629  1  0.33635069  0.51746841  0.29821551  1
  O  O630  1  0.33599849  0.51717826  0.54709469  1
  O  O631  1  0.33829315  0.51821307  0.79781227  1
  O  O632  1  0.33982413  0.85055332  0.04654591  1
  O  O633  1  0.33611449  0.85159673  0.29773817  1
  O  O634  1  0.33551254  0.85261873  0.54792536  1
  O  O635  1  0.33644487  0.85165552  0.79759118  1
  O  O636  1  0.83782229  0.18486205  0.04713775  1
  O  O637  1  0.83723564  0.18554691  0.29862103  1
  O  O638  1  0.83648814  0.18492832  0.54758395  1
  O  O639  1  0.83922277  0.18665812  0.79812044  1
  O  O640  1  0.83590144  0.51825481  0.04734855  1
  O  O641  1  0.83695245  0.51796068  0.29745010  1
  O  O642  1  0.83665769  0.51852578  0.54874703  1
  O  O643  1  0.83753578  0.51717285  0.79756932  1
  O  O644  1  0.83622179  0.85170231  0.04762606  1
  O  O645  1  0.83661390  0.85155983  0.29789757  1
  O  O646  1  0.83616617  0.85145071  0.54882983  1
  O  O647  1  0.83801505  0.85130980  0.79720461  1
  O  O648  1  0.16184172  0.14871945  0.20186105  1
  O  O649  1  0.16273602  0.14870000  0.45354030  1
  O  O650  1  0.16019207  0.14833110  0.70325078  1
  O  O651  1  0.16180305  0.14851376  0.95226566  1
  O  O652  1  0.16283378  0.48202821  0.20265169  1
  O  O653  1  0.16178310  0.48164941  0.45255363  1
  O  O654  1  0.16041273  0.48084301  0.70244306  1
  O  O655  1  0.16302686  0.48266649  0.95222175  1
  O  O656  1  0.16353262  0.81485262  0.20222916  1
  O  O657  1  0.16127790  0.81506255  0.45382195  1
  O  O658  1  0.16197045  0.81582879  0.70250369  1
  O  O659  1  0.16503061  0.81364832  0.95189193  1
  O  O660  1  0.66188427  0.15016935  0.20335280  1
  O  O661  1  0.66140821  0.14822895  0.45242211  1
  O  O662  1  0.66181297  0.14895062  0.70303303  1
  O  O663  1  0.66174147  0.14865473  0.95109611  1
  O  O664  1  0.66182150  0.48013082  0.20238383  1
  O  O665  1  0.66168030  0.48213809  0.45342530  1
  O  O666  1  0.66257945  0.48227884  0.70277546  1
  O  O667  1  0.66120235  0.48208237  0.95155915  1
  O  O668  1  0.65999857  0.81471844  0.20210688  1
  O  O669  1  0.66052932  0.81469549  0.45347091  1
  O  O670  1  0.66042821  0.81351902  0.70253422  1
  O  O671  1  0.65990959  0.81407562  0.95170940  1
