# generated using pymatgen
data_Na2MnFe(PO4)2
_symmetry_space_group_name_H-M   'P 1'
_cell_length_a   21.08780394
_cell_length_b   18.94002136
_cell_length_c   20.04664036
_cell_angle_alpha   90.00019235
_cell_angle_beta   90.00393257
_cell_angle_gamma   89.99778713
_symmetry_Int_Tables_number   1
_chemical_formula_structural   Na2MnFe(PO4)2
_chemical_formula_sum   'Na96 Mn48 Fe48 P96 O384'
_cell_volume   8006.69743662
_cell_formula_units_Z   48
loop_
 _symmetry_equiv_pos_site_id
 _symmetry_equiv_pos_as_xyz
  1  'x, y, z'
loop_
 _atom_site_type_symbol
 _atom_site_label
 _atom_site_symmetry_multiplicity
 _atom_site_fract_x
 _atom_site_fract_y
 _atom_site_fract_z
 _atom_site_occupancy
  Na  Na0  1  -0.00283931  -0.00131771  0.00136214  1
  Na  Na1  1  0.00236628  0.00152166  0.24951862  1
  Na  Na2  1  -0.00006041  -0.00037370  0.50050714  1
  Na  Na3  1  -0.00065625  -0.00000992  0.74905037  1
  Na  Na4  1  -0.00003453  0.33316540  0.00049255  1
  Na  Na5  1  -0.00055136  0.33257315  0.24998028  1
  Na  Na6  1  -0.00036301  0.33272613  0.49879398  1
  Na  Na7  1  -0.00099554  0.33262817  0.75073174  1
  Na  Na8  1  -0.00183468  0.66607236  0.00009679  1
  Na  Na9  1  -0.00053841  0.66618946  0.25043149  1
  Na  Na10  1  0.00158420  0.66713786  0.49933183  1
  Na  Na11  1  -0.00004889  0.66681023  0.75005661  1
  Na  Na12  1  0.50107451  -0.00019154  0.00087650  1
  Na  Na13  1  0.50241880  0.00108100  0.24929002  1
  Na  Na14  1  0.49926799  -0.00042153  0.50053879  1
  Na  Na15  1  0.50317158  0.00145946  0.74899146  1
  Na  Na16  1  0.50123628  0.33362688  -0.00012976  1
  Na  Na17  1  0.50174857  0.33385326  0.24882521  1
  Na  Na18  1  0.49916316  0.33303783  0.49994394  1
  Na  Na19  1  0.49766015  0.33238416  0.75152569  1
  Na  Na20  1  0.50036922  0.66716104  -0.00076416  1
  Na  Na21  1  0.49785983  0.66564082  0.25107721  1
  Na  Na22  1  0.50002728  0.66660068  0.49980809  1
  Na  Na23  1  0.50110922  0.66730728  0.75013469  1
  Na  Na24  1  0.24944872  0.00038379  0.12582887  1
  Na  Na25  1  0.24765590  -0.00039091  0.37440069  1
  Na  Na26  1  0.24835577  -0.00025174  0.62501024  1
  Na  Na27  1  0.24973322  -0.00011931  0.87482276  1
  Na  Na28  1  0.24846188  0.33274786  0.12504348  1
  Na  Na29  1  0.24917452  0.33253045  0.37502574  1
  Na  Na30  1  0.25145888  0.33311454  0.62468836  1
  Na  Na31  1  0.25161783  0.33379178  0.87488056  1
  Na  Na32  1  0.24961087  0.66638492  0.12454109  1
  Na  Na33  1  0.24985972  0.66690772  0.37598733  1
  Na  Na34  1  0.24768020  0.66603015  0.62398652  1
  Na  Na35  1  0.24922223  0.66706646  0.87570513  1
  Na  Na36  1  0.74914880  -0.00001214  0.12433969  1
  Na  Na37  1  0.74976341  0.00039357  0.37573951  1
  Na  Na38  1  0.75020864  0.00037923  0.62570450  1
  Na  Na39  1  0.74941467  -0.00022276  0.87441748  1
  Na  Na40  1  0.75024493  0.33340046  0.12612775  1
  Na  Na41  1  0.74940053  0.33263528  0.37497142  1
  Na  Na42  1  0.75167396  0.33397332  0.62399502  1
  Na  Na43  1  0.75072234  0.33311691  0.87491492  1
  Na  Na44  1  0.75306367  0.66760225  0.12530671  1
  Na  Na45  1  0.75090808  0.66659721  0.37500634  1
  Na  Na46  1  0.74917217  0.66628743  0.62464977  1
  Na  Na47  1  0.75161203  0.66681929  0.87446065  1
  Na  Na48  1  -0.00125547  0.16760209  0.00059760  1
  Na  Na49  1  0.00020642  0.16705246  0.24946411  1
  Na  Na50  1  -0.00027915  0.16726726  0.49977011  1
  Na  Na51  1  -0.00057786  0.16681761  0.75020728  1
  Na  Na52  1  -0.00161630  0.50018690  0.00134255  1
  Na  Na53  1  0.00010493  0.49948308  0.25002646  1
  Na  Na54  1  0.00070428  0.50003934  0.49927084  1
  Na  Na55  1  0.00013304  0.50013740  0.74954744  1
  Na  Na56  1  -0.00062328  0.83305555  0.00023209  1
  Na  Na57  1  0.00106583  0.83305713  0.25029682  1
  Na  Na58  1  0.00078267  0.83329280  0.49951169  1
  Na  Na59  1  -0.00152076  0.83373885  0.75004043  1
  Na  Na60  1  0.50303805  0.16589451  0.00085007  1
  Na  Na61  1  0.50134323  0.16655513  0.24922076  1
  Na  Na62  1  0.49729103  0.16748238  0.49982945  1
  Na  Na63  1  0.50039865  0.16611546  0.75052757  1
  Na  Na64  1  0.49947737  0.50000624  -0.00090044  1
  Na  Na65  1  0.50141450  0.49915340  0.24943690  1
  Na  Na66  1  0.50128942  0.49979901  0.50088834  1
  Na  Na67  1  0.50061225  0.50008204  0.74982104  1
  Na  Na68  1  0.49988118  0.83373064  0.00002316  1
  Na  Na69  1  0.49936479  0.83345408  0.25047289  1
  Na  Na70  1  0.50110109  0.83233858  0.49976399  1
  Na  Na71  1  0.50076713  0.83312570  0.75032507  1
  Na  Na72  1  0.24996627  0.16692679  0.12625512  1
  Na  Na73  1  0.24974153  0.16715364  0.37488141  1
  Na  Na74  1  0.25043390  0.16659295  0.62478521  1
  Na  Na75  1  0.25007595  0.16716994  0.87372573  1
  Na  Na76  1  0.24830528  0.50019696  0.12502120  1
  Na  Na77  1  0.24859501  0.50042386  0.37481724  1
  Na  Na78  1  0.24959022  0.50055987  0.62424980  1
  Na  Na79  1  0.25053061  0.49946814  0.87586714  1
  Na  Na80  1  0.24897044  0.83327765  0.12407647  1
  Na  Na81  1  0.24837760  0.83325647  0.37579732  1
  Na  Na82  1  0.24714149  0.83408785  0.62461631  1
  Na  Na83  1  0.24963973  0.83292818  0.87606661  1
  Na  Na84  1  0.74899762  0.16744212  0.12583731  1
  Na  Na85  1  0.75111043  0.16643497  0.37514704  1
  Na  Na86  1  0.75070824  0.16657095  0.62532500  1
  Na  Na87  1  0.74953866  0.16667323  0.87429554  1
  Na  Na88  1  0.75165347  0.49896924  0.12615752  1
  Na  Na89  1  0.74941436  0.50006069  0.37396464  1
  Na  Na90  1  0.74833144  0.50102830  0.62479692  1
  Na  Na91  1  0.75029188  0.50016244  0.87484349  1
  Na  Na92  1  0.75075958  0.83367920  0.12412348  1
  Na  Na93  1  0.74976834  0.83341806  0.37646911  1
  Na  Na94  1  0.75058302  0.83344974  0.62446016  1
  Na  Na95  1  0.75258665  0.83266061  0.87439119  1
  Mn  Mn96  1  0.14265725  0.25035693  0.74745009  1
  Mn  Mn97  1  0.85809547  0.41735903  0.75192450  1
  Mn  Mn98  1  0.10691185  0.75030260  0.87246633  1
  Mn  Mn99  1  0.89252759  0.58292252  0.37747952  1
  Mn  Mn100  1  0.89184005  0.24951022  0.87803137  1
  Mn  Mn101  1  0.35806911  0.08210808  0.75234797  1
  Mn  Mn102  1  0.35685110  0.75091352  0.50287708  1
  Mn  Mn103  1  0.85738175  0.08320400  0.25264521  1
  Mn  Mn104  1  0.14188020  0.91796629  0.99750882  1
  Mn  Mn105  1  0.64263124  0.91664004  0.49808976  1
  Mn  Mn106  1  0.10778745  0.08391680  0.12171933  1
  Mn  Mn107  1  0.64206441  0.25048336  0.49775371  1
  Mn  Mn108  1  0.64362318  0.58318759  0.99818103  1
  Mn  Mn109  1  0.39250444  0.91723247  0.87617249  1
  Mn  Mn110  1  0.39206294  0.58376027  0.87636320  1
  Mn  Mn111  1  0.10798262  0.41666683  0.87298523  1
  Mn  Mn112  1  0.39181052  0.91651082  0.62745874  1
  Mn  Mn113  1  0.39217825  0.58345240  0.62759708  1
  Mn  Mn114  1  0.39255398  0.24909293  0.87813460  1
  Mn  Mn115  1  0.35751065  0.41713936  0.25186345  1
  Mn  Mn116  1  0.64250624  0.58384845  0.24732563  1
  Mn  Mn117  1  0.39252039  0.91661711  0.12746679  1
  Mn  Mn118  1  0.39328220  0.25002875  0.12672272  1
  Mn  Mn119  1  0.35750816  0.08302255  0.25238692  1
  Mn  Mn120  1  0.14150400  0.58244474  0.99780606  1
  Mn  Mn121  1  0.85784825  0.74998834  0.50287195  1
  Mn  Mn122  1  0.10743128  0.08339484  0.62239371  1
  Mn  Mn123  1  0.60833933  0.74949204  0.12329299  1
  Mn  Mn124  1  0.39204339  0.58312486  0.12728576  1
  Mn  Mn125  1  0.89179697  0.58341610  0.87721307  1
  Mn  Mn126  1  0.85749033  0.41665247  0.50216739  1
  Mn  Mn127  1  0.10805853  0.41676122  0.62295805  1
  Mn  Mn128  1  0.85743447  0.08285041  0.75226192  1
  Mn  Mn129  1  0.60813968  0.41662448  0.87301811  1
  Mn  Mn130  1  0.35779252  0.75016534  0.00259905  1
  Mn  Mn131  1  0.64204012  0.25030641  0.74699456  1
  Mn  Mn132  1  0.89261635  0.91769237  0.37675543  1
  Mn  Mn133  1  0.10737990  0.08287137  0.87374218  1
  Mn  Mn134  1  0.60736071  0.74951212  0.37210652  1
  Mn  Mn135  1  0.60762489  0.08409214  0.37361949  1
  Mn  Mn136  1  0.10777354  0.41572196  0.37227709  1
  Mn  Mn137  1  0.39150145  0.91703438  0.37698977  1
  Mn  Mn138  1  0.10806771  0.75055902  0.37181630  1
  Mn  Mn139  1  0.89205310  0.91661398  0.12838452  1
  Mn  Mn140  1  0.64321528  0.91644691  0.99711137  1
  Mn  Mn141  1  0.60732775  0.41630883  0.62290576  1
  Mn  Mn142  1  0.60896462  0.75055471  0.87243240  1
  Mn  Mn143  1  0.35784851  0.41616522  0.50174064  1
  Fe  Fe144  1  0.14222495  0.25029627  0.24792514  1
  Fe  Fe145  1  0.14263112  0.91616353  0.24777545  1
  Fe  Fe146  1  0.60810089  0.08320009  0.87362388  1
  Fe  Fe147  1  0.85773433  0.41615985  0.00262347  1
  Fe  Fe148  1  0.85661426  0.08394837  0.00184572  1
  Fe  Fe149  1  0.85743982  0.74984528  0.75048835  1
  Fe  Fe150  1  0.85821632  0.08335237  0.50188576  1
  Fe  Fe151  1  0.64244328  0.58333597  0.49815102  1
  Fe  Fe152  1  0.14265989  0.58333616  0.24808550  1
  Fe  Fe153  1  0.35715737  0.41590280  0.00223497  1
  Fe  Fe154  1  0.35661575  0.74976650  0.75070176  1
  Fe  Fe155  1  0.35725725  0.41792462  0.75164236  1
  Fe  Fe156  1  0.14170228  0.91746281  0.49818629  1
  Fe  Fe157  1  0.89273394  0.58332282  0.62630362  1
  Fe  Fe158  1  0.64284072  0.24968618  0.24864818  1
  Fe  Fe159  1  0.60700672  0.41652320  0.37332207  1
  Fe  Fe160  1  0.39219158  0.24968609  0.62624544  1
  Fe  Fe161  1  0.35819007  0.08390144  0.00153984  1
  Fe  Fe162  1  0.89211556  0.91713493  0.87622526  1
  Fe  Fe163  1  0.89312850  0.91630196  0.62696262  1
  Fe  Fe164  1  0.14262934  0.24961704  0.49817972  1
  Fe  Fe165  1  0.85779191  0.75033551  0.25160189  1
  Fe  Fe166  1  0.64339680  0.91576612  0.74771030  1
  Fe  Fe167  1  0.64294013  0.58411729  0.74795045  1
  Fe  Fe168  1  0.89278486  0.24943060  0.37652243  1
  Fe  Fe169  1  0.64255082  0.91657640  0.24884287  1
  Fe  Fe170  1  0.60777886  0.75040563  0.62386183  1
  Fe  Fe171  1  0.85690298  0.41651679  0.25197281  1
  Fe  Fe172  1  0.14220513  0.58291385  0.49823840  1
  Fe  Fe173  1  0.89239098  0.25048048  0.12706186  1
  Fe  Fe174  1  0.85816683  0.74987764  0.00259066  1
  Fe  Fe175  1  0.35639534  0.08294757  0.50097356  1
  Fe  Fe176  1  0.35633982  0.74984759  0.25106399  1
  Fe  Fe177  1  0.10678198  0.74984615  0.62453883  1
  Fe  Fe178  1  0.14146908  0.91600819  0.74853419  1
  Fe  Fe179  1  0.39221948  0.58243150  0.37652736  1
  Fe  Fe180  1  0.10680965  0.74907086  0.12385535  1
  Fe  Fe181  1  0.10628617  0.41673880  0.12345196  1
  Fe  Fe182  1  0.60834936  0.41678957  0.12251299  1
  Fe  Fe183  1  0.89298351  0.25024816  0.62607860  1
  Fe  Fe184  1  0.14285731  0.24977699  0.99876531  1
  Fe  Fe185  1  0.39242382  0.25057460  0.37582994  1
  Fe  Fe186  1  0.64400769  0.25036180  0.99884289  1
  Fe  Fe187  1  0.60824895  0.08351414  0.12289843  1
  Fe  Fe188  1  0.14236123  0.58366112  0.74822124  1
  Fe  Fe189  1  0.60694522  0.08341644  0.62246955  1
  Fe  Fe190  1  0.10740851  0.08402113  0.37394394  1
  Fe  Fe191  1  0.89307593  0.58273151  0.12724313  1
  P  P192  1  0.05373829  0.25119774  0.11061642  1
  P  P193  1  0.05401723  0.24889583  0.36037146  1
  P  P194  1  0.05286774  0.25029677  0.60931464  1
  P  P195  1  0.05436742  0.24966387  0.86121795  1
  P  P196  1  0.05328139  0.58308183  0.11178891  1
  P  P197  1  0.05527730  0.58303980  0.36006162  1
  P  P198  1  0.05380658  0.58418491  0.61061911  1
  P  P199  1  0.05339828  0.58309411  0.85934979  1
  P  P200  1  0.05453983  0.91553985  0.11128902  1
  P  P201  1  0.05517802  0.91823266  0.36037078  1
  P  P202  1  0.05371392  0.91556179  0.61085969  1
  P  P203  1  0.05181851  0.91706190  0.85952156  1
  P  P204  1  0.55646633  0.25022000  0.11062227  1
  P  P205  1  0.55266782  0.25075334  0.35944302  1
  P  P206  1  0.55177190  0.24928612  0.61000453  1
  P  P207  1  0.55529493  0.24927400  0.86164277  1
  P  P208  1  0.55359009  0.58277077  0.10954468  1
  P  P209  1  0.55317227  0.58230126  0.36108782  1
  P  P210  1  0.55525618  0.58461633  0.61064633  1
  P  P211  1  0.55461024  0.58344719  0.85927603  1
  P  P212  1  0.55545619  0.91686380  0.11112624  1
  P  P213  1  0.55367382  0.91694451  0.35952899  1
  P  P214  1  0.55468112  0.91630127  0.61118887  1
  P  P215  1  0.55474570  0.91758997  0.85912264  1
  P  P216  1  0.44729573  0.08367550  0.13899161  1
  P  P217  1  0.44570409  0.08422687  0.39028543  1
  P  P218  1  0.44612911  0.08370139  0.63860385  1
  P  P219  1  0.44814348  0.08284604  0.89097956  1
  P  P220  1  0.44721688  0.41627234  0.13869637  1
  P  P221  1  0.44757101  0.41653056  0.38943408  1
  P  P222  1  0.44573748  0.41594799  0.64067838  1
  P  P223  1  0.44474005  0.41692979  0.88973080  1
  P  P224  1  0.44632732  0.74990286  0.14114512  1
  P  P225  1  0.44436797  0.74918986  0.38895201  1
  P  P226  1  0.44733332  0.75013825  0.64065667  1
  P  P227  1  0.44581480  0.75043936  0.88864686  1
  P  P228  1  0.94516296  0.08458769  0.13903266  1
  P  P229  1  0.94736505  0.08413726  0.39028473  1
  P  P230  1  0.94535442  0.08361614  0.63862677  1
  P  P231  1  0.94563411  0.08232700  0.89098663  1
  P  P232  1  0.94537975  0.41608418  0.13975818  1
  P  P233  1  0.94532163  0.41557959  0.38850720  1
  P  P234  1  0.94682413  0.41670604  0.63945771  1
  P  P235  1  0.94606325  0.41672456  0.89121052  1
  P  P236  1  0.94615425  0.74921157  0.13998243  1
  P  P237  1  0.94557855  0.75038656  0.38897020  1
  P  P238  1  0.94711683  0.74971574  0.64003495  1
  P  P239  1  0.94434430  0.75089086  0.88915474  1
  P  P240  1  0.19473411  0.08380028  0.23642927  1
  P  P241  1  0.19649314  0.08375243  0.48459899  1
  P  P242  1  0.19623825  0.08254527  0.73506163  1
  P  P243  1  0.19833758  0.08475570  0.98490392  1
  P  P244  1  0.19557299  0.41651459  0.23437944  1
  P  P245  1  0.19624873  0.41604304  0.48503942  1
  P  P246  1  0.19809027  0.41755132  0.73507808  1
  P  P247  1  0.19626607  0.41530754  0.98651900  1
  P  P248  1  0.19680043  0.74952777  0.23438065  1
  P  P249  1  0.19399012  0.75010432  0.48670369  1
  P  P250  1  0.19640456  0.74988433  0.73472039  1
  P  P251  1  0.19469761  0.74988082  0.98622337  1
  P  P252  1  0.69579983  0.08344712  0.23507060  1
  P  P253  1  0.69713187  0.08371027  0.48634914  1
  P  P254  1  0.69450992  0.08246393  0.73539125  1
  P  P255  1  0.69650854  0.08439251  0.98563309  1
  P  P256  1  0.69563117  0.41582902  0.23602963  1
  P  P257  1  0.69565856  0.41747556  0.48415889  1
  P  P258  1  0.69683386  0.41729192  0.73469265  1
  P  P259  1  0.69768421  0.41601556  0.98646119  1
  P  P260  1  0.69841655  0.75070156  0.23516660  1
  P  P261  1  0.69532328  0.74911368  0.48612223  1
  P  P262  1  0.69765699  0.75033534  0.73434414  1
  P  P263  1  0.69904152  0.74963376  0.98499758  1
  P  P264  1  0.30269043  0.24955113  0.01522193  1
  P  P265  1  0.30274080  0.25042021  0.26509366  1
  P  P266  1  0.30397925  0.24890453  0.51369736  1
  P  P267  1  0.30529448  0.25051723  0.76368327  1
  P  P268  1  0.30326792  0.58240907  0.01501547  1
  P  P269  1  0.30230920  0.58389113  0.26532650  1
  P  P270  1  0.30326365  0.58309731  0.51368527  1
  P  P271  1  0.30170973  0.58423558  0.76454105  1
  P  P272  1  0.30367531  0.91815367  0.01496369  1
  P  P273  1  0.30164899  0.91568303  0.26469895  1
  P  P274  1  0.30139846  0.91779335  0.51476754  1
  P  P275  1  0.30137449  0.91514141  0.76471899  1
  P  P276  1  0.80312913  0.24978243  0.01590115  1
  P  P277  1  0.80402755  0.25075314  0.26452317  1
  P  P278  1  0.80521452  0.24912252  0.51419772  1
  P  P279  1  0.80458825  0.25005538  0.76372282  1
  P  P280  1  0.80488542  0.58296529  0.01594822  1
  P  P281  1  0.80520975  0.58316994  0.26374966  1
  P  P282  1  0.80267610  0.58301922  0.51540875  1
  P  P283  1  0.80364461  0.58432999  0.76315797  1
  P  P284  1  0.80527223  0.91711081  0.01353065  1
  P  P285  1  0.80189211  0.91626422  0.26534062  1
  P  P286  1  0.80472253  0.91779392  0.51574680  1
  P  P287  1  0.80430878  0.91575486  0.76378280  1
  O  O288  1  0.05847028  0.25025435  0.18730681  1
  O  O289  1  0.05892347  0.24974564  0.43702704  1
  O  O290  1  0.05675737  0.25017367  0.68605559  1
  O  O291  1  0.05895526  0.24972744  0.93794027  1
  O  O292  1  0.05807630  0.58327667  0.18844086  1
  O  O293  1  0.05946870  0.58301375  0.43685886  1
  O  O294  1  0.05863602  0.58329014  0.68732837  1
  O  O295  1  0.05630190  0.58299182  0.93618145  1
  O  O296  1  0.05910892  0.91628428  0.18805816  1
  O  O297  1  0.05873649  0.91727046  0.43722399  1
  O  O298  1  0.05828396  0.91636189  0.68756373  1
  O  O299  1  0.05578646  0.91703684  0.93625660  1
  O  O300  1  0.55992073  0.25023630  0.18742034  1
  O  O301  1  0.55606993  0.25000408  0.43616271  1
  O  O302  1  0.55550672  0.24975872  0.68670390  1
  O  O303  1  0.55996586  0.25026287  0.93833934  1
  O  O304  1  0.55660015  0.58333401  0.18637984  1
  O  O305  1  0.55796377  0.58326182  0.43772550  1
  O  O306  1  0.55965648  0.58408740  0.68741242  1
  O  O307  1  0.55799119  0.58348926  0.93604616  1
  O  O308  1  0.55959856  0.91612057  0.18787487  1
  O  O309  1  0.55701550  0.91658950  0.43632705  1
  O  O310  1  0.55892031  0.91609966  0.68787683  1
  O  O311  1  0.55764443  0.91634236  0.93597284  1
  O  O312  1  0.44216121  0.08370890  0.06238222  1
  O  O313  1  0.44317549  0.08315240  0.31344006  1
  O  O314  1  0.44068820  0.08277269  0.56202405  1
  O  O315  1  0.44378664  0.08299661  0.81424391  1
  O  O316  1  0.44155976  0.41608336  0.06208572  1
  O  O317  1  0.44420313  0.41687758  0.31273324  1
  O  O318  1  0.44287619  0.41694143  0.56384913  1
  O  O319  1  0.44017051  0.41736998  0.81296150  1
  O  O320  1  0.44336970  0.75019721  0.06429248  1
  O  O321  1  0.43960448  0.74990054  0.31225151  1
  O  O322  1  0.44294307  0.75017700  0.56392208  1
  O  O323  1  0.44077968  0.75016449  0.81198701  1
  O  O324  1  0.94047138  0.08404213  0.06238465  1
  O  O325  1  0.94369391  0.08342326  0.31353448  1
  O  O326  1  0.94215122  0.08340153  0.56187466  1
  O  O327  1  0.94298032  0.08320774  0.81413393  1
  O  O328  1  0.94108629  0.41588763  0.06302476  1
  O  O329  1  0.94116698  0.41627151  0.31179025  1
  O  O330  1  0.94414841  0.41701993  0.56268062  1
  O  O331  1  0.94295956  0.41671899  0.81440579  1
  O  O332  1  0.94173297  0.75001231  0.06322388  1
  O  O333  1  0.94107843  0.75048111  0.31224102  1
  O  O334  1  0.94414964  0.74970398  0.56327564  1
  O  O335  1  0.94046713  0.74989883  0.81239046  1
  O  O336  1  0.19437621  0.08406353  0.06164638  1
  O  O337  1  0.19104713  0.08413570  0.31312252  1
  O  O338  1  0.19321947  0.08397387  0.56134689  1
  O  O339  1  0.19311605  0.08318897  0.81177802  1
  O  O340  1  0.19080805  0.41634297  0.06309344  1
  O  O341  1  0.19310791  0.41621369  0.31117986  1
  O  O342  1  0.19365927  0.41603682  0.56179106  1
  O  O343  1  0.19455374  0.41672655  0.81177447  1
  O  O344  1  0.19008652  0.74943473  0.06293400  1
  O  O345  1  0.19377586  0.74963955  0.31127049  1
  O  O346  1  0.19000897  0.74996062  0.56338638  1
  O  O347  1  0.19326559  0.75007075  0.81146885  1
  O  O348  1  0.69215962  0.08349340  0.06234636  1
  O  O349  1  0.69313376  0.08372641  0.31188871  1
  O  O350  1  0.69175809  0.08406006  0.56297812  1
  O  O351  1  0.69102325  0.08339635  0.81220518  1
  O  O352  1  0.69299806  0.41677575  0.06314042  1
  O  O353  1  0.69078230  0.41639862  0.31269470  1
  O  O354  1  0.69262984  0.41641747  0.56092797  1
  O  O355  1  0.69405084  0.41635023  0.81149323  1
  O  O356  1  0.69470716  0.74985859  0.06161257  1
  O  O357  1  0.69429955  0.74979530  0.31186841  1
  O  O358  1  0.69132523  0.74993779  0.56281028  1
  O  O359  1  0.69479943  0.75034443  0.81109048  1
  O  O360  1  0.30734850  0.25041121  0.18847690  1
  O  O361  1  0.30863348  0.25016663  0.43703244  1
  O  O362  1  0.30912212  0.24953704  0.68687467  1
  O  O363  1  0.30619803  0.24959629  0.93848671  1
  O  O364  1  0.30609585  0.58291627  0.18862159  1
  O  O365  1  0.30844891  0.58278661  0.43705588  1
  O  O366  1  0.30513853  0.58408526  0.68780784  1
  O  O367  1  0.30648733  0.58325830  0.93828953  1
  O  O368  1  0.30580829  0.91646280  0.18804328  1
  O  O369  1  0.30537675  0.91698427  0.43813425  1
  O  O370  1  0.30522884  0.91616518  0.68803039  1
  O  O371  1  0.30686959  0.91740033  0.93821231  1
  O  O372  1  0.80864266  0.25027527  0.18787257  1
  O  O373  1  0.80915412  0.24945285  0.43741504  1
  O  O374  1  0.80914442  0.25022998  0.68700657  1
  O  O375  1  0.80613225  0.24976718  0.93912392  1
  O  O376  1  0.80943875  0.58304863  0.18703557  1
  O  O377  1  0.80680636  0.58301514  0.43869584  1
  O  O378  1  0.80857697  0.58353812  0.68654337  1
  O  O379  1  0.80671800  0.58281455  0.93907161  1
  O  O380  1  0.80567043  0.91691981  0.18859603  1
  O  O381  1  0.80753662  0.91726013  0.43895396  1
  O  O382  1  0.80919746  0.91665415  0.68711238  1
  O  O383  1  0.80846432  0.91715405  0.93676302  1
  O  O384  1  0.23282519  0.24965846  0.04030842  1
  O  O385  1  0.23234960  0.25026970  0.28858509  1
  O  O386  1  0.23359647  0.24954985  0.53751718  1
  O  O387  1  0.23532504  0.25033061  0.78807461  1
  O  O388  1  0.23347032  0.58279233  0.03985073  1
  O  O389  1  0.23208819  0.58344816  0.28948159  1
  O  O390  1  0.23274084  0.58309791  0.53684822  1
  O  O391  1  0.23186651  0.58395115  0.78984096  1
  O  O392  1  0.23391424  0.91748528  0.03994433  1
  O  O393  1  0.23148499  0.91607361  0.28895814  1
  O  O394  1  0.23119446  0.91751214  0.53894298  1
  O  O395  1  0.23137362  0.91573106  0.78948676  1
  O  O396  1  0.73319801  0.25012211  0.04082590  1
  O  O397  1  0.73355232  0.24972960  0.28805617  1
  O  O398  1  0.73516309  0.25034702  0.53842865  1
  O  O399  1  0.73456944  0.24971619  0.78768406  1
  O  O400  1  0.73545762  0.58318374  0.04199445  1
  O  O401  1  0.73515162  0.58314485  0.28794790  1
  O  O402  1  0.73249580  0.58329131  0.53927068  1
  O  O403  1  0.73340262  0.58413362  0.78718235  1
  O  O404  1  0.73542825  0.91704582  0.03835675  1
  O  O405  1  0.73201655  0.91682202  0.29026529  1
  O  O406  1  0.73497283  0.91716739  0.54066108  1
  O  O407  1  0.73395634  0.91619073  0.78739179  1
  O  O408  1  0.26473471  0.08373378  0.21187275  1
  O  O409  1  0.26638903  0.08338476  0.45957921  1
  O  O410  1  0.26596442  0.08273036  0.70996219  1
  O  O411  1  0.26816715  0.08412898  0.95993280  1
  O  O412  1  0.26526857  0.41656401  0.20912750  1
  O  O413  1  0.26577980  0.41626313  0.45939923  1
  O  O414  1  0.26799726  0.41742507  0.71005986  1
  O  O415  1  0.26662847  0.41585621  0.96297054  1
  O  O416  1  0.26676592  0.74959971  0.20950814  1
  O  O417  1  0.26395943  0.75022375  0.46227451  1
  O  O418  1  0.26619141  0.74990893  0.70922245  1
  O  O419  1  0.26482103  0.75011880  0.96251184  1
  O  O420  1  0.76553317  0.08362787  0.20987974  1
  O  O421  1  0.76742793  0.08332151  0.46269946  1
  O  O422  1  0.76463192  0.08313253  0.71138298  1
  O  O423  1  0.76677094  0.08363521  0.96160489  1
  O  O424  1  0.76617789  0.41642907  0.21276732  1
  O  O425  1  0.76540497  0.41664778  0.45922999  1
  O  O426  1  0.76636226  0.41746600  0.70917641  1
  O  O427  1  0.76797743  0.41631234  0.96260034  1
  O  O428  1  0.76847455  0.75034867  0.21067099  1
  O  O429  1  0.76537495  0.74968432  0.46198109  1
  O  O430  1  0.76759121  0.75024297  0.70923302  1
  O  O431  1  0.76920380  0.74955738  0.96095733  1
  O  O432  1  0.01532984  0.08434373  0.16266745  1
  O  O433  1  0.01736700  0.08382234  0.41490459  1
  O  O434  1  0.01516635  0.08366152  0.66365794  1
  O  O435  1  0.01515770  0.08289423  0.91663681  1
  O  O436  1  0.01574198  0.41617222  0.16360167  1
  O  O437  1  0.01531917  0.41601944  0.41269996  1
  O  O438  1  0.01631372  0.41631591  0.66530701  1
  O  O439  1  0.01575856  0.41682646  0.91619457  1
  O  O440  1  0.01646872  0.74949765  0.16388600  1
  O  O441  1  0.01576245  0.75027541  0.41263244  1
  O  O442  1  0.01704137  0.75003278  0.66514243  1
  O  O443  1  0.01432895  0.74975657  0.91357270  1
  O  O444  1  0.51773987  0.08400859  0.16224813  1
  O  O445  1  0.51533482  0.08357808  0.41569486  1
  O  O446  1  0.51654393  0.08364025  0.66207091  1
  O  O447  1  0.51834019  0.08279555  0.91490597  1
  O  O448  1  0.51769109  0.41617703  0.16175183  1
  O  O449  1  0.51739200  0.41632554  0.41475759  1
  O  O450  1  0.51545474  0.41623746  0.66580470  1
  O  O451  1  0.51501149  0.41676600  0.91320490  1
  O  O452  1  0.51601073  0.74953278  0.16624625  1
  O  O453  1  0.51455973  0.74963986  0.41266479  1
  O  O454  1  0.51757209  0.75027255  0.66444242  1
  O  O455  1  0.51601307  0.75050420  0.91241873  1
  O  O456  1  0.48649867  0.25011250  0.08602518  1
  O  O457  1  0.48271477  0.25015496  0.33443464  1
  O  O458  1  0.48174475  0.24991286  0.58540792  1
  O  O459  1  0.48518305  0.24938719  0.83780037  1
  O  O460  1  0.48404419  0.58316992  0.08412905  1
  O  O461  1  0.48285999  0.58242908  0.33717927  1
  O  O462  1  0.48506189  0.58348312  0.58683999  1
  O  O463  1  0.48477856  0.58348223  0.83457588  1
  O  O464  1  0.48547015  0.91665190  0.08681723  1
  O  O465  1  0.48384715  0.91751778  0.33482369  1
  O  O466  1  0.48470232  0.91609069  0.58666110  1
  O  O467  1  0.48510024  0.91747207  0.83381142  1
  O  O468  1  0.98325567  0.25074803  0.08731363  1
  O  O469  1  0.98361186  0.24944834  0.33679321  1
  O  O470  1  0.98275968  0.25010310  0.58511094  1
  O  O471  1  0.98426554  0.24967336  0.83742474  1
  O  O472  1  0.98292692  0.58278471  0.08798965  1
  O  O473  1  0.98517725  0.58285487  0.33636594  1
  O  O474  1  0.98344606  0.58370173  0.58670767  1
  O  O475  1  0.98363246  0.58326514  0.83456163  1
  O  O476  1  0.98439845  0.91590520  0.08761900  1
  O  O477  1  0.98528832  0.91747539  0.33569270  1
  O  O478  1  0.98329404  0.91614747  0.58721244  1
  O  O479  1  0.98178061  0.91711114  0.83514822  1
  O  O480  1  0.08688389  0.31645183  0.07762717  1
  O  O481  1  0.08758433  0.31366048  0.32657361  1
  O  O482  1  0.08669195  0.31523575  0.57645248  1
  O  O483  1  0.08770296  0.31476671  0.82792724  1
  O  O484  1  0.08620271  0.64814394  0.07823604  1
  O  O485  1  0.08867451  0.64814101  0.32684691  1
  O  O486  1  0.08694999  0.64949915  0.57777642  1
  O  O487  1  0.08761514  0.64803596  0.82687783  1
  O  O488  1  0.08779100  0.98073958  0.07790249  1
  O  O489  1  0.08856715  0.98358868  0.32810650  1
  O  O490  1  0.08726179  0.98045086  0.57719933  1
  O  O491  1  0.08586179  0.98190901  0.82675339  1
  O  O492  1  0.59023361  0.31527852  0.07763039  1
  O  O493  1  0.58669600  0.31587734  0.32709564  1
  O  O494  1  0.58575697  0.31431392  0.57732515  1
  O  O495  1  0.58855724  0.31425141  0.82798005  1
  O  O496  1  0.58789768  0.64784059  0.07730019  1
  O  O497  1  0.58656030  0.64717161  0.32724759  1
  O  O498  1  0.58816095  0.64999487  0.57757137  1
  O  O499  1  0.58883157  0.64842399  0.82671408  1
  O  O500  1  0.58895824  0.98221371  0.07851359  1
  O  O501  1  0.58819732  0.98185647  0.32739349  1
  O  O502  1  0.58808468  0.98165472  0.57826085  1
  O  O503  1  0.58906297  0.98277802  0.82748091  1
  O  O504  1  0.41421304  0.01863281  0.17262221  1
  O  O505  1  0.41085471  0.01965109  0.42307698  1
  O  O506  1  0.41322717  0.01862205  0.67262530  1
  O  O507  1  0.41424849  0.01788010  0.92364476  1
  O  O508  1  0.41408797  0.35137388  0.17240841  1
  O  O509  1  0.41354575  0.35117895  0.42152814  1
  O  O510  1  0.41164138  0.35076422  0.67247881  1
  O  O511  1  0.41132162  0.35183610  0.92302422  1
  O  O512  1  0.41172361  0.68497196  0.17328792  1
  O  O513  1  0.41129460  0.68386006  0.42192111  1
  O  O514  1  0.41356713  0.68510613  0.67354958  1
  O  O515  1  0.41248193  0.68539852  0.92203271  1
  O  O516  1  0.91193620  0.01952086  0.17262164  1
  O  O517  1  0.91323900  0.01931320  0.42323645  1
  O  O518  1  0.91171108  0.01843823  0.67146005  1
  O  O519  1  0.91147234  0.01706086  0.92270661  1
  O  O520  1  0.91188255  0.35105301  0.17303180  1
  O  O521  1  0.91201518  0.35027894  0.42114115  1
  O  O522  1  0.91242944  0.35160885  0.67145286  1
  O  O523  1  0.91181918  0.35176361  0.92378825  1
  O  O524  1  0.91272297  0.68412237  0.17285686  1
  O  O525  1  0.91231322  0.68531370  0.42219918  1
  O  O526  1  0.91313964  0.68464151  0.67260213  1
  O  O527  1  0.91014825  0.68625469  0.92251456  1
  O  O528  1  0.16114231  0.01865905  0.20356025  1
  O  O529  1  0.16195280  0.01886503  0.45237855  1
  O  O530  1  0.16210562  0.01733910  0.70300156  1
  O  O531  1  0.16395368  0.01980945  0.95232510  1
  O  O532  1  0.16114945  0.35149382  0.20216269  1
  O  O533  1  0.16219148  0.35080013  0.45280670  1
  O  O534  1  0.16420837  0.35258236  0.70213890  1
  O  O535  1  0.16347130  0.34993262  0.95329684  1
  O  O536  1  0.16275634  0.68436127  0.20197405  1
  O  O537  1  0.16059824  0.68500171  0.45354068  1
  O  O538  1  0.16212894  0.68481531  0.70230311  1
  O  O539  1  0.16135524  0.68488262  0.95291245  1
  O  O540  1  0.66177858  0.01834243  0.20264022  1
  O  O541  1  0.66358481  0.01876231  0.45320951  1
  O  O542  1  0.66128836  0.01702676  0.70283134  1
  O  O543  1  0.66261753  0.01974240  0.95204427  1
  O  O544  1  0.66279227  0.35053872  0.20284405  1
  O  O545  1  0.66101056  0.35275921  0.45145468  1
  O  O546  1  0.66288854  0.35224568  0.70186545  1
  O  O547  1  0.66443056  0.35081346  0.95343641  1
  O  O548  1  0.66470244  0.68565434  0.20211798  1
  O  O549  1  0.66211782  0.68378682  0.45313480  1
  O  O550  1  0.66326093  0.68550940  0.70186519  1
  O  O551  1  0.66539242  0.68462471  0.95215070  1
  O  O552  1  0.33672334  0.31459924  0.04785346  1
  O  O553  1  0.33623152  0.31551198  0.29821624  1
  O  O554  1  0.33790610  0.31350898  0.54738093  1
  O  O555  1  0.33875615  0.31577467  0.79618536  1
  O  O556  1  0.33733823  0.64738788  0.04767214  1
  O  O557  1  0.33596825  0.64903225  0.29779921  1
  O  O558  1  0.33624474  0.64814385  0.54728141  1
  O  O559  1  0.33551915  0.64955642  0.79689702  1
  O  O560  1  0.33731312  0.98356439  0.04726352  1
  O  O561  1  0.33533865  0.98074440  0.29766963  1
  O  O562  1  0.33502100  0.98296028  0.54732541  1
  O  O563  1  0.33568568  0.98001444  0.79754419  1
  O  O564  1  0.83741247  0.31462830  0.04858823  1
  O  O565  1  0.83698746  0.31597230  0.29778264  1
  O  O566  1  0.83947734  0.31390052  0.54720372  1
  O  O567  1  0.83794496  0.31507281  0.79701137  1
  O  O568  1  0.83965455  0.64800503  0.04773946  1
  O  O569  1  0.83865389  0.64830806  0.29671424  1
  O  O570  1  0.83679585  0.64781312  0.54834392  1
  O  O571  1  0.83691228  0.64958162  0.79604594  1
  O  O572  1  0.83882018  0.98218237  0.04654397  1
  O  O573  1  0.83595241  0.98136110  0.29792512  1
  O  O574  1  0.83874655  0.98286771  0.54800413  1
  O  O575  1  0.83775738  0.98056278  0.79763600  1
  O  O576  1  0.41394197  0.14859934  0.17243704  1
  O  O577  1  0.41172593  0.14973429  0.42182933  1
  O  O578  1  0.41299992  0.14880923  0.67183373  1
  O  O579  1  0.41444251  0.14779635  0.92421439  1
  O  O580  1  0.41414276  0.48131555  0.17231759  1
  O  O581  1  0.41352372  0.48136235  0.42240266  1
  O  O582  1  0.41147534  0.48097407  0.67334928  1
  O  O583  1  0.41123865  0.48187469  0.92292892  1
  O  O584  1  0.41207256  0.81487621  0.17366105  1
  O  O585  1  0.41101039  0.81430573  0.42242444  1
  O  O586  1  0.41328890  0.81493229  0.67361825  1
  O  O587  1  0.41254325  0.81559653  0.92183775  1
  O  O588  1  0.91198083  0.14980819  0.17208970  1
  O  O589  1  0.91330147  0.14921156  0.42263734  1
  O  O590  1  0.91159810  0.14875334  0.67125685  1
  O  O591  1  0.91086926  0.14705748  0.92356747  1
  O  O592  1  0.91189578  0.48110969  0.17294930  1
  O  O593  1  0.91176792  0.48042866  0.42197101  1
  O  O594  1  0.91292996  0.48204268  0.67177556  1
  O  O595  1  0.91174468  0.48170594  0.92349173  1
  O  O596  1  0.91256752  0.81411752  0.17357461  1
  O  O597  1  0.91238418  0.81548011  0.42209299  1
  O  O598  1  0.91276828  0.81460888  0.67253440  1
  O  O599  1  0.91137431  0.81642775  0.92181173  1
  O  O600  1  0.08736215  0.18652787  0.07669672  1
  O  O601  1  0.08707549  0.18370239  0.32722638  1
  O  O602  1  0.08687399  0.18537889  0.57640623  1
  O  O603  1  0.08767939  0.18460876  0.82800848  1
  O  O604  1  0.08641120  0.51780599  0.07855007  1
  O  O605  1  0.08898847  0.51820170  0.32693063  1
  O  O606  1  0.08755872  0.51940353  0.57697570  1
  O  O607  1  0.08758088  0.51815561  0.82683250  1
  O  O608  1  0.08763988  0.85033409  0.07844305  1
  O  O609  1  0.08935577  0.85340916  0.32718605  1
  O  O610  1  0.08679134  0.85038694  0.57784914  1
  O  O611  1  0.08563100  0.85201778  0.82665517  1
  O  O612  1  0.59036056  0.18514566  0.07789223  1
  O  O613  1  0.58720168  0.18594878  0.32679247  1
  O  O614  1  0.58547471  0.18430563  0.57710670  1
  O  O615  1  0.58851659  0.18395393  0.82885235  1
  O  O616  1  0.58772634  0.51751077  0.07753027  1
  O  O617  1  0.58660083  0.51717877  0.32815241  1
  O  O618  1  0.58931839  0.51982728  0.57740127  1
  O  O619  1  0.58875683  0.51845872  0.82680536  1
  O  O620  1  0.58903211  0.85192288  0.07771411  1
  O  O621  1  0.58758386  0.85190607  0.32672271  1
  O  O622  1  0.58834876  0.85123212  0.57819342  1
  O  O623  1  0.58925316  0.85275126  0.82641475  1
  O  O624  1  0.33672058  0.18443065  0.04767779  1
  O  O625  1  0.33660285  0.18560523  0.29818463  1
  O  O626  1  0.33698381  0.18341254  0.54657324  1
  O  O627  1  0.33889833  0.18546011  0.79695476  1
  O  O628  1  0.33697545  0.51714824  0.04745046  1
  O  O629  1  0.33632532  0.51892282  0.29837608  1
  O  O630  1  0.33645546  0.51812410  0.54714461  1
  O  O631  1  0.33601890  0.51932578  0.79703154  1
  O  O632  1  0.33797435  0.85322657  0.04756581  1
  O  O633  1  0.33500843  0.85051844  0.29741653  1
  O  O634  1  0.33510289  0.85289951  0.54803542  1
  O  O635  1  0.33505072  0.84985988  0.79695624  1
  O  O636  1  0.83693050  0.18463737  0.04848883  1
  O  O637  1  0.83793440  0.18604792  0.29802719  1
  O  O638  1  0.83843557  0.18393860  0.54727731  1
  O  O639  1  0.83809562  0.18500217  0.79687310  1
  O  O640  1  0.83925312  0.51790533  0.04814383  1
  O  O641  1  0.83849956  0.51786944  0.29673736  1
  O  O642  1  0.83632776  0.51796444  0.54830881  1
  O  O643  1  0.83701010  0.51954026  0.79698866  1
  O  O644  1  0.83899576  0.85192766  0.04634942  1
  O  O645  1  0.83590080  0.85127622  0.29770451  1
  O  O646  1  0.83911419  0.85282380  0.54828488  1
  O  O647  1  0.83763685  0.85053737  0.79653507  1
  O  O648  1  0.16125405  0.14896135  0.20329247  1
  O  O649  1  0.16258441  0.14885455  0.45188312  1
  O  O650  1  0.16223819  0.14755215  0.70226442  1
  O  O651  1  0.16444554  0.14989498  0.95262984  1
  O  O652  1  0.16121708  0.48163616  0.20223165  1
  O  O653  1  0.16174011  0.48098300  0.45294872  1
  O  O654  1  0.16406415  0.48270523  0.70284743  1
  O  O655  1  0.16282158  0.48012672  0.95272547  1
  O  O656  1  0.16245411  0.81441186  0.20200642  1
  O  O657  1  0.16048077  0.81535676  0.45383608  1
  O  O658  1  0.16185971  0.81479369  0.70232582  1
  O  O659  1  0.16124752  0.81500236  0.95313685  1
  O  O660  1  0.66155897  0.14852972  0.20274185  1
  O  O661  1  0.66402933  0.14873506  0.45270914  1
  O  O662  1  0.66047759  0.14709695  0.70183837  1
  O  O663  1  0.66347885  0.14981707  0.95285811  1
  O  O664  1  0.66216365  0.48061453  0.20221388  1
  O  O665  1  0.66193496  0.48290901  0.45207709  1
  O  O666  1  0.66241262  0.48238916  0.70299424  1
  O  O667  1  0.66418904  0.48086693  0.95293930  1
  O  O668  1  0.66480927  0.81583678  0.20267475  1
  O  O669  1  0.66157316  0.81400523  0.45290841  1
  O  O670  1  0.66357218  0.81538815  0.70177448  1
  O  O671  1  0.66549455  0.81463067  0.95183292  1
