# generated using pymatgen
data_Na2MnFe(PO4)2
_symmetry_space_group_name_H-M   'P 1'
_cell_length_a   21.07763140
_cell_length_b   18.92949306
_cell_length_c   20.03757403
_cell_angle_alpha   90.00015153
_cell_angle_beta   90.00047436
_cell_angle_gamma   89.99877269
_symmetry_Int_Tables_number   1
_chemical_formula_structural   Na2MnFe(PO4)2
_chemical_formula_sum   'Na96 Mn48 Fe48 P96 O384'
_cell_volume   7994.76916161
_cell_formula_units_Z   48
loop_
 _symmetry_equiv_pos_site_id
 _symmetry_equiv_pos_as_xyz
  1  'x, y, z'
loop_
 _atom_site_type_symbol
 _atom_site_label
 _atom_site_symmetry_multiplicity
 _atom_site_fract_x
 _atom_site_fract_y
 _atom_site_fract_z
 _atom_site_occupancy
  Na  Na0  1  -0.00127904  -0.00084423  0.00052471  1
  Na  Na1  1  0.00011048  -0.00032646  0.25000108  1
  Na  Na2  1  0.00156963  -0.00008721  0.50016932  1
  Na  Na3  1  0.00104121  -0.00056170  0.74994551  1
  Na  Na4  1  0.00005754  0.33407913  0.00089092  1
  Na  Na5  1  -0.00202232  0.33290289  0.24990274  1
  Na  Na6  1  -0.00051062  0.33378509  0.49935174  1
  Na  Na7  1  -0.00126959  0.33256129  0.74991396  1
  Na  Na8  1  -0.00024841  0.66676383  0.00056534  1
  Na  Na9  1  -0.00152297  0.66638568  0.24979082  1
  Na  Na10  1  0.00215020  0.66743618  0.49891419  1
  Na  Na11  1  0.00188864  0.66662919  0.75059609  1
  Na  Na12  1  0.50156578  -0.00045700  0.00045836  1
  Na  Na13  1  0.50350547  0.00078250  0.24866632  1
  Na  Na14  1  0.49990972  -0.00029822  0.49965140  1
  Na  Na15  1  0.49982972  -0.00023104  0.75139972  1
  Na  Na16  1  0.50007820  0.33356263  -0.00077408  1
  Na  Na17  1  0.49884758  0.33290870  0.24871175  1
  Na  Na18  1  0.49802897  0.33353447  0.50074811  1
  Na  Na19  1  0.49805190  0.33322536  0.75026346  1
  Na  Na20  1  0.50171607  0.66707906  0.00012760  1
  Na  Na21  1  0.50357074  0.66793399  0.24958949  1
  Na  Na22  1  0.49795770  0.66673083  0.50052029  1
  Na  Na23  1  0.49665366  0.66635462  0.75057240  1
  Na  Na24  1  0.24738859  -0.00106214  0.12518132  1
  Na  Na25  1  0.24811411  -0.00017479  0.37523079  1
  Na  Na26  1  0.24562257  -0.00190185  0.62463529  1
  Na  Na27  1  0.24916531  0.00056292  0.87566757  1
  Na  Na28  1  0.25233896  0.33418168  0.12601313  1
  Na  Na29  1  0.25118125  0.33334940  0.37413403  1
  Na  Na30  1  0.25350463  0.33510417  0.62482520  1
  Na  Na31  1  0.25030666  0.33322973  0.87475893  1
  Na  Na32  1  0.24807268  0.66608545  0.12481200  1
  Na  Na33  1  0.24971542  0.66718774  0.37484991  1
  Na  Na34  1  0.25042108  0.66717896  0.62581466  1
  Na  Na35  1  0.24999030  0.66696986  0.87469675  1
  Na  Na36  1  0.74904315  -0.00127938  0.12427379  1
  Na  Na37  1  0.75068302  -0.00071507  0.37435183  1
  Na  Na38  1  0.75191275  -0.00013160  0.62466657  1
  Na  Na39  1  0.75195263  0.00018132  0.87565495  1
  Na  Na40  1  0.75073309  0.33432891  0.12493670  1
  Na  Na41  1  0.75025900  0.33332828  0.37579348  1
  Na  Na42  1  0.75128404  0.33355752  0.62533679  1
  Na  Na43  1  0.74828857  0.33253329  0.87383674  1
  Na  Na44  1  0.74889746  0.66619143  0.12479172  1
  Na  Na45  1  0.74969828  0.66675310  0.37545334  1
  Na  Na46  1  0.74979289  0.66642242  0.62510086  1
  Na  Na47  1  0.75109434  0.66764181  0.87511036  1
  Na  Na48  1  -0.00170067  0.16727637  0.00000564  1
  Na  Na49  1  -0.00074122  0.16601641  0.24964247  1
  Na  Na50  1  -0.00214632  0.16767332  0.49912165  1
  Na  Na51  1  0.00027136  0.16616448  0.74998039  1
  Na  Na52  1  0.00003607  0.49996634  0.00045898  1
  Na  Na53  1  -0.00039618  0.50023946  0.25055900  1
  Na  Na54  1  0.00141111  0.49980460  0.49923389  1
  Na  Na55  1  0.00071287  0.50042206  0.75024100  1
  Na  Na56  1  -0.00081324  0.83356499  0.00103564  1
  Na  Na57  1  -0.00167035  0.83382209  0.24963056  1
  Na  Na58  1  0.00185038  0.83299763  0.49940943  1
  Na  Na59  1  0.00221600  0.83269851  0.75080755  1
  Na  Na60  1  0.49970963  0.16644138  -0.00031399  1
  Na  Na61  1  0.50023153  0.16654926  0.24924847  1
  Na  Na62  1  0.49735594  0.16785482  0.50005319  1
  Na  Na63  1  0.49834830  0.16712771  0.75163989  1
  Na  Na64  1  0.50137413  0.49999972  0.00035988  1
  Na  Na65  1  0.50228276  0.49944455  0.24844128  1
  Na  Na66  1  0.49838376  0.50033678  0.50028146  1
  Na  Na67  1  0.49683840  0.50087803  0.75045249  1
  Na  Na68  1  0.50341337  0.83224890  -0.00009501  1
  Na  Na69  1  0.50314845  0.83275619  0.24940448  1
  Na  Na70  1  0.50005687  0.83269123  0.50047354  1
  Na  Na71  1  0.49902127  0.83330106  0.75015931  1
  Na  Na72  1  0.25090654  0.16628967  0.12543881  1
  Na  Na73  1  0.25136268  0.16625323  0.37504691  1
  Na  Na74  1  0.25019691  0.16697793  0.62416670  1
  Na  Na75  1  0.25096913  0.16611310  0.87526173  1
  Na  Na76  1  0.24964891  0.50000074  0.12507828  1
  Na  Na77  1  0.24964107  0.50039841  0.37418546  1
  Na  Na78  1  0.25098673  0.49994885  0.62560644  1
  Na  Na79  1  0.25131319  0.49976642  0.87449734  1
  Na  Na80  1  0.24803808  0.83343227  0.12538521  1
  Na  Na81  1  0.24778369  0.83367359  0.37517878  1
  Na  Na82  1  0.24925772  0.83209148  0.62529611  1
  Na  Na83  1  0.24603597  0.83444431  0.87562947  1
  Na  Na84  1  0.74836807  0.16783577  0.12441997  1
  Na  Na85  1  0.75291467  0.16587899  0.37507266  1
  Na  Na86  1  0.75249553  0.16679059  0.62509757  1
  Na  Na87  1  0.75205441  0.16595608  0.87481651  1
  Na  Na88  1  0.74859442  0.50090959  0.12454799  1
  Na  Na89  1  0.74924216  0.50021926  0.37566873  1
  Na  Na90  1  0.75031514  0.49979570  0.62511062  1
  Na  Na91  1  0.74887162  0.50065862  0.87456822  1
  Na  Na92  1  0.75129963  0.83249142  0.12488032  1
  Na  Na93  1  0.74943863  0.83360373  0.37470324  1
  Na  Na94  1  0.75002405  0.83341959  0.62476519  1
  Na  Na95  1  0.74992618  0.83338265  0.87525749  1
  Mn  Mn96  1  0.85837506  0.75008488  0.50225110  1
  Mn  Mn97  1  0.10749843  0.41600462  0.12269107  1
  Mn  Mn98  1  0.89126796  0.24982761  0.12716425  1
  Mn  Mn99  1  0.60842850  0.41612812  0.12219023  1
  Mn  Mn100  1  0.89396123  0.91617330  0.62713251  1
  Mn  Mn101  1  0.35825271  0.75071949  0.25175613  1
  Mn  Mn102  1  0.14144923  0.58359005  0.24793630  1
  Mn  Mn103  1  0.60844389  0.08387649  0.37297844  1
  Mn  Mn104  1  0.85914000  0.74983506  0.75209603  1
  Mn  Mn105  1  0.14199898  0.24994096  0.74771710  1
  Mn  Mn106  1  0.64102582  0.58335416  0.49805151  1
  Mn  Mn107  1  0.35723271  0.75051919  0.00258287  1
  Mn  Mn108  1  0.14286773  0.58344468  0.74825818  1
  Mn  Mn109  1  0.64254909  0.24953213  0.74739715  1
  Mn  Mn110  1  0.64221633  0.24960865  0.49819112  1
  Mn  Mn111  1  0.10877976  0.41623230  0.62223227  1
  Mn  Mn112  1  0.85732178  0.08342173  0.25187773  1
  Mn  Mn113  1  0.85712842  0.41689390  0.00117416  1
  Mn  Mn114  1  0.60634402  0.74993216  0.62328310  1
  Mn  Mn115  1  0.85940487  0.08284294  0.75228077  1
  Mn  Mn116  1  0.35847650  0.41724450  0.25241767  1
  Mn  Mn117  1  0.39159288  0.91598797  0.87801184  1
  Mn  Mn118  1  0.60815977  0.08333324  0.87275599  1
  Mn  Mn119  1  0.39200380  0.25005899  0.87818154  1
  Mn  Mn120  1  0.14218673  0.24945902  0.24791877  1
  Mn  Mn121  1  0.14270016  0.25037957  0.99800410  1
  Mn  Mn122  1  0.39243312  0.91675960  0.37645394  1
  Mn  Mn123  1  0.89338234  0.58343778  0.62687522  1
  Mn  Mn124  1  0.60604753  0.41669462  0.62322359  1
  Mn  Mn125  1  0.85805177  0.41645408  0.50208518  1
  Mn  Mn126  1  0.10699650  0.08379896  0.37254465  1
  Mn  Mn127  1  0.64226962  0.91714422  0.49793234  1
  Mn  Mn128  1  0.60796854  0.08371720  0.62261685  1
  Mn  Mn129  1  0.39299533  0.91660393  0.12702704  1
  Mn  Mn130  1  0.10728984  0.08379455  0.87343122  1
  Mn  Mn131  1  0.64169964  0.58354089  0.74785484  1
  Mn  Mn132  1  0.35755335  0.08253056  0.50260229  1
  Mn  Mn133  1  0.85838464  0.41730800  0.75265117  1
  Mn  Mn134  1  0.64215030  0.25006266  0.24826244  1
  Mn  Mn135  1  0.35798580  0.08220889  0.25154328  1
  Mn  Mn136  1  0.39060519  0.91716075  0.62755239  1
  Mn  Mn137  1  0.64270024  0.91704130  0.74790514  1
  Mn  Mn138  1  0.35674723  0.08234819  0.75190177  1
  Mn  Mn139  1  0.39321845  0.58394016  0.12663501  1
  Mn  Mn140  1  0.89124216  0.58345859  0.12727104  1
  Mn  Mn141  1  0.14263718  0.25075263  0.49732928  1
  Mn  Mn142  1  0.39277343  0.58353745  0.37688358  1
  Mn  Mn143  1  0.10650953  0.75016899  0.12289178  1
  Fe  Fe144  1  0.14251294  0.58308189  0.99782936  1
  Fe  Fe145  1  0.39278233  0.25002023  0.37637121  1
  Fe  Fe146  1  0.60801219  0.08341947  0.12219451  1
  Fe  Fe147  1  0.64418778  0.91650062  0.99788111  1
  Fe  Fe148  1  0.89329888  0.91613778  0.87719448  1
  Fe  Fe149  1  0.89245170  0.91691933  0.12680309  1
  Fe  Fe150  1  0.89234966  0.25031140  0.37682207  1
  Fe  Fe151  1  0.10688455  0.08354184  0.12301359  1
  Fe  Fe152  1  0.85713626  0.08295725  0.00192138  1
  Fe  Fe153  1  0.64360265  0.91608287  0.24814238  1
  Fe  Fe154  1  0.85840274  0.08282362  0.50167286  1
  Fe  Fe155  1  0.35728314  0.41666346  0.00136973  1
  Fe  Fe156  1  0.10668795  0.74928305  0.87430928  1
  Fe  Fe157  1  0.89267948  0.25042960  0.87695803  1
  Fe  Fe158  1  0.64340795  0.58351593  0.24915189  1
  Fe  Fe159  1  0.10876444  0.74973059  0.62259347  1
  Fe  Fe160  1  0.35605300  0.75054553  0.75276640  1
  Fe  Fe161  1  0.85635137  0.74926490  0.25232773  1
  Fe  Fe162  1  0.35728280  0.41706849  0.75280275  1
  Fe  Fe163  1  0.10725193  0.08373348  0.62274815  1
  Fe  Fe164  1  0.85709773  0.75007104  0.00113284  1
  Fe  Fe165  1  0.89280796  0.91643645  0.37653826  1
  Fe  Fe166  1  0.89260191  0.58336528  0.37712174  1
  Fe  Fe167  1  0.85700346  0.41770522  0.25233879  1
  Fe  Fe168  1  0.39193580  0.24977791  0.62712488  1
  Fe  Fe169  1  0.14238659  0.91593041  0.49759634  1
  Fe  Fe170  1  0.39282326  0.58382779  0.87789857  1
  Fe  Fe171  1  0.14330634  0.58326814  0.49819229  1
  Fe  Fe172  1  0.60922968  0.75064815  0.12261558  1
  Fe  Fe173  1  0.10722991  0.41679975  0.37333295  1
  Fe  Fe174  1  0.39346750  0.24938237  0.12594585  1
  Fe  Fe175  1  0.14139788  0.91677659  0.24821509  1
  Fe  Fe176  1  0.60707400  0.41673253  0.37370227  1
  Fe  Fe177  1  0.89315599  0.58325562  0.87685092  1
  Fe  Fe178  1  0.60641097  0.41742074  0.87297069  1
  Fe  Fe179  1  0.35747251  0.41766898  0.50077627  1
  Fe  Fe180  1  0.10768649  0.41678667  0.87394799  1
  Fe  Fe181  1  0.64257318  0.25001169  0.99765851  1
  Fe  Fe182  1  0.14166630  0.91651823  0.99864496  1
  Fe  Fe183  1  0.60748588  0.74940718  0.87264439  1
  Fe  Fe184  1  0.60771667  0.74955864  0.37358944  1
  Fe  Fe185  1  0.35666230  0.74995622  0.50103567  1
  Fe  Fe186  1  0.89340052  0.25016879  0.62655707  1
  Fe  Fe187  1  0.64292437  0.58359075  0.99700099  1
  Fe  Fe188  1  0.14179736  0.91684751  0.74885595  1
  Fe  Fe189  1  0.10702798  0.74956515  0.37291076  1
  Fe  Fe190  1  0.39084379  0.58334172  0.62663102  1
  Fe  Fe191  1  0.35716654  0.08306986  0.00247221  1
  P  P192  1  0.05288275  0.24903784  0.11001376  1
  P  P193  1  0.05184231  0.25089268  0.35992233  1
  P  P194  1  0.05249844  0.24943422  0.60952842  1
  P  P195  1  0.05222939  0.25091491  0.86047615  1
  P  P196  1  0.05337418  0.58319255  0.10935342  1
  P  P197  1  0.05351870  0.58339187  0.36127102  1
  P  P198  1  0.05504816  0.58381214  0.60910549  1
  P  P199  1  0.05385609  0.58312994  0.86179673  1
  P  P200  1  0.05346987  0.91738208  0.11078718  1
  P  P201  1  0.05381218  0.91567005  0.36043108  1
  P  P202  1  0.05619871  0.91631532  0.61066989  1
  P  P203  1  0.05392980  0.91585109  0.86153287  1
  P  P204  1  0.55352508  0.24929140  0.10898243  1
  P  P205  1  0.55203897  0.25116891  0.36012016  1
  P  P206  1  0.55145354  0.25016189  0.61030709  1
  P  P207  1  0.55461089  0.25087460  0.86108541  1
  P  P208  1  0.55661001  0.58425053  0.11032586  1
  P  P209  1  0.55396749  0.58318284  0.35947897  1
  P  P210  1  0.55048756  0.58345528  0.61057059  1
  P  P211  1  0.55338875  0.58353919  0.86118012  1
  P  P212  1  0.55665651  0.91658081  0.11034359  1
  P  P213  1  0.55445765  0.91584856  0.35913240  1
  P  P214  1  0.55249896  0.91673749  0.61014831  1
  P  P215  1  0.55483637  0.91563650  0.86135878  1
  P  P216  1  0.44716597  0.08342943  0.13832989  1
  P  P217  1  0.44691156  0.08353276  0.38957422  1
  P  P218  1  0.44651552  0.08379166  0.64072810  1
  P  P219  1  0.44560434  0.08256894  0.89130389  1
  P  P220  1  0.44566831  0.41618339  0.13800788  1
  P  P221  1  0.44741446  0.41644523  0.39005248  1
  P  P222  1  0.44333476  0.41695737  0.63953383  1
  P  P223  1  0.44563786  0.41780097  0.88977562  1
  P  P224  1  0.44908061  0.75027740  0.13967376  1
  P  P225  1  0.44763611  0.75032927  0.39014525  1
  P  P226  1  0.44307875  0.74957985  0.63984618  1
  P  P227  1  0.44642094  0.74957410  0.88952493  1
  P  P228  1  0.94601531  0.08229685  0.13870098  1
  P  P229  1  0.94557498  0.08273086  0.39001134  1
  P  P230  1  0.94745143  0.08356010  0.63853945  1
  P  P231  1  0.94607413  0.08305163  0.89087007  1
  P  P232  1  0.94520748  0.41703837  0.14088104  1
  P  P233  1  0.94627328  0.41723313  0.38860896  1
  P  P234  1  0.94737811  0.41644725  0.63988109  1
  P  P235  1  0.94810294  0.41692854  0.89012631  1
  P  P236  1  0.94357285  0.75076884  0.13949157  1
  P  P237  1  0.94619200  0.74991179  0.38839889  1
  P  P238  1  0.94958170  0.74987371  0.63988462  1
  P  P239  1  0.94729262  0.74975090  0.89077437  1
  P  P240  1  0.19538809  0.08267820  0.23435241  1
  P  P241  1  0.19515957  0.08315137  0.48581825  1
  P  P242  1  0.19516906  0.08292957  0.73445405  1
  P  P243  1  0.19645054  0.08308724  0.98657211  1
  P  P244  1  0.19546076  0.41651310  0.23594404  1
  P  P245  1  0.19777044  0.41761560  0.48415189  1
  P  P246  1  0.19693429  0.41678990  0.73628389  1
  P  P247  1  0.19745020  0.41717549  0.98450617  1
  P  P248  1  0.19490090  0.75071313  0.23588173  1
  P  P249  1  0.19574449  0.74931618  0.48542405  1
  P  P250  1  0.19521413  0.75046630  0.73635918  1
  P  P251  1  0.19520051  0.74978214  0.98485312  1
  P  P252  1  0.69611370  0.08270364  0.23409476  1
  P  P253  1  0.69889231  0.08356747  0.48482393  1
  P  P254  1  0.69789184  0.08317861  0.73455370  1
  P  P255  1  0.69693164  0.08315499  0.98600327  1
  P  P256  1  0.69663053  0.41738552  0.23649419  1
  P  P257  1  0.69557635  0.41634166  0.48483533  1
  P  P258  1  0.69541487  0.41696332  0.73565571  1
  P  P259  1  0.69562580  0.41660925  0.98378685  1
  P  P260  1  0.69617788  0.74965572  0.23594724  1
  P  P261  1  0.69595847  0.75009652  0.48461085  1
  P  P262  1  0.69610023  0.74993147  0.73566056  1
  P  P263  1  0.69628244  0.75021642  0.98533600  1
  P  P264  1  0.30417098  0.25020876  0.01588753  1
  P  P265  1  0.30556067  0.24939771  0.26432667  1
  P  P266  1  0.30539727  0.25108057  0.51394947  1
  P  P267  1  0.30432258  0.25030352  0.76420190  1
  P  P268  1  0.30319266  0.58291946  0.01390313  1
  P  P269  1  0.30340420  0.58405325  0.26478901  1
  P  P270  1  0.30264428  0.58363861  0.51485676  1
  P  P271  1  0.30551559  0.58385009  0.76482859  1
  P  P272  1  0.30149484  0.91694148  0.01547974  1
  P  P273  1  0.30145433  0.91659427  0.26501912  1
  P  P274  1  0.30149495  0.91555404  0.51460936  1
  P  P275  1  0.30097876  0.91588525  0.76553577  1
  P  P276  1  0.80317146  0.24982685  0.01339883  1
  P  P277  1  0.80372612  0.25107835  0.26560382  1
  P  P278  1  0.80563063  0.24927068  0.51473836  1
  P  P279  1  0.80587201  0.25011819  0.76468433  1
  P  P280  1  0.80326411  0.58394708  0.01333790  1
  P  P281  1  0.80278812  0.58346572  0.26564521  1
  P  P282  1  0.80408156  0.58337613  0.51442386  1
  P  P283  1  0.80433679  0.58363475  0.76592709  1
  P  P284  1  0.80489477  0.91616875  0.01407037  1
  P  P285  1  0.80418597  0.91569381  0.26392580  1
  P  P286  1  0.80527868  0.91697566  0.51385071  1
  P  P287  1  0.80497462  0.91610312  0.76596340  1
  O  O288  1  0.05605421  0.24940862  0.18675795  1
  O  O289  1  0.05599403  0.25062036  0.43659872  1
  O  O290  1  0.05607273  0.24991723  0.68627493  1
  O  O291  1  0.05615969  0.25063589  0.93715711  1
  O  O292  1  0.05626465  0.58339710  0.18618919  1
  O  O293  1  0.05869497  0.58336195  0.43788556  1
  O  O294  1  0.05779097  0.58308561  0.68597742  1
  O  O295  1  0.05825792  0.58288021  0.93848787  1
  O  O296  1  0.05770205  0.91670058  0.18752575  1
  O  O297  1  0.05875718  0.91604978  0.43717379  1
  O  O298  1  0.05916540  0.91617176  0.68759571  1
  O  O299  1  0.05822412  0.91677163  0.93829731  1
  O  O300  1  0.55696191  0.25000598  0.18573830  1
  O  O301  1  0.55561512  0.25046405  0.43680746  1
  O  O302  1  0.55564683  0.24992841  0.68703112  1
  O  O303  1  0.55906269  0.24978501  0.93785271  1
  O  O304  1  0.56069199  0.58352341  0.18710802  1
  O  O305  1  0.55555599  0.58332542  0.43635052  1
  O  O306  1  0.55450531  0.58359555  0.68726163  1
  O  O307  1  0.55844843  0.58367951  0.93789605  1
  O  O308  1  0.56065273  0.91640934  0.18714213  1
  O  O309  1  0.55676878  0.91655539  0.43597847  1
  O  O310  1  0.55599167  0.91674754  0.68693832  1
  O  O311  1  0.55977848  0.91634491  0.93809913  1
  O  O312  1  0.44171691  0.08224597  0.06170641  1
  O  O313  1  0.44420294  0.08243242  0.31276224  1
  O  O314  1  0.44340755  0.08273329  0.56389087  1
  O  O315  1  0.44175129  0.08231572  0.81453866  1
  O  O316  1  0.44150693  0.41724305  0.06127699  1
  O  O317  1  0.44446055  0.41731606  0.31324139  1
  O  O318  1  0.44000697  0.41752463  0.56268517  1
  O  O319  1  0.44103100  0.41694563  0.81302381  1
  O  O320  1  0.44424566  0.75031870  0.06301338  1
  O  O321  1  0.44419332  0.75046125  0.31337947  1
  O  O322  1  0.43907451  0.75036458  0.56299420  1
  O  O323  1  0.44082812  0.75087625  0.81290733  1
  O  O324  1  0.94096705  0.08300745  0.06203691  1
  O  O325  1  0.94280218  0.08247299  0.31315891  1
  O  O326  1  0.94303271  0.08286512  0.56187264  1
  O  O327  1  0.94435849  0.08276214  0.81398522  1
  O  O328  1  0.94182254  0.41726153  0.06409715  1
  O  O329  1  0.94151378  0.41749407  0.31194110  1
  O  O330  1  0.94415590  0.41725293  0.56310427  1
  O  O331  1  0.94475566  0.41710775  0.81343735  1
  O  O332  1  0.93972805  0.74978648  0.06270278  1
  O  O333  1  0.94119029  0.74973414  0.31171699  1
  O  O334  1  0.94532159  0.75008354  0.56319152  1
  O  O335  1  0.94472216  0.74975941  0.81400881  1
  O  O336  1  0.19140248  0.08362698  0.06320179  1
  O  O337  1  0.19232517  0.08378049  0.31119936  1
  O  O338  1  0.19106460  0.08425702  0.56257854  1
  O  O339  1  0.19251324  0.08413993  0.81134286  1
  O  O340  1  0.19374774  0.41663817  0.06125149  1
  O  O341  1  0.19059867  0.41635673  0.31271081  1
  O  O342  1  0.19457606  0.41661469  0.56096972  1
  O  O343  1  0.19137265  0.41643018  0.81291785  1
  O  O344  1  0.19227985  0.74968175  0.06165695  1
  O  O345  1  0.19075233  0.74995532  0.31268646  1
  O  O346  1  0.19213410  0.74927113  0.56224282  1
  O  O347  1  0.19025424  0.74958822  0.81302908  1
  O  O348  1  0.69238294  0.08358282  0.06270775  1
  O  O349  1  0.69368573  0.08346360  0.31095172  1
  O  O350  1  0.69486181  0.08381908  0.56153467  1
  O  O351  1  0.69419995  0.08328723  0.81136179  1
  O  O352  1  0.69367409  0.41645074  0.06073246  1
  O  O353  1  0.69170349  0.41636166  0.31312061  1
  O  O354  1  0.69203926  0.41633971  0.56164504  1
  O  O355  1  0.69049056  0.41720369  0.81237377  1
  O  O356  1  0.69258324  0.75002067  0.06215608  1
  O  O357  1  0.69177156  0.74994715  0.31262861  1
  O  O358  1  0.69236036  0.74989769  0.56141690  1
  O  O359  1  0.69159861  0.74962491  0.81245566  1
  O  O360  1  0.31003297  0.24945636  0.18758183  1
  O  O361  1  0.30935357  0.25012696  0.43710465  1
  O  O362  1  0.30802676  0.24981044  0.68739923  1
  O  O363  1  0.30638590  0.24990846  0.93897308  1
  O  O364  1  0.30702451  0.58390238  0.18799906  1
  O  O365  1  0.30614031  0.58374444  0.43812457  1
  O  O366  1  0.30838861  0.58365255  0.68796179  1
  O  O367  1  0.30814974  0.58374618  0.93720195  1
  O  O368  1  0.30616775  0.91638257  0.18835458  1
  O  O369  1  0.30561627  0.91643252  0.43796253  1
  O  O370  1  0.30440043  0.91624243  0.68882566  1
  O  O371  1  0.30535410  0.91649525  0.93878320  1
  O  O372  1  0.80603509  0.25041949  0.18871773  1
  O  O373  1  0.80968545  0.25032710  0.43789697  1
  O  O374  1  0.81044580  0.25032417  0.68788073  1
  O  O375  1  0.80835254  0.25035453  0.93672141  1
  O  O376  1  0.80563967  0.58325046  0.18885425  1
  O  O377  1  0.80884842  0.58350422  0.43766330  1
  O  O378  1  0.80784143  0.58341779  0.68911184  1
  O  O379  1  0.80879904  0.58340326  0.93673347  1
  O  O380  1  0.80843496  0.91658318  0.18719274  1
  O  O381  1  0.80929381  0.91606285  0.43703697  1
  O  O382  1  0.80846771  0.91584173  0.68912556  1
  O  O383  1  0.80953581  0.91615955  0.93736452  1
  O  O384  1  0.23459475  0.25047568  0.04155426  1
  O  O385  1  0.23538822  0.24946687  0.28823821  1
  O  O386  1  0.23530629  0.25084571  0.53822616  1
  O  O387  1  0.23445378  0.24978807  0.78899252  1
  O  O388  1  0.23279372  0.58322191  0.03757863  1
  O  O389  1  0.23361549  0.58388793  0.28950721  1
  O  O390  1  0.23267356  0.58358360  0.53993333  1
  O  O391  1  0.23550497  0.58364332  0.78937470  1
  O  O392  1  0.23125174  0.91610440  0.03962547  1
  O  O393  1  0.23127228  0.91697964  0.28906627  1
  O  O394  1  0.23133236  0.91513265  0.53890287  1
  O  O395  1  0.23095343  0.91696836  0.79029294  1
  O  O396  1  0.73278143  0.25056429  0.03710585  1
  O  O397  1  0.73412294  0.24974603  0.29107454  1
  O  O398  1  0.73559585  0.25024591  0.53906973  1
  O  O399  1  0.73566693  0.24950795  0.78822821  1
  O  O400  1  0.73278527  0.58355556  0.03662841  1
  O  O401  1  0.73273984  0.58367714  0.29046731  1
  O  O402  1  0.73397319  0.58322391  0.53839216  1
  O  O403  1  0.73444318  0.58400824  0.79039798  1
  O  O404  1  0.73440106  0.91589657  0.03757232  1
  O  O405  1  0.73375216  0.91611181  0.28762955  1
  O  O406  1  0.73535937  0.91659314  0.53837893  1
  O  O407  1  0.73520853  0.91666858  0.79073637  1
  O  O408  1  0.26518617  0.08252669  0.20951030  1
  O  O409  1  0.26512072  0.08316734  0.46137712  1
  O  O410  1  0.26476078  0.08266378  0.70897486  1
  O  O411  1  0.26682335  0.08329525  0.96280249  1
  O  O412  1  0.26562561  0.41696392  0.21235071  1
  O  O413  1  0.26784872  0.41724323  0.45944803  1
  O  O414  1  0.26739557  0.41765655  0.71318702  1
  O  O415  1  0.26759785  0.41642858  0.96009673  1
  O  O416  1  0.26478397  0.75014200  0.21119974  1
  O  O417  1  0.26602755  0.74982781  0.46112019  1
  O  O418  1  0.26564045  0.74954660  0.71290915  1
  O  O419  1  0.26493896  0.75043395  0.95967126  1
  O  O420  1  0.76580785  0.08346879  0.20872668  1
  O  O421  1  0.76883987  0.08300714  0.46011695  1
  O  O422  1  0.76774670  0.08314599  0.71006028  1
  O  O423  1  0.76730582  0.08280419  0.96213717  1
  O  O424  1  0.76688391  0.41767885  0.21236131  1
  O  O425  1  0.76553506  0.41653987  0.46049559  1
  O  O426  1  0.76558864  0.41704243  0.71201539  1
  O  O427  1  0.76520081  0.41665904  0.95809474  1
  O  O428  1  0.76657744  0.74939766  0.21200916  1
  O  O429  1  0.76584760  0.75020070  0.46004151  1
  O  O430  1  0.76616014  0.74974049  0.71156352  1
  O  O431  1  0.76669511  0.75052633  0.96137512  1
  O  O432  1  0.01623109  0.08250877  0.16267505  1
  O  O433  1  0.01535611  0.08328501  0.41506218  1
  O  O434  1  0.01758373  0.08283507  0.66297221  1
  O  O435  1  0.01566351  0.08324376  0.91661146  1
  O  O436  1  0.01507997  0.41662371  0.16544864  1
  O  O437  1  0.01660017  0.41701765  0.41267683  1
  O  O438  1  0.01709098  0.41649854  0.66503922  1
  O  O439  1  0.01803048  0.41710536  0.91531691  1
  O  O440  1  0.01367800  0.75008131  0.16354109  1
  O  O441  1  0.01661474  0.75004008  0.41207526  1
  O  O442  1  0.01964197  0.74980911  0.66425617  1
  O  O443  1  0.01723810  0.74981800  0.91600031  1
  O  O444  1  0.51764877  0.08347655  0.16159424  1
  O  O445  1  0.51651686  0.08368424  0.41517082  1
  O  O446  1  0.51597094  0.08373396  0.66652194  1
  O  O447  1  0.51568608  0.08280524  0.91526600  1
  O  O448  1  0.51579576  0.41612707  0.16213099  1
  O  O449  1  0.51722662  0.41709728  0.41537441  1
  O  O450  1  0.51323430  0.41690192  0.66446342  1
  O  O451  1  0.51602914  0.41724740  0.91333746  1
  O  O452  1  0.51944944  0.75061349  0.16309404  1
  O  O453  1  0.51770984  0.74956802  0.41473135  1
  O  O454  1  0.51316678  0.75003219  0.66407920  1
  O  O455  1  0.51691216  0.74923887  0.91274153  1
  O  O456  1  0.48343215  0.24978613  0.08442743  1
  O  O457  1  0.48216247  0.25033261  0.33495198  1
  O  O458  1  0.48131703  0.25058701  0.58619102  1
  O  O459  1  0.48437589  0.25055509  0.83746338  1
  O  O460  1  0.48647587  0.58359046  0.08621993  1
  O  O461  1  0.48459708  0.58348356  0.33309738  1
  O  O462  1  0.48037852  0.58336640  0.58617642  1
  O  O463  1  0.48298864  0.58366833  0.83768636  1
  O  O464  1  0.48652380  0.91614277  0.08612778  1
  O  O465  1  0.48492321  0.91668475  0.33320296  1
  O  O466  1  0.48275515  0.91638880  0.58519381  1
  O  O467  1  0.48463346  0.91619687  0.83765102  1
  O  O468  1  0.98312108  0.25011253  0.08505276  1
  O  O469  1  0.98164812  0.24983415  0.33563906  1
  O  O470  1  0.98254762  0.25038045  0.58470528  1
  O  O471  1  0.98215656  0.24973834  0.83594612  1
  O  O472  1  0.98350430  0.58337690  0.08474092  1
  O  O473  1  0.98314711  0.58346065  0.33740055  1
  O  O474  1  0.98543697  0.58348098  0.58371802  1
  O  O475  1  0.98364440  0.58348076  0.83747312  1
  O  O476  1  0.98308838  0.91657233  0.08706530  1
  O  O477  1  0.98330272  0.91649636  0.33704429  1
  O  O478  1  0.98636450  0.91641151  0.58567897  1
  O  O479  1  0.98357863  0.91625337  0.83761069  1
  O  O480  1  0.08736199  0.31394588  0.07756162  1
  O  O481  1  0.08523027  0.31607223  0.32711301  1
  O  O482  1  0.08681831  0.31435494  0.57685299  1
  O  O483  1  0.08561277  0.31614686  0.82755733  1
  O  O484  1  0.08761766  0.64813814  0.07689490  1
  O  O485  1  0.08659060  0.64859298  0.32776262  1
  O  O486  1  0.08926317  0.64899977  0.57702595  1
  O  O487  1  0.08735050  0.64837764  0.82886647  1
  O  O488  1  0.08675161  0.98246845  0.07751974  1
  O  O489  1  0.08740954  0.98059897  0.32703762  1
  O  O490  1  0.09012978  0.98137486  0.57798009  1
  O  O491  1  0.08760206  0.98065980  0.82794226  1
  O  O492  1  0.58772098  0.31421837  0.07616110  1
  O  O493  1  0.58549201  0.31658490  0.32750366  1
  O  O494  1  0.58525019  0.31517458  0.57754964  1
  O  O495  1  0.58761898  0.31627338  0.82825805  1
  O  O496  1  0.58993706  0.64954688  0.07740118  1
  O  O497  1  0.58889649  0.64816458  0.32759603  1
  O  O498  1  0.58426147  0.64843414  0.57766058  1
  O  O499  1  0.58669048  0.64857448  0.82770097  1
  O  O500  1  0.59011400  0.98186294  0.07734495  1
  O  O501  1  0.58964951  0.98048149  0.32686285  1
  O  O502  1  0.58650612  0.98185334  0.57755854  1
  O  O503  1  0.58835553  0.98069861  0.82805134  1
  O  O504  1  0.41423789  0.01842025  0.17239919  1
  O  O505  1  0.41274320  0.01849421  0.42231238  1
  O  O506  1  0.41220285  0.01866776  0.67322700  1
  O  O507  1  0.41166923  0.01767587  0.92436219  1
  O  O508  1  0.41222745  0.35084034  0.17052740  1
  O  O509  1  0.41323295  0.35132597  0.42213309  1
  O  O510  1  0.40955488  0.35167549  0.67214737  1
  O  O511  1  0.41191199  0.35296504  0.92323076  1
  O  O512  1  0.41581562  0.68510114  0.17272325  1
  O  O513  1  0.41304548  0.68553551  0.42271455  1
  O  O514  1  0.40964342  0.68425628  0.67249502  1
  O  O515  1  0.41311117  0.68438164  0.92268585  1
  O  O516  1  0.91273822  0.01711603  0.17185781  1
  O  O517  1  0.91190012  0.01746812  0.42264680  1
  O  O518  1  0.91383657  0.01869312  0.67206461  1
  O  O519  1  0.91176916  0.01790736  0.92304404  1
  O  O520  1  0.91065944  0.35221785  0.17324374  1
  O  O521  1  0.91293251  0.35199738  0.42163148  1
  O  O522  1  0.91316387  0.35130115  0.67189822  1
  O  O523  1  0.91420407  0.35170002  0.92262211  1
  O  O524  1  0.90960361  0.68599853  0.17289936  1
  O  O525  1  0.91312112  0.68481904  0.42199571  1
  O  O526  1  0.91579718  0.68482523  0.67265143  1
  O  O527  1  0.91300362  0.68474283  0.92329070  1
  O  O528  1  0.16088032  0.01758247  0.20242894  1
  O  O529  1  0.16153463  0.01770548  0.45353705  1
  O  O530  1  0.16058187  0.01771097  0.70304129  1
  O  O531  1  0.16304342  0.01795538  0.95350331  1
  O  O532  1  0.16248323  0.35127437  0.20258475  1
  O  O533  1  0.16340646  0.35287987  0.45112635  1
  O  O534  1  0.16441915  0.35163858  0.70225953  1
  O  O535  1  0.16317808  0.35232257  0.95153336  1
  O  O536  1  0.16083056  0.68594515  0.20273950  1
  O  O537  1  0.16242330  0.68411207  0.45225317  1
  O  O538  1  0.16168882  0.68568626  0.70248620  1
  O  O539  1  0.16141592  0.68454939  0.95215806  1
  O  O540  1  0.66231545  0.01733267  0.20206054  1
  O  O541  1  0.66467240  0.01866720  0.45224536  1
  O  O542  1  0.66406518  0.01805525  0.70201398  1
  O  O543  1  0.66374122  0.01782121  0.95299853  1
  O  O544  1  0.66349826  0.35229369  0.20266716  1
  O  O545  1  0.66171201  0.35131415  0.45195762  1
  O  O546  1  0.66216718  0.35175463  0.70250563  1
  O  O547  1  0.66107742  0.35167182  0.95173613  1
  O  O548  1  0.66275090  0.68455903  0.20276644  1
  O  O549  1  0.66183433  0.68507392  0.45191765  1
  O  O550  1  0.66228588  0.68499892  0.70251438  1
  O  O551  1  0.66281475  0.68519633  0.95194952  1
  O  O552  1  0.33877024  0.31536481  0.04761280  1
  O  O553  1  0.33925189  0.31440836  0.29754474  1
  O  O554  1  0.33885659  0.31647174  0.54634504  1
  O  O555  1  0.33788490  0.31560566  0.79693970  1
  O  O556  1  0.33655659  0.64793492  0.04754353  1
  O  O557  1  0.33725651  0.64915604  0.29733262  1
  O  O558  1  0.33654900  0.64871348  0.54760228  1
  O  O559  1  0.33910783  0.64910961  0.79763975  1
  O  O560  1  0.33498752  0.98208257  0.04834740  1
  O  O561  1  0.33524798  0.98162318  0.29787991  1
  O  O562  1  0.33469998  0.98074038  0.54805346  1
  O  O563  1  0.33539201  0.98063036  0.79817618  1
  O  O564  1  0.83664542  0.31481059  0.04677071  1
  O  O565  1  0.83742560  0.31645838  0.29780850  1
  O  O566  1  0.83986811  0.31395175  0.54805532  1
  O  O567  1  0.83902929  0.31525430  0.79823164  1
  O  O568  1  0.83611823  0.64913760  0.04683452  1
  O  O569  1  0.83698592  0.64852588  0.29812273  1
  O  O570  1  0.83754218  0.64850000  0.54758568  1
  O  O571  1  0.83881772  0.64848510  0.79845819  1
  O  O572  1  0.83796763  0.98130956  0.04769251  1
  O  O573  1  0.83778576  0.98054010  0.29743546  1
  O  O574  1  0.83886251  0.98230720  0.54642781  1
  O  O575  1  0.83953796  0.98094795  0.79836947  1
  O  O576  1  0.41396965  0.14871786  0.17121131  1
  O  O577  1  0.41244340  0.14867045  0.42131207  1
  O  O578  1  0.41212071  0.14906341  0.67241362  1
  O  O579  1  0.41160320  0.14772679  0.92381648  1
  O  O580  1  0.41244831  0.48121292  0.17162868  1
  O  O581  1  0.41280561  0.48128196  0.42276390  1
  O  O582  1  0.40948549  0.48196990  0.67253954  1
  O  O583  1  0.41240354  0.48298638  0.92291991  1
  O  O584  1  0.41532781  0.81520722  0.17282342  1
  O  O585  1  0.41386286  0.81545108  0.42291913  1
  O  O586  1  0.40914766  0.81440391  0.67337501  1
  O  O587  1  0.41355620  0.81454426  0.92367509  1
  O  O588  1  0.91251213  0.14726858  0.17205444  1
  O  O589  1  0.91111066  0.14775067  0.42212275  1
  O  O590  1  0.91430273  0.14892611  0.67139877  1
  O  O591  1  0.91140943  0.14811614  0.92279227  1
  O  O592  1  0.91135274  0.48219381  0.17362492  1
  O  O593  1  0.91306521  0.48226967  0.42216138  1
  O  O594  1  0.91341358  0.48152375  0.67261997  1
  O  O595  1  0.91392671  0.48192736  0.92276784  1
  O  O596  1  0.91034431  0.81611187  0.17224024  1
  O  O597  1  0.91317134  0.81513711  0.42177331  1
  O  O598  1  0.91588322  0.81485650  0.67291807  1
  O  O599  1  0.91311483  0.81477280  0.92333001  1
  O  O600  1  0.08635852  0.18372951  0.07740967  1
  O  O601  1  0.08581751  0.18586851  0.32716101  1
  O  O602  1  0.08591098  0.18421142  0.57684448  1
  O  O603  1  0.08643763  0.18593170  0.82782993  1
  O  O604  1  0.08756960  0.51814630  0.07696327  1
  O  O605  1  0.08678722  0.51826868  0.32794070  1
  O  O606  1  0.08962600  0.51895482  0.57652998  1
  O  O607  1  0.08734872  0.51819758  0.82833880  1
  O  O608  1  0.08714240  0.85250107  0.07733964  1
  O  O609  1  0.08676217  0.85050913  0.32700781  1
  O  O610  1  0.08994881  0.85112270  0.57784187  1
  O  O611  1  0.08721634  0.85052447  0.82875582  1
  O  O612  1  0.58749460  0.18420433  0.07641067  1
  O  O613  1  0.58645719  0.18636047  0.32733159  1
  O  O614  1  0.58504915  0.18512588  0.57712793  1
  O  O615  1  0.58796351  0.18577773  0.82769650  1
  O  O616  1  0.59047480  0.51935471  0.07701384  1
  O  O617  1  0.58844709  0.51795547  0.32755402  1
  O  O618  1  0.58434615  0.51848631  0.57778176  1
  O  O619  1  0.58630736  0.51823201  0.82782355  1
  O  O620  1  0.59071094  0.85169981  0.07728553  1
  O  O621  1  0.58847801  0.85029219  0.32732055  1
  O  O622  1  0.58675001  0.85173133  0.57776437  1
  O  O623  1  0.58791075  0.85024230  0.82838590  1
  O  O624  1  0.33852440  0.18509191  0.04813495  1
  O  O625  1  0.33904308  0.18431343  0.29744998  1
  O  O626  1  0.33920904  0.18621825  0.54745642  1
  O  O627  1  0.33823201  0.18538317  0.79720914  1
  O  O628  1  0.33643905  0.51765450  0.04682389  1
  O  O629  1  0.33742571  0.51904994  0.29746027  1
  O  O630  1  0.33664874  0.51849113  0.54740713  1
  O  O631  1  0.33954708  0.51898003  0.79779936  1
  O  O632  1  0.33555694  0.85200844  0.04839225  1
  O  O633  1  0.33498000  0.85150424  0.29807013  1
  O  O634  1  0.33532271  0.85052317  0.54715987  1
  O  O635  1  0.33431565  0.85053745  0.79837906  1
  O  O636  1  0.83608431  0.18459056  0.04685505  1
  O  O637  1  0.83890050  0.18634203  0.29763211  1
  O  O638  1  0.83900522  0.18374929  0.54720293  1
  O  O639  1  0.83983433  0.18529122  0.79777391  1
  O  O640  1  0.83629501  0.51889706  0.04710178  1
  O  O641  1  0.83682764  0.51857126  0.29853440  1
  O  O642  1  0.83763955  0.51828933  0.54741341  1
  O  O643  1  0.83830849  0.51864065  0.79885550  1
  O  O644  1  0.83824333  0.85116508  0.04743209  1
  O  O645  1  0.83745877  0.85053734  0.29711628  1
  O  O646  1  0.83908706  0.85210066  0.54724906  1
  O  O647  1  0.83887193  0.85100070  0.79873176  1
  O  O648  1  0.16128023  0.14760204  0.20141878  1
  O  O649  1  0.16171457  0.14812563  0.45229916  1
  O  O650  1  0.16096350  0.14785642  0.70152756  1
  O  O651  1  0.16335628  0.14816716  0.95282362  1
  O  O652  1  0.16187147  0.48148591  0.20278496  1
  O  O653  1  0.16380228  0.48290046  0.45200752  1
  O  O654  1  0.16356549  0.48180172  0.70298760  1
  O  O655  1  0.16381541  0.48233260  0.95165634  1
  O  O656  1  0.16130908  0.81607107  0.20334955  1
  O  O657  1  0.16154398  0.81411009  0.45243034  1
  O  O658  1  0.16240907  0.81584104  0.70320903  1
  O  O659  1  0.16041040  0.81470818  0.95279942  1
  O  O660  1  0.66129227  0.14750497  0.20168884  1
  O  O661  1  0.66528610  0.14879394  0.45195746  1
  O  O662  1  0.66403480  0.14826556  0.70182767  1
  O  O663  1  0.66376073  0.14816893  0.95244673  1
  O  O664  1  0.66308257  0.48248311  0.20354106  1
  O  O665  1  0.66136351  0.48128050  0.45219519  1
  O  O666  1  0.66198628  0.48206663  0.70240222  1
  O  O667  1  0.66117898  0.48183531  0.95182615  1
  O  O668  1  0.66312639  0.81475191  0.20218692  1
  O  O669  1  0.66185663  0.81501532  0.45186569  1
  O  O670  1  0.66267690  0.81514420  0.70278195  1
  O  O671  1  0.66265683  0.81523048  0.95234755  1
