# generated using pymatgen
data_Na2MnFe(PO4)2
_symmetry_space_group_name_H-M   'P 1'
_cell_length_a   21.07992841
_cell_length_b   18.93127809
_cell_length_c   20.03933227
_cell_angle_alpha   89.99977294
_cell_angle_beta   90.00210253
_cell_angle_gamma   90.00000573
_symmetry_Int_Tables_number   1
_chemical_formula_structural   Na2MnFe(PO4)2
_chemical_formula_sum   'Na96 Mn48 Fe48 P96 O384'
_cell_volume   7997.09605790
_cell_formula_units_Z   48
loop_
 _symmetry_equiv_pos_site_id
 _symmetry_equiv_pos_as_xyz
  1  'x, y, z'
loop_
 _atom_site_type_symbol
 _atom_site_label
 _atom_site_symmetry_multiplicity
 _atom_site_fract_x
 _atom_site_fract_y
 _atom_site_fract_z
 _atom_site_occupancy
  Na  Na0  1  -0.00215737  -0.00034829  0.00091351  1
  Na  Na1  1  -0.00245648  -0.00073846  0.25075563  1
  Na  Na2  1  0.00118863  0.00071783  0.49872746  1
  Na  Na3  1  0.00241629  0.00163453  0.74887864  1
  Na  Na4  1  0.00014431  0.33346283  0.00099463  1
  Na  Na5  1  -0.00069336  0.33318644  0.24957871  1
  Na  Na6  1  0.00005492  0.33369846  0.49894801  1
  Na  Na7  1  -0.00120984  0.33262669  0.75125428  1
  Na  Na8  1  -0.00223901  0.66671863  0.00048917  1
  Na  Na9  1  -0.00320314  0.66617980  0.24973815  1
  Na  Na10  1  -0.00159531  0.66639769  0.49991745  1
  Na  Na11  1  -0.00149869  0.66670170  0.74964255  1
  Na  Na12  1  0.49927547  0.00026756  0.00061068  1
  Na  Na13  1  0.50084696  0.00084758  0.24972371  1
  Na  Na14  1  0.50103203  0.00026833  0.49951658  1
  Na  Na15  1  0.49846985  -0.00034218  0.75074901  1
  Na  Na16  1  0.50349509  0.33439520  -0.00100034  1
  Na  Na17  1  0.50109144  0.33324623  0.25015804  1
  Na  Na18  1  0.49973516  0.33330296  0.50021656  1
  Na  Na19  1  0.50107572  0.33414791  0.75030327  1
  Na  Na20  1  0.50114772  0.66679115  -0.00003724  1
  Na  Na21  1  0.49934850  0.66589584  0.25082796  1
  Na  Na22  1  0.49931986  0.66647364  0.49900455  1
  Na  Na23  1  0.49988718  0.66635417  0.75017482  1
  Na  Na24  1  0.25172922  0.00100345  0.12537516  1
  Na  Na25  1  0.25110080  0.00051156  0.37588210  1
  Na  Na26  1  0.24923204  0.00011230  0.62488765  1
  Na  Na27  1  0.24982338  0.00062317  0.87454330  1
  Na  Na28  1  0.24682185  0.33224467  0.12490298  1
  Na  Na29  1  0.24989456  0.33399975  0.37526194  1
  Na  Na30  1  0.24939364  0.33425488  0.62570151  1
  Na  Na31  1  0.24780661  0.33298644  0.87471281  1
  Na  Na32  1  0.25078785  0.66639479  0.12400319  1
  Na  Na33  1  0.25118603  0.66656306  0.37567303  1
  Na  Na34  1  0.25291004  0.66693573  0.62450993  1
  Na  Na35  1  0.25239167  0.66673725  0.87458746  1
  Na  Na36  1  0.75083168  0.00100441  0.12536344  1
  Na  Na37  1  0.74858399  -0.00009618  0.37387079  1
  Na  Na38  1  0.74908013  0.00003098  0.62485641  1
  Na  Na39  1  0.75093349  0.00054536  0.87556863  1
  Na  Na40  1  0.75053312  0.33363185  0.12421374  1
  Na  Na41  1  0.75107097  0.33387272  0.37631328  1
  Na  Na42  1  0.75125679  0.33332616  0.62479608  1
  Na  Na43  1  0.75087170  0.33356004  0.87429425  1
  Na  Na44  1  0.75127021  0.66703145  0.12507311  1
  Na  Na45  1  0.75205649  0.66757018  0.37509535  1
  Na  Na46  1  0.74985286  0.66696574  0.62497739  1
  Na  Na47  1  0.75111159  0.66737135  0.87542854  1
  Na  Na48  1  -0.00000279  0.16674120  0.00186121  1
  Na  Na49  1  -0.00188765  0.16699413  0.25029065  1
  Na  Na50  1  -0.00082188  0.16702057  0.49896488  1
  Na  Na51  1  0.00010284  0.16721732  0.74988295  1
  Na  Na52  1  -0.00195165  0.50036817  0.00076017  1
  Na  Na53  1  -0.00164385  0.50076815  0.24914588  1
  Na  Na54  1  0.00055168  0.49981045  0.49913973  1
  Na  Na55  1  0.00113911  0.49876672  0.75025498  1
  Na  Na56  1  -0.00241623  0.83329450  -0.00020245  1
  Na  Na57  1  -0.00239042  0.83331728  0.25067432  1
  Na  Na58  1  -0.00001757  0.83236774  0.49949344  1
  Na  Na59  1  -0.00193241  0.83364911  0.74957819  1
  Na  Na60  1  0.50071237  0.16621635  -0.00061034  1
  Na  Na61  1  0.50095633  0.16608934  0.24912984  1
  Na  Na62  1  0.50084753  0.16569094  0.49995682  1
  Na  Na63  1  0.49875524  0.16729433  0.75147320  1
  Na  Na64  1  0.50116667  0.49932403  -0.00013409  1
  Na  Na65  1  0.49997561  0.49963922  0.25083617  1
  Na  Na66  1  0.49863123  0.49989301  0.50032539  1
  Na  Na67  1  0.49860989  0.50036173  0.74946711  1
  Na  Na68  1  0.50230434  0.83242785  0.00046098  1
  Na  Na69  1  0.50051020  0.83395523  0.25072202  1
  Na  Na70  1  0.50166010  0.83294846  0.49877546  1
  Na  Na71  1  0.50158647  0.83257180  0.75001174  1
  Na  Na72  1  0.24927967  0.16637388  0.12495649  1
  Na  Na73  1  0.24783139  0.16731976  0.37573165  1
  Na  Na74  1  0.24918480  0.16664724  0.62570785  1
  Na  Na75  1  0.24979552  0.16617916  0.87450958  1
  Na  Na76  1  0.24932131  0.50060508  0.12395523  1
  Na  Na77  1  0.25162251  0.49969998  0.37624512  1
  Na  Na78  1  0.25158195  0.49972108  0.62550103  1
  Na  Na79  1  0.25045389  0.49991208  0.87407004  1
  Na  Na80  1  0.25102194  0.83316819  0.12523675  1
  Na  Na81  1  0.25226046  0.83270450  0.37480556  1
  Na  Na82  1  0.24955305  0.83395166  0.62408555  1
  Na  Na83  1  0.25009230  0.83325415  0.87498949  1
  Na  Na84  1  0.74978060  0.16715333  0.12508040  1
  Na  Na85  1  0.75195331  0.16574448  0.37506508  1
  Na  Na86  1  0.75233166  0.16655417  0.62467467  1
  Na  Na87  1  0.75225700  0.16672578  0.87461889  1
  Na  Na88  1  0.75195461  0.49891407  0.12502567  1
  Na  Na89  1  0.75076734  0.49959407  0.37522753  1
  Na  Na90  1  0.74855666  0.50021183  0.62435700  1
  Na  Na91  1  0.75057020  0.49892194  0.87520923  1
  Na  Na92  1  0.75025552  0.83286873  0.12452387  1
  Na  Na93  1  0.74850798  0.83364382  0.37508988  1
  Na  Na94  1  0.74939575  0.83275213  0.62545095  1
  Na  Na95  1  0.75074951  0.83226949  0.87555523  1
  Mn  Mn96  1  0.10777311  0.74969505  0.62293796  1
  Mn  Mn97  1  0.14215869  0.91578632  0.74775898  1
  Mn  Mn98  1  0.14277721  0.91618046  0.24767685  1
  Mn  Mn99  1  0.39259471  0.25040707  0.12645808  1
  Mn  Mn100  1  0.39229144  0.25084020  0.87781405  1
  Mn  Mn101  1  0.10700886  0.41739787  0.12306461  1
  Mn  Mn102  1  0.39306508  0.91657505  0.12745955  1
  Mn  Mn103  1  0.35878376  0.75070270  0.00244947  1
  Mn  Mn104  1  0.39253889  0.91608497  0.62693678  1
  Mn  Mn105  1  0.89215541  0.91730871  0.62656677  1
  Mn  Mn106  1  0.10742628  0.75001221  0.87243669  1
  Mn  Mn107  1  0.89166614  0.58222146  0.62736701  1
  Mn  Mn108  1  0.14328567  0.58394599  0.74795027  1
  Mn  Mn109  1  0.89210055  0.91770545  0.87715619  1
  Mn  Mn110  1  0.10701066  0.75026566  0.12360969  1
  Mn  Mn111  1  0.10726850  0.08224187  0.12365819  1
  Mn  Mn112  1  0.10695744  0.08313536  0.37231079  1
  Mn  Mn113  1  0.14158715  0.58324931  0.99732706  1
  Mn  Mn114  1  0.60772350  0.74996616  0.37238308  1
  Mn  Mn115  1  0.60804731  0.08330299  0.87287501  1
  Mn  Mn116  1  0.89088999  0.91643598  0.37812903  1
  Mn  Mn117  1  0.35776344  0.41649677  0.25141173  1
  Mn  Mn118  1  0.35751895  0.08425962  0.50226994  1
  Mn  Mn119  1  0.60733487  0.41593218  0.37317085  1
  Mn  Mn120  1  0.85942889  0.08307372  0.75244281  1
  Mn  Mn121  1  0.35834751  0.75008461  0.50264493  1
  Mn  Mn122  1  0.39179717  0.25019863  0.62737860  1
  Mn  Mn123  1  0.60785066  0.08345638  0.62317767  1
  Mn  Mn124  1  0.10722499  0.74942970  0.37231776  1
  Mn  Mn125  1  0.89185720  0.58253855  0.87714502  1
  Mn  Mn126  1  0.89176795  0.24988655  0.12769092  1
  Mn  Mn127  1  0.39206262  0.91597501  0.87756700  1
  Mn  Mn128  1  0.14133793  0.91698427  0.99831100  1
  Mn  Mn129  1  0.64283187  0.24948502  0.49797613  1
  Mn  Mn130  1  0.39269162  0.58285580  0.12730960  1
  Mn  Mn131  1  0.64299204  0.58271547  0.99798633  1
  Mn  Mn132  1  0.10766738  0.41747001  0.37239161  1
  Mn  Mn133  1  0.14280827  0.58363093  0.49785918  1
  Mn  Mn134  1  0.64271156  0.25009918  0.24778128  1
  Mn  Mn135  1  0.35780502  0.41540272  0.00204485  1
  Mn  Mn136  1  0.64281540  0.58337701  0.24800465  1
  Mn  Mn137  1  0.14157508  0.25028182  0.74771446  1
  Mn  Mn138  1  0.64312618  0.91726113  0.99790908  1
  Mn  Mn139  1  0.64203560  0.58288310  0.74751584  1
  Mn  Mn140  1  0.64347907  0.24979513  0.74763332  1
  Mn  Mn141  1  0.39141693  0.24963017  0.37718284  1
  Mn  Mn142  1  0.85789585  0.41685103  0.50318063  1
  Mn  Mn143  1  0.64211379  0.91700569  0.74782948  1
  Fe  Fe144  1  0.89261812  0.25061269  0.37670286  1
  Fe  Fe145  1  0.35755062  0.41636292  0.75224337  1
  Fe  Fe146  1  0.60762384  0.74938198  0.62327080  1
  Fe  Fe147  1  0.35707512  0.41581045  0.50221783  1
  Fe  Fe148  1  0.85608598  0.75055594  0.50203622  1
  Fe  Fe149  1  0.64246604  0.91680263  0.49833628  1
  Fe  Fe150  1  0.35799714  0.08347554  0.25173824  1
  Fe  Fe151  1  0.35816096  0.75012607  0.25129558  1
  Fe  Fe152  1  0.89127847  0.91624223  0.12741865  1
  Fe  Fe153  1  0.10755237  0.08385951  0.62268910  1
  Fe  Fe154  1  0.39359491  0.91705191  0.37638007  1
  Fe  Fe155  1  0.60807454  0.41718124  0.87253313  1
  Fe  Fe156  1  0.85712747  0.41654700  0.00161101  1
  Fe  Fe157  1  0.60797222  0.74965836  0.12385729  1
  Fe  Fe158  1  0.85647390  0.75018621  0.25194711  1
  Fe  Fe159  1  0.39215447  0.58331824  0.37665100  1
  Fe  Fe160  1  0.35889898  0.75032373  0.75180067  1
  Fe  Fe161  1  0.60896682  0.41648274  0.12325236  1
  Fe  Fe162  1  0.64215349  0.58372280  0.49829960  1
  Fe  Fe163  1  0.89378930  0.25016973  0.62609649  1
  Fe  Fe164  1  0.85691962  0.08232176  0.50159506  1
  Fe  Fe165  1  0.85607913  0.08345826  0.25201657  1
  Fe  Fe166  1  0.14193972  0.24953745  0.99824267  1
  Fe  Fe167  1  0.60781125  0.08364784  0.37313646  1
  Fe  Fe168  1  0.89189707  0.58389854  0.12748081  1
  Fe  Fe169  1  0.39369112  0.58314331  0.87645485  1
  Fe  Fe170  1  0.64373139  0.24991819  0.99828546  1
  Fe  Fe171  1  0.60801307  0.74932754  0.87334619  1
  Fe  Fe172  1  0.60777432  0.08385849  0.12260111  1
  Fe  Fe173  1  0.35680103  0.08376592  0.00145477  1
  Fe  Fe174  1  0.39370380  0.58336945  0.62657530  1
  Fe  Fe175  1  0.60698782  0.41687616  0.62349332  1
  Fe  Fe176  1  0.89336270  0.24998433  0.87721091  1
  Fe  Fe177  1  0.14257849  0.58371744  0.24885600  1
  Fe  Fe178  1  0.85791497  0.41726993  0.75158377  1
  Fe  Fe179  1  0.89216064  0.58292685  0.37702092  1
  Fe  Fe180  1  0.10718263  0.08362081  0.87424401  1
  Fe  Fe181  1  0.14187852  0.25022474  0.49838736  1
  Fe  Fe182  1  0.10763321  0.41651488  0.62380724  1
  Fe  Fe183  1  0.14265037  0.91664898  0.49779157  1
  Fe  Fe184  1  0.85783410  0.08353042  0.00213315  1
  Fe  Fe185  1  0.64276269  0.91666156  0.24793412  1
  Fe  Fe186  1  0.35658501  0.08349500  0.75168421  1
  Fe  Fe187  1  0.85709210  0.75000182  0.00212501  1
  Fe  Fe188  1  0.14210145  0.25018960  0.24890948  1
  Fe  Fe189  1  0.10646802  0.41668473  0.87362915  1
  Fe  Fe190  1  0.85668515  0.74956593  0.75142492  1
  Fe  Fe191  1  0.85727258  0.41657518  0.25208948  1
  P  P192  1  0.05500409  0.24971886  0.11112646  1
  P  P193  1  0.05339837  0.25025624  0.36028432  1
  P  P194  1  0.05304723  0.25059097  0.60943240  1
  P  P195  1  0.05359259  0.24984893  0.86185441  1
  P  P196  1  0.05253101  0.58405104  0.11126163  1
  P  P197  1  0.05221547  0.58359570  0.35905415  1
  P  P198  1  0.05329642  0.58249399  0.61002734  1
  P  P199  1  0.05293229  0.58260508  0.85984479  1
  P  P200  1  0.05088980  0.91620709  0.11052462  1
  P  P201  1  0.05364763  0.91618639  0.36060692  1
  P  P202  1  0.05400593  0.91707193  0.60879901  1
  P  P203  1  0.05279985  0.91772573  0.85990031  1
  P  P204  1  0.55484664  0.24984753  0.10904464  1
  P  P205  1  0.55322979  0.24897242  0.35998953  1
  P  P206  1  0.55332461  0.25064489  0.61028902  1
  P  P207  1  0.55543218  0.25075062  0.86115747  1
  P  P208  1  0.55413860  0.58321560  0.11039030  1
  P  P209  1  0.55312700  0.58296961  0.36127377  1
  P  P210  1  0.55308469  0.58321175  0.60948115  1
  P  P211  1  0.55330069  0.58294705  0.86006226  1
  P  P212  1  0.55546268  0.91683914  0.11146254  1
  P  P213  1  0.55497123  0.91774101  0.36030488  1
  P  P214  1  0.55402370  0.91593550  0.60923102  1
  P  P215  1  0.55372562  0.91608438  0.86039338  1
  P  P216  1  0.44645269  0.08392731  0.13911758  1
  P  P217  1  0.44672764  0.08261518  0.38878896  1
  P  P218  1  0.44606836  0.08327558  0.64099482  1
  P  P219  1  0.44465763  0.08347234  0.88988680  1
  P  P220  1  0.44905423  0.41605701  0.13971361  1
  P  P221  1  0.44523779  0.41685787  0.39067882  1
  P  P222  1  0.44592775  0.41706982  0.63947978  1
  P  P223  1  0.44714258  0.41746785  0.88891465  1
  P  P224  1  0.44823982  0.74988333  0.14085337  1
  P  P225  1  0.44524594  0.75049144  0.38841957  1
  P  P226  1  0.44807347  0.74938249  0.64004311  1
  P  P227  1  0.44744799  0.74909107  0.88908924  1
  P  P228  1  0.94416267  0.08259663  0.14027452  1
  P  P229  1  0.94376828  0.08406734  0.38924112  1
  P  P230  1  0.94720161  0.08400397  0.63804593  1
  P  P231  1  0.94760889  0.08462335  0.89099643  1
  P  P232  1  0.94415290  0.41717268  0.13951594  1
  P  P233  1  0.94502155  0.41692932  0.38858466  1
  P  P234  1  0.94773629  0.41574232  0.64048187  1
  P  P235  1  0.94589604  0.41571073  0.88980321  1
  P  P236  1  0.94383139  0.75024011  0.13978236  1
  P  P237  1  0.94377194  0.74901647  0.38967991  1
  P  P238  1  0.94437108  0.75007351  0.63924660  1
  P  P239  1  0.94438463  0.74982810  0.88944681  1
  P  P240  1  0.19780292  0.08352077  0.23552874  1
  P  P241  1  0.19456393  0.08374406  0.48625904  1
  P  P242  1  0.19537167  0.08337404  0.73566414  1
  P  P243  1  0.19659192  0.08373139  0.98481145  1
  P  P244  1  0.19633897  0.41758349  0.23518875  1
  P  P245  1  0.19611565  0.41618153  0.48649794  1
  P  P246  1  0.19606034  0.41711929  0.73581656  1
  P  P247  1  0.19543544  0.41607769  0.98416954  1
  P  P248  1  0.19832036  0.74890612  0.23515654  1
  P  P249  1  0.19667440  0.75057427  0.48474135  1
  P  P250  1  0.19900528  0.74954551  0.73471561  1
  P  P251  1  0.19673232  0.75007751  0.98486271  1
  P  P252  1  0.69576682  0.08301339  0.23551277  1
  P  P253  1  0.69709283  0.08277971  0.48442858  1
  P  P254  1  0.69791313  0.08381666  0.73487784  1
  P  P255  1  0.69745773  0.08441229  0.98610550  1
  P  P256  1  0.69779230  0.41662707  0.23486256  1
  P  P257  1  0.69518218  0.41738939  0.48642190  1
  P  P258  1  0.69672148  0.41647245  0.73503897  1
  P  P259  1  0.69640172  0.41578696  0.98532477  1
  P  P260  1  0.69718959  0.75043102  0.23471727  1
  P  P261  1  0.69567692  0.74975987  0.48622559  1
  P  P262  1  0.69580073  0.74957494  0.73562461  1
  P  P263  1  0.69635125  0.74969811  0.98599670  1
  P  P264  1  0.30163849  0.24931980  0.01483031  1
  P  P265  1  0.30195122  0.24942910  0.26472000  1
  P  P266  1  0.30143677  0.25068834  0.51535686  1
  P  P267  1  0.30328280  0.25037114  0.76505706  1
  P  P268  1  0.30483498  0.58284869  0.01353970  1
  P  P269  1  0.30296536  0.58375831  0.26535103  1
  P  P270  1  0.30583687  0.58226694  0.51478770  1
  P  P271  1  0.30664845  0.58327424  0.76396531  1
  P  P272  1  0.30328484  0.91776527  0.01528721  1
  P  P273  1  0.30477991  0.91690441  0.26559766  1
  P  P274  1  0.30352422  0.91728403  0.51378647  1
  P  P275  1  0.30368705  0.91667575  0.76463742  1
  P  P276  1  0.80417774  0.25018457  0.01359568  1
  P  P277  1  0.80384851  0.25032460  0.26567020  1
  P  P278  1  0.80567892  0.24901805  0.51445868  1
  P  P279  1  0.80668848  0.25115965  0.76419473  1
  P  P280  1  0.80427520  0.58284096  0.01546977  1
  P  P281  1  0.80497793  0.58328207  0.26459035  1
  P  P282  1  0.80281051  0.58410040  0.51402808  1
  P  P283  1  0.80305746  0.58288728  0.76481826  1
  P  P284  1  0.80429356  0.91696662  0.01560396  1
  P  P285  1  0.80282144  0.91650585  0.26390602  1
  P  P286  1  0.80148584  0.91676731  0.51487952  1
  P  P287  1  0.80325774  0.91593362  0.76499834  1
  O  O288  1  0.05933161  0.24960353  0.18793549  1
  O  O289  1  0.05821039  0.25032290  0.43697156  1
  O  O290  1  0.05612947  0.25044059  0.68624246  1
  O  O291  1  0.05771650  0.24979231  0.93860353  1
  O  O292  1  0.05792989  0.58413397  0.18786787  1
  O  O293  1  0.05693505  0.58372430  0.43573617  1
  O  O294  1  0.05683301  0.58336842  0.68678242  1
  O  O295  1  0.05533864  0.58344426  0.93669259  1
  O  O296  1  0.05551548  0.91625606  0.18721714  1
  O  O297  1  0.05871713  0.91612189  0.43728936  1
  O  O298  1  0.05680634  0.91629592  0.68568212  1
  O  O299  1  0.05519860  0.91669833  0.93671389  1
  O  O300  1  0.55738941  0.24980167  0.18588255  1
  O  O301  1  0.55663057  0.24933983  0.43673458  1
  O  O302  1  0.55666347  0.25021058  0.68706466  1
  O  O303  1  0.56004140  0.24978745  0.93787228  1
  O  O304  1  0.55676382  0.58303294  0.18721393  1
  O  O305  1  0.55804788  0.58332019  0.43792550  1
  O  O306  1  0.55640630  0.58319649  0.68622555  1
  O  O307  1  0.55700242  0.58285426  0.93674791  1
  O  O308  1  0.55900817  0.91703566  0.18829508  1
  O  O309  1  0.55955211  0.91702920  0.43705295  1
  O  O310  1  0.55668071  0.91671671  0.68606508  1
  O  O311  1  0.55710560  0.91701999  0.93720754  1
  O  O312  1  0.44104781  0.08395469  0.06247695  1
  O  O313  1  0.44184611  0.08367390  0.31208499  1
  O  O314  1  0.44312911  0.08346655  0.56411456  1
  O  O315  1  0.43987258  0.08362612  0.81313551  1
  O  O316  1  0.44473356  0.41580946  0.06304242  1
  O  O317  1  0.44252571  0.41609730  0.31382659  1
  O  O318  1  0.44113115  0.41558596  0.56280374  1
  O  O319  1  0.44209064  0.41620728  0.81225238  1
  O  O320  1  0.44467768  0.75014840  0.06407027  1
  O  O321  1  0.44147342  0.75018099  0.31166680  1
  O  O322  1  0.44432226  0.75040354  0.56328019  1
  O  O323  1  0.44272324  0.75023556  0.81240300  1
  O  O324  1  0.94048040  0.08364635  0.06343739  1
  O  O325  1  0.93933308  0.08290467  0.31246246  1
  O  O326  1  0.94205589  0.08268653  0.56144343  1
  O  O327  1  0.94478683  0.08390633  0.81416178  1
  O  O328  1  0.94040389  0.41624286  0.06271485  1
  O  O329  1  0.94126883  0.41673861  0.31181814  1
  O  O330  1  0.94400923  0.41699555  0.56371743  1
  O  O331  1  0.94172511  0.41671440  0.81309426  1
  O  O332  1  0.94018330  0.75023226  0.06293659  1
  O  O333  1  0.93949296  0.75036722  0.31289012  1
  O  O334  1  0.93981115  0.75009310  0.56244898  1
  O  O335  1  0.94008628  0.74971082  0.81263043  1
  O  O336  1  0.19291085  0.08292855  0.06154535  1
  O  O337  1  0.19360786  0.08282225  0.31221590  1
  O  O338  1  0.19098174  0.08371370  0.56310978  1
  O  O339  1  0.19054170  0.08361063  0.81233562  1
  O  O340  1  0.19226665  0.41725350  0.06099056  1
  O  O341  1  0.19403115  0.41778688  0.31203767  1
  O  O342  1  0.19145481  0.41694142  0.56320019  1
  O  O343  1  0.19060088  0.41692509  0.81241098  1
  O  O344  1  0.19294359  0.74988686  0.06164928  1
  O  O345  1  0.19435911  0.74943824  0.31183313  1
  O  O346  1  0.19343339  0.74979900  0.56151627  1
  O  O347  1  0.19437986  0.74929382  0.81137847  1
  O  O348  1  0.69260095  0.08399160  0.06279091  1
  O  O349  1  0.69132293  0.08370139  0.31221547  1
  O  O350  1  0.69352138  0.08379528  0.56114798  1
  O  O351  1  0.69436130  0.08409859  0.81164721  1
  O  O352  1  0.69196443  0.41665259  0.06207470  1
  O  O353  1  0.69347997  0.41661504  0.31156131  1
  O  O354  1  0.69075911  0.41676625  0.56317518  1
  O  O355  1  0.69199303  0.41677046  0.81179980  1
  O  O356  1  0.69142238  0.74946815  0.06265832  1
  O  O357  1  0.69349407  0.74975814  0.31148530  1
  O  O358  1  0.69135707  0.74936520  0.56295222  1
  O  O359  1  0.69121260  0.74932053  0.81239234  1
  O  O360  1  0.30591259  0.24978160  0.18805181  1
  O  O361  1  0.30521655  0.25006465  0.43864001  1
  O  O362  1  0.30613739  0.25070187  0.68829225  1
  O  O363  1  0.30574014  0.25035407  0.93817042  1
  O  O364  1  0.30647342  0.58304186  0.18852958  1
  O  O365  1  0.30960029  0.58325028  0.43797417  1
  O  O366  1  0.31043697  0.58341198  0.68712401  1
  O  O367  1  0.30972482  0.58278768  0.93680700  1
  O  O368  1  0.30759208  0.91698264  0.18875751  1
  O  O369  1  0.30897982  0.91712303  0.43720746  1
  O  O370  1  0.30633246  0.91652297  0.68782923  1
  O  O371  1  0.30622912  0.91675566  0.93851083  1
  O  O372  1  0.80600505  0.25034325  0.18878526  1
  O  O373  1  0.80924107  0.25030407  0.43769569  1
  O  O374  1  0.81073092  0.25029721  0.68739079  1
  O  O375  1  0.80863401  0.25007353  0.93690411  1
  O  O376  1  0.80827446  0.58318913  0.18774794  1
  O  O377  1  0.80748867  0.58303945  0.43738012  1
  O  O378  1  0.80550037  0.58268495  0.68801250  1
  O  O379  1  0.80656899  0.58275271  0.93864100  1
  O  O380  1  0.80707745  0.91653183  0.18723725  1
  O  O381  1  0.80461045  0.91679783  0.43812846  1
  O  O382  1  0.80606318  0.91686683  0.68822452  1
  O  O383  1  0.80682692  0.91703211  0.93878086  1
  O  O384  1  0.23153505  0.24938634  0.03915480  1
  O  O385  1  0.23187404  0.25024795  0.28947172  1
  O  O386  1  0.23152889  0.25032726  0.54025995  1
  O  O387  1  0.23351649  0.25009091  0.79007700  1
  O  O388  1  0.23465147  0.58307030  0.03719531  1
  O  O389  1  0.23302531  0.58318647  0.29041378  1
  O  O390  1  0.23580251  0.58337722  0.53902885  1
  O  O391  1  0.23658935  0.58319345  0.78830703  1
  O  O392  1  0.23374404  0.91739328  0.04091623  1
  O  O393  1  0.23504190  0.91677198  0.29083117  1
  O  O394  1  0.23313938  0.91728387  0.53726741  1
  O  O395  1  0.23411241  0.91657519  0.79027779  1
  O  O396  1  0.73403250  0.25039030  0.03796823  1
  O  O397  1  0.73429473  0.25019640  0.29136754  1
  O  O398  1  0.73569562  0.24981775  0.53890361  1
  O  O399  1  0.73663786  0.25021952  0.78835071  1
  O  O400  1  0.73467072  0.58283979  0.04100484  1
  O  O401  1  0.73507153  0.58358553  0.28944857  1
  O  O402  1  0.73260237  0.58388004  0.53818149  1
  O  O403  1  0.73366584  0.58295653  0.79082022  1
  O  O404  1  0.73463332  0.91713739  0.04091133  1
  O  O405  1  0.73254569  0.91652331  0.28803860  1
  O  O406  1  0.73161001  0.91665116  0.53996017  1
  O  O407  1  0.73381305  0.91632619  0.79087394  1
  O  O408  1  0.26796359  0.08331754  0.21123552  1
  O  O409  1  0.26448554  0.08391289  0.46166471  1
  O  O410  1  0.26585068  0.08355457  0.71218479  1
  O  O411  1  0.26665276  0.08356271  0.96021655  1
  O  O412  1  0.26575455  0.41688023  0.20900808  1
  O  O413  1  0.26639550  0.41644778  0.46260271  1
  O  O414  1  0.26665730  0.41703174  0.71286611  1
  O  O415  1  0.26523377  0.41639565  0.95923728  1
  O  O416  1  0.26841833  0.74971080  0.21050939  1
  O  O417  1  0.26657901  0.74993489  0.46023629  1
  O  O418  1  0.26919300  0.74993558  0.71060349  1
  O  O419  1  0.26663759  0.75013980  0.96033877  1
  O  O420  1  0.76627722  0.08380790  0.21206352  1
  O  O421  1  0.76718255  0.08286183  0.45992429  1
  O  O422  1  0.76767224  0.08348655  0.71008074  1
  O  O423  1  0.76785115  0.08360539  0.96240411  1
  O  O424  1  0.76801744  0.41630560  0.21095340  1
  O  O425  1  0.76534793  0.41673135  0.46262629  1
  O  O426  1  0.76709060  0.41668435  0.71140170  1
  O  O427  1  0.76687032  0.41639055  0.96180104  1
  O  O428  1  0.76734303  0.75002038  0.21055097  1
  O  O429  1  0.76588068  0.75035778  0.46195640  1
  O  O430  1  0.76614737  0.74958165  0.71198236  1
  O  O431  1  0.76693547  0.74979216  0.96294375  1
  O  O432  1  0.01413793  0.08318092  0.16478840  1
  O  O433  1  0.01400278  0.08362827  0.41270256  1
  O  O434  1  0.01755323  0.08426369  0.66185911  1
  O  O435  1  0.01741366  0.08382136  0.91629146  1
  O  O436  1  0.01420030  0.41661895  0.16372876  1
  O  O437  1  0.01495970  0.41712789  0.41310677  1
  O  O438  1  0.01779235  0.41581419  0.66502873  1
  O  O439  1  0.01608727  0.41643546  0.91406801  1
  O  O440  1  0.01375260  0.75002548  0.16450793  1
  O  O441  1  0.01393389  0.74934605  0.41348147  1
  O  O442  1  0.01455064  0.75005384  0.66307125  1
  O  O443  1  0.01442729  0.74978735  0.91356322  1
  O  O444  1  0.51708017  0.08374705  0.16206429  1
  O  O445  1  0.51704331  0.08277312  0.41259443  1
  O  O446  1  0.51577595  0.08350821  0.66616189  1
  O  O447  1  0.51494879  0.08335975  0.91332801  1
  O  O448  1  0.51916424  0.41619528  0.16412744  1
  O  O449  1  0.51499377  0.41636921  0.41573479  1
  O  O450  1  0.51642580  0.41724380  0.66303477  1
  O  O451  1  0.51757308  0.41707272  0.91239774  1
  O  O452  1  0.51827843  0.74986198  0.16549599  1
  O  O453  1  0.51526087  0.75021706  0.41282202  1
  O  O454  1  0.51826295  0.74935608  0.66433123  1
  O  O455  1  0.51776281  0.74933923  0.91305163  1
  O  O456  1  0.48523062  0.25008869  0.08341461  1
  O  O457  1  0.48355857  0.24957903  0.33480213  1
  O  O458  1  0.48360541  0.24990261  0.58514909  1
  O  O459  1  0.48528417  0.25090218  0.83737006  1
  O  O460  1  0.48464425  0.58311697  0.08456818  1
  O  O461  1  0.48274860  0.58294461  0.33766967  1
  O  O462  1  0.48292310  0.58320616  0.58500021  1
  O  O463  1  0.48343851  0.58302908  0.83505002  1
  O  O464  1  0.48561459  0.91670569  0.08657581  1
  O  O465  1  0.48463503  0.91718697  0.33658715  1
  O  O466  1  0.48440125  0.91648940  0.58374640  1
  O  O467  1  0.48405251  0.91607833  0.83536106  1
  O  O468  1  0.98472856  0.25009312  0.08766478  1
  O  O469  1  0.98295732  0.25017654  0.33685973  1
  O  O470  1  0.98304998  0.25055376  0.58445446  1
  O  O471  1  0.98349197  0.24992065  0.83734924  1
  O  O472  1  0.98202728  0.58384484  0.08801696  1
  O  O473  1  0.98188868  0.58333166  0.33557839  1
  O  O474  1  0.98350575  0.58269431  0.58506475  1
  O  O475  1  0.98338908  0.58263631  0.83425245  1
  O  O476  1  0.98074915  0.91629077  0.08650255  1
  O  O477  1  0.98327742  0.91637787  0.33751014  1
  O  O478  1  0.98426198  0.91658066  0.58358597  1
  O  O479  1  0.98336683  0.91787923  0.83390646  1
  O  O480  1  0.08861987  0.31457685  0.07782263  1
  O  O481  1  0.08680382  0.31523455  0.32691246  1
  O  O482  1  0.08701690  0.31578590  0.57700190  1
  O  O483  1  0.08701846  0.31500767  0.82865455  1
  O  O484  1  0.08558137  0.64902295  0.07756321  1
  O  O485  1  0.08569121  0.64858534  0.32564570  1
  O  O486  1  0.08726430  0.64749198  0.57713048  1
  O  O487  1  0.08721453  0.64751635  0.82716545  1
  O  O488  1  0.08453046  0.98139345  0.07770986  1
  O  O489  1  0.08683290  0.98127117  0.32720671  1
  O  O490  1  0.08800761  0.98239526  0.57681619  1
  O  O491  1  0.08717819  0.98308676  0.82847430  1
  O  O492  1  0.58959463  0.31480843  0.07700654  1
  O  O493  1  0.58755009  0.31402465  0.32755769  1
  O  O494  1  0.58704352  0.31594880  0.57794904  1
  O  O495  1  0.58905465  0.31594359  0.82839179  1
  O  O496  1  0.58824419  0.64855052  0.07835377  1
  O  O497  1  0.58647182  0.64791657  0.32774381  1
  O  O498  1  0.58695726  0.64827799  0.57666907  1
  O  O499  1  0.58719194  0.64807327  0.82749813  1
  O  O500  1  0.58903470  0.98207561  0.07851240  1
  O  O501  1  0.58834308  0.98282532  0.32717076  1
  O  O502  1  0.58868703  0.98081626  0.57676065  1
  O  O503  1  0.58764411  0.98116366  0.82760340  1
  O  O504  1  0.41327132  0.01898728  0.17289159  1
  O  O505  1  0.41351839  0.01736032  0.42181794  1
  O  O506  1  0.41191689  0.01807694  0.67312224  1
  O  O507  1  0.41117048  0.01851943  0.92324589  1
  O  O508  1  0.41522212  0.35106652  0.17261459  1
  O  O509  1  0.41072393  0.35198204  0.42337706  1
  O  O510  1  0.41256778  0.35239500  0.67368853  1
  O  O511  1  0.41377567  0.35268988  0.92295652  1
  O  O512  1  0.41403542  0.68485995  0.17325820  1
  O  O513  1  0.41157120  0.68548490  0.42140212  1
  O  O514  1  0.41419956  0.68427872  0.67242544  1
  O  O515  1  0.41427192  0.68373539  0.92186250  1
  O  O516  1  0.91049354  0.01737291  0.17280453  1
  O  O517  1  0.91010482  0.01923081  0.42305654  1
  O  O518  1  0.91425045  0.01901010  0.67209072  1
  O  O519  1  0.91271667  0.01992561  0.92339728  1
  O  O520  1  0.91030361  0.35231825  0.17287469  1
  O  O521  1  0.91156706  0.35179381  0.42164336  1
  O  O522  1  0.91375070  0.35062311  0.67268392  1
  O  O523  1  0.91265329  0.35039606  0.92281357  1
  O  O524  1  0.90983127  0.68518587  0.17253055  1
  O  O525  1  0.91035171  0.68364194  0.42224773  1
  O  O526  1  0.91070336  0.68508673  0.67246701  1
  O  O527  1  0.91061739  0.68489186  0.92264813  1
  O  O528  1  0.16410702  0.01845029  0.20234626  1
  O  O529  1  0.16092416  0.01866290  0.45324591  1
  O  O530  1  0.16203508  0.01841401  0.70223074  1
  O  O531  1  0.16249557  0.01885921  0.95182449  1
  O  O532  1  0.16144420  0.35255822  0.20360713  1
  O  O533  1  0.16271240  0.35101623  0.45344070  1
  O  O534  1  0.16265431  0.35211221  0.70225332  1
  O  O535  1  0.16138887  0.35061872  0.95234787  1
  O  O536  1  0.16473251  0.68361315  0.20256829  1
  O  O537  1  0.16261631  0.68552156  0.45203126  1
  O  O538  1  0.16553038  0.68449946  0.70150617  1
  O  O539  1  0.16288710  0.68507331  0.95197557  1
  O  O540  1  0.66281166  0.01783271  0.20219734  1
  O  O541  1  0.66309488  0.01765683  0.45201261  1
  O  O542  1  0.66357225  0.01879883  0.70270202  1
  O  O543  1  0.66385211  0.01945159  0.95278602  1
  O  O544  1  0.66393434  0.35176759  0.20174947  1
  O  O545  1  0.66172377  0.35233491  0.45309639  1
  O  O546  1  0.66337224  0.35144415  0.70175725  1
  O  O547  1  0.66330358  0.35068939  0.95210003  1
  O  O548  1  0.66332281  0.68546042  0.20176507  1
  O  O549  1  0.66259757  0.68464512  0.45263356  1
  O  O550  1  0.66243562  0.68460794  0.70207040  1
  O  O551  1  0.66325771  0.68468271  0.95225897  1
  O  O552  1  0.33530723  0.31432584  0.04810711  1
  O  O553  1  0.33601086  0.31445521  0.29737687  1
  O  O554  1  0.33535934  0.31581803  0.54786610  1
  O  O555  1  0.33717152  0.31558825  0.79767687  1
  O  O556  1  0.33841008  0.64786939  0.04675762  1
  O  O557  1  0.33702329  0.64895007  0.29766098  1
  O  O558  1  0.34038389  0.64684328  0.54795804  1
  O  O559  1  0.34043238  0.64833332  0.79692247  1
  O  O560  1  0.33744081  0.98311572  0.04710761  1
  O  O561  1  0.33902744  0.98203293  0.29798280  1
  O  O562  1  0.33669904  0.98228373  0.54728325  1
  O  O563  1  0.33762527  0.98199217  0.79677007  1
  O  O564  1  0.83766419  0.31526798  0.04674189  1
  O  O565  1  0.83824092  0.31536882  0.29789910  1
  O  O566  1  0.83996216  0.31358463  0.54798141  1
  O  O567  1  0.83969886  0.31670637  0.79701929  1
  O  O568  1  0.83855444  0.64793683  0.04770824  1
  O  O569  1  0.83887744  0.64838132  0.29723218  1
  O  O570  1  0.83619018  0.64927544  0.54685331  1
  O  O571  1  0.83743331  0.64797741  0.79678571  1
  O  O572  1  0.83868686  0.98191708  0.04793820  1
  O  O573  1  0.83612655  0.98160316  0.29715320  1
  O  O574  1  0.83553762  0.98194987  0.54733093  1
  O  O575  1  0.83775097  0.98097087  0.79737882  1
  O  O576  1  0.41336288  0.14900742  0.17275009  1
  O  O577  1  0.41322973  0.14749621  0.42251156  1
  O  O578  1  0.41146740  0.14809952  0.67344279  1
  O  O579  1  0.41127889  0.14853084  0.92336395  1
  O  O580  1  0.41514310  0.48109587  0.17243136  1
  O  O581  1  0.41125812  0.48208975  0.42275812  1
  O  O582  1  0.41264278  0.48241971  0.67214442  1
  O  O583  1  0.41415676  0.48281644  0.92183035  1
  O  O584  1  0.41410135  0.81479954  0.17353177  1
  O  O585  1  0.41219308  0.81597596  0.42136409  1
  O  O586  1  0.41428896  0.81431160  0.67325294  1
  O  O587  1  0.41406726  0.81394628  0.92292283  1
  O  O588  1  0.91009310  0.14754284  0.17326559  1
  O  O589  1  0.91066870  0.14939323  0.42200472  1
  O  O590  1  0.91400188  0.14920419  0.67109218  1
  O  O591  1  0.91364043  0.14980079  0.92339404  1
  O  O592  1  0.91069007  0.48240825  0.17219509  1
  O  O593  1  0.91130655  0.48203299  0.42164596  1
  O  O594  1  0.91358951  0.48054423  0.67369336  1
  O  O595  1  0.91171321  0.48034816  0.92317303  1
  O  O596  1  0.91009323  0.81531365  0.17286366  1
  O  O597  1  0.90989474  0.81380427  0.42333245  1
  O  O598  1  0.91079467  0.81511827  0.67232945  1
  O  O599  1  0.91066930  0.81485495  0.92249523  1
  O  O600  1  0.08819190  0.18455989  0.07787302  1
  O  O601  1  0.08678659  0.18528067  0.32679475  1
  O  O602  1  0.08712588  0.18569698  0.57666327  1
  O  O603  1  0.08697704  0.18473516  0.82865771  1
  O  O604  1  0.08562554  0.51891621  0.07774176  1
  O  O605  1  0.08607266  0.51867896  0.32598802  1
  O  O606  1  0.08709482  0.51712052  0.57785104  1
  O  O607  1  0.08721060  0.51728501  0.82819836  1
  O  O608  1  0.08457438  0.85129601  0.07746015  1
  O  O609  1  0.08665769  0.85108799  0.32707803  1
  O  O610  1  0.08857426  0.85218256  0.57633026  1
  O  O611  1  0.08696292  0.85265823  0.82722854  1
  O  O612  1  0.58914409  0.18459514  0.07680405  1
  O  O613  1  0.58715611  0.18383930  0.32753928  1
  O  O614  1  0.58772612  0.18571740  0.57775151  1
  O  O615  1  0.58865247  0.18567318  0.82761961  1
  O  O616  1  0.58854751  0.51816764  0.07810779  1
  O  O617  1  0.58648582  0.51792513  0.32807112  1
  O  O618  1  0.58701368  0.51815008  0.57683845  1
  O  O619  1  0.58713119  0.51785370  0.82719807  1
  O  O620  1  0.58918312  0.85152049  0.07907994  1
  O  O621  1  0.58870467  0.85279231  0.32688649  1
  O  O622  1  0.58802692  0.85059555  0.57720269  1
  O  O623  1  0.58787978  0.85087473  0.82843342  1
  O  O624  1  0.33551479  0.18417642  0.04725995  1
  O  O625  1  0.33541806  0.18422974  0.29770224  1
  O  O626  1  0.33554730  0.18572396  0.54804903  1
  O  O627  1  0.33742417  0.18522920  0.79716349  1
  O  O628  1  0.33798849  0.51767240  0.04695393  1
  O  O629  1  0.33743889  0.51885732  0.29797900  1
  O  O630  1  0.33891342  0.51676832  0.54745138  1
  O  O631  1  0.34026802  0.51801846  0.79688400  1
  O  O632  1  0.33789571  0.85289367  0.04778783  1
  O  O633  1  0.33918142  0.85177442  0.29767420  1
  O  O634  1  0.33673792  0.85217220  0.54732546  1
  O  O635  1  0.33806214  0.85155409  0.79691321  1
  O  O636  1  0.83755322  0.18521538  0.04706393  1
  O  O637  1  0.83830462  0.18523494  0.29761337  1
  O  O638  1  0.83897309  0.18342083  0.54678647  1
  O  O639  1  0.84098753  0.18657624  0.79766057  1
  O  O640  1  0.83863332  0.51775365  0.04756915  1
  O  O641  1  0.83861317  0.51809324  0.29747102  1
  O  O642  1  0.83631609  0.51915226  0.54772496  1
  O  O643  1  0.83741064  0.51767058  0.79687829  1
  O  O644  1  0.83826429  0.85170532  0.04791073  1
  O  O645  1  0.83609527  0.85142108  0.29726539  1
  O  O646  1  0.83556035  0.85178680  0.54732195  1
  O  O647  1  0.83727566  0.85064929  0.79686564  1
  O  O648  1  0.16387524  0.14859216  0.20314251  1
  O  O649  1  0.16080629  0.14901761  0.45367720  1
  O  O650  1  0.16187549  0.14841007  0.70226136  1
  O  O651  1  0.16264147  0.14885776  0.95218159  1
  O  O652  1  0.16235096  0.48297625  0.20301230  1
  O  O653  1  0.16276057  0.48116625  0.45285402  1
  O  O654  1  0.16297484  0.48202058  0.70196971  1
  O  O655  1  0.16095742  0.48074807  0.95116775  1
  O  O656  1  0.16415048  0.81388942  0.20235356  1
  O  O657  1  0.16301632  0.81580079  0.45226837  1
  O  O658  1  0.16485878  0.81448256  0.70209032  1
  O  O659  1  0.16280869  0.81533557  0.95249612  1
  O  O660  1  0.66222095  0.14783001  0.20189716  1
  O  O661  1  0.66318955  0.14770508  0.45119085  1
  O  O662  1  0.66424846  0.14883577  0.70192565  1
  O  O663  1  0.66457372  0.14954706  0.95265023  1
  O  O664  1  0.66430959  0.48171062  0.20176525  1
  O  O665  1  0.66214847  0.48269287  0.45332760  1
  O  O666  1  0.66283772  0.48131544  0.70182600  1
  O  O667  1  0.66282404  0.48069990  0.95172032  1
  O  O668  1  0.66343537  0.81547915  0.20209474  1
  O  O669  1  0.66206166  0.81490201  0.45334107  1
  O  O670  1  0.66226811  0.81449382  0.70235147  1
  O  O671  1  0.66310316  0.81467798  0.95251667  1
