# generated using pymatgen
data_Na2MnFe(PO4)2
_symmetry_space_group_name_H-M   'P 1'
_cell_length_a   21.08970125
_cell_length_b   18.94258691
_cell_length_c   20.04826282
_cell_angle_alpha   90.00064934
_cell_angle_beta   89.99884109
_cell_angle_gamma   90.00066588
_symmetry_Int_Tables_number   1
_chemical_formula_structural   Na2MnFe(PO4)2
_chemical_formula_sum   'Na96 Mn48 Fe48 P96 O384'
_cell_volume   8009.15065817
_cell_formula_units_Z   48
loop_
 _symmetry_equiv_pos_site_id
 _symmetry_equiv_pos_as_xyz
  1  'x, y, z'
loop_
 _atom_site_type_symbol
 _atom_site_label
 _atom_site_symmetry_multiplicity
 _atom_site_fract_x
 _atom_site_fract_y
 _atom_site_fract_z
 _atom_site_occupancy
  Na  Na0  1  -0.00142840  -0.00024909  -0.00114228  1
  Na  Na1  1  -0.00077337  0.00017179  0.25016927  1
  Na  Na2  1  0.00054994  -0.00024459  0.50044967  1
  Na  Na3  1  0.00038264  0.00007304  0.75080810  1
  Na  Na4  1  -0.00102056  0.33271079  -0.00113403  1
  Na  Na5  1  0.00153505  0.33431390  0.25002332  1
  Na  Na6  1  0.00170111  0.33358085  0.50123305  1
  Na  Na7  1  0.00079660  0.33382916  0.74991850  1
  Na  Na8  1  0.00092446  0.66703501  -0.00095054  1
  Na  Na9  1  0.00059556  0.66654809  0.25053504  1
  Na  Na10  1  0.00082560  0.66695469  0.50077169  1
  Na  Na11  1  0.00024647  0.66692450  0.74977515  1
  Na  Na12  1  0.49701513  -0.00095621  -0.00070918  1
  Na  Na13  1  0.49707241  -0.00124927  0.25117908  1
  Na  Na14  1  0.49986549  0.00083419  0.49973825  1
  Na  Na15  1  0.49858311  0.00013617  0.74975576  1
  Na  Na16  1  0.49908287  0.33337732  0.00023376  1
  Na  Na17  1  0.50014150  0.33335282  0.24974478  1
  Na  Na18  1  0.49956488  0.33339983  0.49923294  1
  Na  Na19  1  0.49839408  0.33287331  0.75034362  1
  Na  Na20  1  0.49894886  0.66704121  -0.00095702  1
  Na  Na21  1  0.49959262  0.66688331  0.25012511  1
  Na  Na22  1  0.50015648  0.66644214  0.50190608  1
  Na  Na23  1  0.49930023  0.66682921  0.74898541  1
  Na  Na24  1  0.25103010  0.00031640  0.12462126  1
  Na  Na25  1  0.25026679  0.00077695  0.37444962  1
  Na  Na26  1  0.24980597  0.00022952  0.62478924  1
  Na  Na27  1  0.25051015  -0.00018769  0.87623968  1
  Na  Na28  1  0.25144578  0.33460248  0.12477553  1
  Na  Na29  1  0.24908868  0.33351338  0.37602393  1
  Na  Na30  1  0.25023005  0.33344340  0.62462967  1
  Na  Na31  1  0.25037243  0.33292736  0.87471295  1
  Na  Na32  1  0.24939792  0.66661691  0.12547295  1
  Na  Na33  1  0.24976283  0.66691418  0.37443030  1
  Na  Na34  1  0.24947384  0.66699700  0.62520741  1
  Na  Na35  1  0.25125097  0.66741200  0.87525396  1
  Na  Na36  1  0.75293585  0.00103988  0.12506287  1
  Na  Na37  1  0.75059079  -0.00022892  0.37555829  1
  Na  Na38  1  0.75093233  0.00012181  0.62480428  1
  Na  Na39  1  0.75253474  0.00031581  0.87403045  1
  Na  Na40  1  0.74911144  0.33237728  0.12395939  1
  Na  Na41  1  0.74829585  0.33292327  0.37598907  1
  Na  Na42  1  0.75039999  0.33418119  0.62497864  1
  Na  Na43  1  0.75196051  0.33394990  0.87502246  1
  Na  Na44  1  0.74970807  0.66683899  0.12499708  1
  Na  Na45  1  0.75039280  0.66656444  0.37363081  1
  Na  Na46  1  0.74970739  0.66648056  0.62522221  1
  Na  Na47  1  0.74942703  0.66684349  0.87604480  1
  Na  Na48  1  -0.00059576  0.16593061  -0.00054972  1
  Na  Na49  1  0.00059046  0.16596721  0.24959753  1
  Na  Na50  1  0.00221980  0.16567797  0.50078522  1
  Na  Na51  1  -0.00043524  0.16688492  0.74990477  1
  Na  Na52  1  -0.00001080  0.50024565  -0.00116843  1
  Na  Na53  1  -0.00123819  0.50172845  0.25054031  1
  Na  Na54  1  0.00279371  0.49945314  0.50061452  1
  Na  Na55  1  -0.00010316  0.50094462  0.75063903  1
  Na  Na56  1  0.00089240  0.83254253  -0.00108424  1
  Na  Na57  1  0.00088818  0.83260380  0.25032325  1
  Na  Na58  1  -0.00025373  0.83311646  0.50148606  1
  Na  Na59  1  0.00063426  0.83268888  0.74942410  1
  Na  Na60  1  0.49860719  0.16655718  0.00022978  1
  Na  Na61  1  0.49954083  0.16610085  0.25025966  1
  Na  Na62  1  0.49843654  0.16657482  0.49964407  1
  Na  Na63  1  0.49772074  0.16689552  0.74980710  1
  Na  Na64  1  0.49822875  0.50075911  -0.00089471  1
  Na  Na65  1  0.49721146  0.50180736  0.25120861  1
  Na  Na66  1  0.50210265  0.49958066  0.50033209  1
  Na  Na67  1  0.49998185  0.50050053  0.74969676  1
  Na  Na68  1  0.49856959  0.83279674  -0.00076742  1
  Na  Na69  1  0.50109763  0.83190798  0.24984121  1
  Na  Na70  1  0.49894716  0.83332265  0.50108805  1
  Na  Na71  1  0.49847751  0.83278359  0.74947760  1
  Na  Na72  1  0.24886188  0.16696818  0.12445016  1
  Na  Na73  1  0.25064285  0.16556999  0.37543121  1
  Na  Na74  1  0.25003830  0.16642858  0.62520212  1
  Na  Na75  1  0.25141101  0.16577487  0.87514072  1
  Na  Na76  1  0.25154144  0.50069512  0.12564309  1
  Na  Na77  1  0.25081197  0.49993736  0.37523460  1
  Na  Na78  1  0.24917851  0.50059341  0.62417642  1
  Na  Na79  1  0.25222782  0.49987533  0.87482820  1
  Na  Na80  1  0.25033960  0.83227216  0.12494671  1
  Na  Na81  1  0.24834962  0.83340748  0.37421325  1
  Na  Na82  1  0.25003555  0.83241615  0.62526670  1
  Na  Na83  1  0.24989330  0.83266462  0.87582531  1
  Na  Na84  1  0.75044389  0.16657879  0.12397043  1
  Na  Na85  1  0.74969481  0.16593874  0.37623373  1
  Na  Na86  1  0.74993640  0.16660428  0.62488006  1
  Na  Na87  1  0.75292204  0.16563570  0.87461904  1
  Na  Na88  1  0.75183890  0.50021923  0.12500669  1
  Na  Na89  1  0.75104106  0.50023288  0.37507881  1
  Na  Na90  1  0.74827176  0.50152336  0.62419436  1
  Na  Na91  1  0.75149948  0.50005618  0.87551906  1
  Na  Na92  1  0.74906329  0.83327509  0.12529620  1
  Na  Na93  1  0.74978127  0.83322985  0.37360613  1
  Na  Na94  1  0.75255781  0.83150219  0.62596574  1
  Na  Na95  1  0.74950551  0.83333276  0.87488438  1
  Mn  Mn96  1  0.64224881  0.25040432  0.74800921  1
  Mn  Mn97  1  0.85818666  0.41728266  0.50251556  1
  Mn  Mn98  1  0.64173867  0.91737171  0.99797389  1
  Mn  Mn99  1  0.64235774  0.24941296  0.99709999  1
  Mn  Mn100  1  0.85807226  0.75042954  0.25192113  1
  Mn  Mn101  1  0.39245359  0.58254883  0.62701375  1
  Mn  Mn102  1  0.85851773  0.08284867  0.50265475  1
  Mn  Mn103  1  0.14228313  0.25015557  0.24766119  1
  Mn  Mn104  1  0.10791599  0.41702034  0.87216330  1
  Mn  Mn105  1  0.14231376  0.91601518  0.99819359  1
  Mn  Mn106  1  0.14174857  0.91700959  0.24703537  1
  Mn  Mn107  1  0.35787994  0.75013490  0.25282227  1
  Mn  Mn108  1  0.85837162  0.41660090  0.00245620  1
  Mn  Mn109  1  0.35761544  0.08278722  0.00288480  1
  Mn  Mn110  1  0.85827349  0.41554521  0.25251224  1
  Mn  Mn111  1  0.89259059  0.91647045  0.87700922  1
  Mn  Mn112  1  0.60767574  0.41730395  0.37210620  1
  Mn  Mn113  1  0.64173209  0.58319663  0.99786295  1
  Mn  Mn114  1  0.10822235  0.41707090  0.12246309  1
  Mn  Mn115  1  0.60740468  0.41703384  0.87207520  1
  Mn  Mn116  1  0.10746852  0.08305841  0.87233329  1
  Mn  Mn117  1  0.60739507  0.08258057  0.37245593  1
  Mn  Mn118  1  0.85777319  0.75070399  0.00225322  1
  Mn  Mn119  1  0.64231456  0.91668163  0.74785854  1
  Mn  Mn120  1  0.89305851  0.24975701  0.62766601  1
  Mn  Mn121  1  0.89262325  0.25078476  0.37731542  1
  Mn  Mn122  1  0.64272328  0.91546672  0.49856846  1
  Mn  Mn123  1  0.14238394  0.58302173  0.24794496  1
  Mn  Mn124  1  0.64206833  0.91775774  0.24726983  1
  Mn  Mn125  1  0.60734357  0.08274893  0.87248374  1
  Mn  Mn126  1  0.39203600  0.25050105  0.37701490  1
  Mn  Mn127  1  0.39171467  0.91536158  0.37764710  1
  Mn  Mn128  1  0.64220382  0.58245323  0.24751609  1
  Mn  Mn129  1  0.39200814  0.24984122  0.12819758  1
  Mn  Mn130  1  0.35744101  0.41684849  0.50274984  1
  Mn  Mn131  1  0.89265649  0.91611031  0.37757140  1
  Mn  Mn132  1  0.60759459  0.08229161  0.12296389  1
  Mn  Mn133  1  0.60803834  0.75029855  0.62266666  1
  Mn  Mn134  1  0.89218191  0.25005641  0.12815081  1
  Mn  Mn135  1  0.89258500  0.58337258  0.62732016  1
  Mn  Mn136  1  0.14194875  0.25087133  0.99748997  1
  Mn  Mn137  1  0.60708046  0.41758851  0.12315498  1
  Mn  Mn138  1  0.14294689  0.58306335  0.74801312  1
  Mn  Mn139  1  0.64152037  0.25017927  0.49840786  1
  Mn  Mn140  1  0.14199577  0.91630358  0.49796130  1
  Mn  Mn141  1  0.35802948  0.41758769  0.00231887  1
  Mn  Mn142  1  0.39125087  0.91723161  0.62766836  1
  Mn  Mn143  1  0.14259647  0.25027010  0.49789257  1
  Fe  Fe144  1  0.35747681  0.41635247  0.25233781  1
  Fe  Fe145  1  0.89345520  0.58345226  0.37703815  1
  Fe  Fe146  1  0.60735644  0.74988650  0.37418766  1
  Fe  Fe147  1  0.39162313  0.91613895  0.87627964  1
  Fe  Fe148  1  0.85784320  0.08357326  0.75093775  1
  Fe  Fe149  1  0.35650763  0.08392134  0.25149609  1
  Fe  Fe150  1  0.35692886  0.08282549  0.50206237  1
  Fe  Fe151  1  0.39209668  0.58404357  0.12670453  1
  Fe  Fe152  1  0.85766401  0.74921722  0.75215833  1
  Fe  Fe153  1  0.10758988  0.41700076  0.37301255  1
  Fe  Fe154  1  0.85785239  0.08316478  0.00209351  1
  Fe  Fe155  1  0.85782358  0.41706562  0.75091546  1
  Fe  Fe156  1  0.35686239  0.08307056  0.75139491  1
  Fe  Fe157  1  0.89348715  0.91655334  0.62703305  1
  Fe  Fe158  1  0.10783780  0.08334494  0.37285230  1
  Fe  Fe159  1  0.10779012  0.74974757  0.87292142  1
  Fe  Fe160  1  0.14295899  0.58346564  0.99839932  1
  Fe  Fe161  1  0.39278800  0.58412675  0.37759108  1
  Fe  Fe162  1  0.85792412  0.74972471  0.50134279  1
  Fe  Fe163  1  0.10723521  0.75016656  0.12307418  1
  Fe  Fe164  1  0.89352954  0.58409034  0.12610926  1
  Fe  Fe165  1  0.35769172  0.41655321  0.75093293  1
  Fe  Fe166  1  0.89295747  0.25066289  0.87562532  1
  Fe  Fe167  1  0.35695608  0.74961070  0.00190127  1
  Fe  Fe168  1  0.60629000  0.75001634  0.12325276  1
  Fe  Fe169  1  0.85779466  0.08392508  0.25183862  1
  Fe  Fe170  1  0.10709410  0.74986835  0.37384364  1
  Fe  Fe171  1  0.39227803  0.25019887  0.62686528  1
  Fe  Fe172  1  0.89267663  0.58358235  0.87661019  1
  Fe  Fe173  1  0.14276451  0.58389616  0.49821064  1
  Fe  Fe174  1  0.39228150  0.91602802  0.12709508  1
  Fe  Fe175  1  0.39183172  0.25017468  0.87641329  1
  Fe  Fe176  1  0.39260783  0.58375045  0.87643345  1
  Fe  Fe177  1  0.10662839  0.08269207  0.12335051  1
  Fe  Fe178  1  0.14314637  0.91702147  0.74869924  1
  Fe  Fe179  1  0.60749312  0.41573753  0.62424523  1
  Fe  Fe180  1  0.35661586  0.75015934  0.50122389  1
  Fe  Fe181  1  0.35665379  0.75013765  0.75197964  1
  Fe  Fe182  1  0.14330420  0.24941173  0.74866414  1
  Fe  Fe183  1  0.64312388  0.58427474  0.49777794  1
  Fe  Fe184  1  0.10826165  0.41691326  0.62412065  1
  Fe  Fe185  1  0.60672681  0.08385340  0.62377206  1
  Fe  Fe186  1  0.60599878  0.75007893  0.87320579  1
  Fe  Fe187  1  0.10750605  0.75002610  0.62328881  1
  Fe  Fe188  1  0.64267407  0.24949319  0.24835714  1
  Fe  Fe189  1  0.10791272  0.08301133  0.62414017  1
  Fe  Fe190  1  0.89301657  0.91583072  0.12630922  1
  Fe  Fe191  1  0.64302680  0.58326349  0.74927430  1
  P  P192  1  0.05322154  0.24917103  0.10970693  1
  P  P193  1  0.05390904  0.25015980  0.36022644  1
  P  P194  1  0.05567852  0.24976931  0.61199946  1
  P  P195  1  0.05302648  0.24997919  0.85906344  1
  P  P196  1  0.05328203  0.58412107  0.10929968  1
  P  P197  1  0.05405301  0.58363116  0.36173549  1
  P  P198  1  0.05481383  0.58374468  0.61016755  1
  P  P199  1  0.05368323  0.58428659  0.86098307  1
  P  P200  1  0.05205454  0.91668216  0.10982566  1
  P  P201  1  0.05383528  0.91637381  0.36035100  1
  P  P202  1  0.05430914  0.91659698  0.61208462  1
  P  P203  1  0.05450223  0.91550898  0.85928458  1
  P  P204  1  0.55432571  0.24966471  0.11084762  1
  P  P205  1  0.55384924  0.24980855  0.35917530  1
  P  P206  1  0.55179001  0.24992519  0.61054418  1
  P  P207  1  0.55145769  0.24962597  0.85995988  1
  P  P208  1  0.55142371  0.58407340  0.10996063  1
  P  P209  1  0.55350704  0.58493925  0.36148850  1
  P  P210  1  0.55596306  0.58237960  0.61111129  1
  P  P211  1  0.55241681  0.58453678  0.85935651  1
  P  P212  1  0.55142611  0.91611311  0.10983938  1
  P  P213  1  0.55333689  0.91514749  0.36049248  1
  P  P214  1  0.55292742  0.91764368  0.61029254  1
  P  P215  1  0.55136529  0.91567249  0.85987046  1
  P  P216  1  0.44569700  0.08212856  0.14102102  1
  P  P217  1  0.44424377  0.08314436  0.38962418  1
  P  P218  1  0.44533964  0.08415020  0.63930156  1
  P  P219  1  0.44425789  0.08308875  0.88842955  1
  P  P220  1  0.44554085  0.41793378  0.14093169  1
  P  P221  1  0.44528761  0.41781833  0.38927105  1
  P  P222  1  0.44730711  0.41605793  0.64026692  1
  P  P223  1  0.44484302  0.41697458  0.88823613  1
  P  P224  1  0.44579959  0.74987870  0.13867552  1
  P  P225  1  0.44715884  0.74897776  0.39130281  1
  P  P226  1  0.44435025  0.74985565  0.63945750  1
  P  P227  1  0.44461559  0.74981386  0.88864736  1
  P  P228  1  0.94599155  0.08213916  0.13928818  1
  P  P229  1  0.94736668  0.08367954  0.38923787  1
  P  P230  1  0.94794646  0.08221279  0.64048667  1
  P  P231  1  0.94462215  0.08431151  0.88881521  1
  P  P232  1  0.94729855  0.41784038  0.14000401  1
  P  P233  1  0.94837376  0.41744167  0.39048841  1
  P  P234  1  0.94817886  0.41717780  0.64058992  1
  P  P235  1  0.94520302  0.41702431  0.88801504  1
  P  P236  1  0.94804934  0.74992064  0.13950161  1
  P  P237  1  0.94750806  0.74924046  0.39071047  1
  P  P238  1  0.94618277  0.75035088  0.63945728  1
  P  P239  1  0.94658983  0.74922743  0.88848984  1
  P  P240  1  0.19579204  0.08339648  0.23498281  1
  P  P241  1  0.19599571  0.08311947  0.48577421  1
  P  P242  1  0.19741380  0.08297799  0.73518416  1
  P  P243  1  0.19508013  0.08307778  0.98609558  1
  P  P244  1  0.19716996  0.41701859  0.23604125  1
  P  P245  1  0.19468472  0.41783791  0.48577623  1
  P  P246  1  0.19798397  0.41592163  0.73474429  1
  P  P247  1  0.19683847  0.41824342  0.98476237  1
  P  P248  1  0.19472756  0.74985478  0.23537295  1
  P  P249  1  0.19584609  0.74931630  0.48554753  1
  P  P250  1  0.19603798  0.75070581  0.73597651  1
  P  P251  1  0.19559423  0.74893882  0.98577986  1
  P  P252  1  0.69809018  0.08400145  0.23484470  1
  P  P253  1  0.69534631  0.08280943  0.48643242  1
  P  P254  1  0.69747454  0.08339621  0.73453609  1
  P  P255  1  0.69815306  0.08276583  0.98438627  1
  P  P256  1  0.69708870  0.41581862  0.23467471  1
  P  P257  1  0.69509765  0.41775831  0.48631415  1
  P  P258  1  0.69770927  0.41769060  0.73487522  1
  P  P259  1  0.69651592  0.41690311  0.98472140  1
  P  P260  1  0.69467473  0.74981581  0.23518058  1
  P  P261  1  0.69788979  0.74935108  0.48432547  1
  P  P262  1  0.69649458  0.74916835  0.73672092  1
  P  P263  1  0.69414612  0.75040000  0.98544580  1
  P  P264  1  0.30439228  0.25022604  0.01415649  1
  P  P265  1  0.30302391  0.24999405  0.26522183  1
  P  P266  1  0.30416118  0.24928397  0.51570843  1
  P  P267  1  0.30399024  0.24985877  0.76386104  1
  P  P268  1  0.30397805  0.58470728  0.01448413  1
  P  P269  1  0.30538376  0.58303000  0.26492578  1
  P  P270  1  0.30318566  0.58456519  0.51390785  1
  P  P271  1  0.30415967  0.58327304  0.76502297  1
  P  P272  1  0.30503425  0.91509057  0.01469157  1
  P  P273  1  0.30407804  0.91723105  0.26381903  1
  P  P274  1  0.30296058  0.91620299  0.51482114  1
  P  P275  1  0.30230732  0.91663888  0.76547074  1
  P  P276  1  0.80521496  0.24918529  0.01357098  1
  P  P277  1  0.80209780  0.24903729  0.26558899  1
  P  P278  1  0.80352732  0.25019314  0.51546790  1
  P  P279  1  0.80415508  0.25035570  0.76491760  1
  P  P280  1  0.80509567  0.58402374  0.01475336  1
  P  P281  1  0.80574539  0.58347307  0.26439991  1
  P  P282  1  0.80399016  0.58452252  0.51370939  1
  P  P283  1  0.80318319  0.58343060  0.76537517  1
  P  P284  1  0.80408087  0.91689404  0.01554817  1
  P  P285  1  0.80500854  0.91748099  0.26374198  1
  P  P286  1  0.80475643  0.91515537  0.51586670  1
  P  P287  1  0.80519849  0.91631720  0.76344275  1
  O  O288  1  0.05651956  0.24989286  0.18648500  1
  O  O289  1  0.05671727  0.24983519  0.43703718  1
  O  O290  1  0.05968131  0.24980959  0.68872485  1
  O  O291  1  0.05656471  0.24984198  0.93578290  1
  O  O292  1  0.05676701  0.58334081  0.18603824  1
  O  O293  1  0.05854326  0.58372827  0.43838235  1
  O  O294  1  0.05756772  0.58381383  0.68690988  1
  O  O295  1  0.05853859  0.58361310  0.93757713  1
  O  O296  1  0.05541463  0.91691080  0.18651653  1
  O  O297  1  0.05646766  0.91642696  0.43716189  1
  O  O298  1  0.05898906  0.91674690  0.68869390  1
  O  O299  1  0.05730949  0.91618561  0.93605397  1
  O  O300  1  0.55898400  0.24934538  0.18757284  1
  O  O301  1  0.55677561  0.24978187  0.43599785  1
  O  O302  1  0.55550862  0.24990159  0.68722275  1
  O  O303  1  0.55556045  0.24952326  0.93665678  1
  O  O304  1  0.55542148  0.58341632  0.18664301  1
  O  O305  1  0.55850632  0.58413428  0.43814828  1
  O  O306  1  0.55998829  0.58349579  0.68784158  1
  O  O307  1  0.55593532  0.58369827  0.93604500  1
  O  O308  1  0.55557209  0.91694686  0.18652191  1
  O  O309  1  0.55662495  0.91624199  0.43720913  1
  O  O310  1  0.55619384  0.91672823  0.68705962  1
  O  O311  1  0.55518977  0.91647029  0.93651219  1
  O  O312  1  0.44286785  0.08319448  0.06415201  1
  O  O313  1  0.43974172  0.08326840  0.31292463  1
  O  O314  1  0.44078809  0.08303939  0.56260937  1
  O  O315  1  0.44023429  0.08303536  0.81164940  1
  O  O316  1  0.44299746  0.41710956  0.06406098  1
  O  O317  1  0.44105993  0.41688046  0.31256378  1
  O  O318  1  0.44367239  0.41698242  0.56356347  1
  O  O319  1  0.44098062  0.41683293  0.81149544  1
  O  O320  1  0.44140664  0.74970482  0.06200971  1
  O  O321  1  0.44364512  0.74964697  0.31457247  1
  O  O322  1  0.43984146  0.74988450  0.56278695  1
  O  O323  1  0.44021235  0.74999894  0.81191723  1
  O  O324  1  0.94162580  0.08295461  0.06254551  1
  O  O325  1  0.94208425  0.08393602  0.31260816  1
  O  O326  1  0.94453832  0.08282664  0.56374479  1
  O  O327  1  0.94070946  0.08348441  0.81205606  1
  O  O328  1  0.94426537  0.41671666  0.06320908  1
  O  O329  1  0.94433616  0.41684447  0.31381242  1
  O  O330  1  0.94428746  0.41717764  0.56391253  1
  O  O331  1  0.94127830  0.41727903  0.81128921  1
  O  O332  1  0.94449024  0.75012018  0.06280938  1
  O  O333  1  0.94382615  0.74979917  0.31406169  1
  O  O334  1  0.94161802  0.74952198  0.56282410  1
  O  O335  1  0.94170562  0.74953041  0.81184432  1
  O  O336  1  0.19039651  0.08286431  0.06280676  1
  O  O337  1  0.19107462  0.08306997  0.31174632  1
  O  O338  1  0.19102242  0.08290666  0.56244046  1
  O  O339  1  0.19398090  0.08306398  0.81188955  1
  O  O340  1  0.19395396  0.41788947  0.06156965  1
  O  O341  1  0.19185104  0.41721995  0.31270093  1
  O  O342  1  0.19072568  0.41713504  0.56255655  1
  O  O343  1  0.19430605  0.41664796  0.81144921  1
  O  O344  1  0.19070037  0.74978780  0.06248823  1
  O  O345  1  0.19012647  0.74990332  0.31211400  1
  O  O346  1  0.19137674  0.74992196  0.56227503  1
  O  O347  1  0.19163227  0.74983804  0.81268378  1
  O  O348  1  0.69367359  0.08266209  0.06102710  1
  O  O349  1  0.69399329  0.08274411  0.31154089  1
  O  O350  1  0.69043733  0.08321626  0.56313331  1
  O  O351  1  0.69349559  0.08308289  0.81124257  1
  O  O352  1  0.69280533  0.41719011  0.06144798  1
  O  O353  1  0.69383873  0.41723891  0.31148804  1
  O  O354  1  0.69083542  0.41674879  0.56304455  1
  O  O355  1  0.69397340  0.41674780  0.81158215  1
  O  O356  1  0.68942318  0.75016841  0.06220604  1
  O  O357  1  0.69059638  0.74971359  0.31190313  1
  O  O358  1  0.69421105  0.74985752  0.56110151  1
  O  O359  1  0.69101636  0.75016615  0.81329355  1
  O  O360  1  0.30555284  0.25020990  0.18841119  1
  O  O361  1  0.30690496  0.25021292  0.43896730  1
  O  O362  1  0.30833501  0.25015809  0.68715333  1
  O  O363  1  0.30854176  0.24991997  0.93736665  1
  O  O364  1  0.30919748  0.58417692  0.18811668  1
  O  O365  1  0.30788521  0.58409036  0.43727874  1
  O  O366  1  0.30653631  0.58326765  0.68819330  1
  O  O367  1  0.30868558  0.58409281  0.93783335  1
  O  O368  1  0.30820372  0.91603204  0.18707471  1
  O  O369  1  0.30548375  0.91621172  0.43803999  1
  O  O370  1  0.30548156  0.91654784  0.68876769  1
  O  O371  1  0.30876334  0.91577262  0.93792358  1
  O  O372  1  0.80590456  0.24984114  0.18883536  1
  O  O373  1  0.80679279  0.25016177  0.43870782  1
  O  O374  1  0.80688109  0.25038245  0.68810607  1
  O  O375  1  0.80956316  0.25010459  0.93689369  1
  O  O376  1  0.81033456  0.58399625  0.18765229  1
  O  O377  1  0.80928233  0.58358427  0.43708680  1
  O  O378  1  0.80652494  0.58382390  0.68860907  1
  O  O379  1  0.80948271  0.58421331  0.93800456  1
  O  O380  1  0.80948418  0.91622045  0.18704693  1
  O  O381  1  0.80737156  0.91607558  0.43901599  1
  O  O382  1  0.80932558  0.91614890  0.68673674  1
  O  O383  1  0.80725731  0.91558976  0.93875254  1
  O  O384  1  0.23446628  0.25077781  0.03842148  1
  O  O385  1  0.23363518  0.24975279  0.29119039  1
  O  O386  1  0.23439273  0.24996821  0.54054548  1
  O  O387  1  0.23362114  0.24932336  0.78801039  1
  O  O388  1  0.23374651  0.58411588  0.03850114  1
  O  O389  1  0.23526768  0.58354541  0.28887818  1
  O  O390  1  0.23297124  0.58397591  0.53793025  1
  O  O391  1  0.23451988  0.58346122  0.79046430  1
  O  O392  1  0.23502494  0.91586920  0.03898340  1
  O  O393  1  0.23414110  0.91695445  0.28815683  1
  O  O394  1  0.23347924  0.91619104  0.54051254  1
  O  O395  1  0.23234007  0.91658571  0.79048965  1
  O  O396  1  0.73519916  0.24949844  0.03768002  1
  O  O397  1  0.73225779  0.24923934  0.29055437  1
  O  O398  1  0.73381063  0.25034565  0.54039820  1
  O  O399  1  0.73449238  0.25000943  0.79039478  1
  O  O400  1  0.73494492  0.58383053  0.03853629  1
  O  O401  1  0.73548249  0.58318766  0.28786956  1
  O  O402  1  0.73367532  0.58439437  0.53729534  1
  O  O403  1  0.73312293  0.58342656  0.79022948  1
  O  O404  1  0.73436958  0.91683664  0.04057881  1
  O  O405  1  0.73499422  0.91702285  0.28791010  1
  O  O406  1  0.73517483  0.91564798  0.54128832  1
  O  O407  1  0.73525305  0.91654588  0.78808877  1
  O  O408  1  0.26612304  0.08353907  0.21142171  1
  O  O409  1  0.26645677  0.08313392  0.46251266  1
  O  O410  1  0.26754845  0.08319115  0.71059510  1
  O  O411  1  0.26523073  0.08279253  0.96247553  1
  O  O412  1  0.26747577  0.41729005  0.21252695  1
  O  O413  1  0.26482964  0.41683494  0.46197815  1
  O  O414  1  0.26807945  0.41686274  0.71012269  1
  O  O415  1  0.26643830  0.41727092  0.95963026  1
  O  O416  1  0.26495719  0.74965246  0.21200780  1
  O  O417  1  0.26607179  0.75011967  0.46141380  1
  O  O418  1  0.26651068  0.74989018  0.71244317  1
  O  O419  1  0.26603749  0.74969375  0.96243783  1
  O  O420  1  0.76811610  0.08381383  0.21033204  1
  O  O421  1  0.76556298  0.08256932  0.46284196  1
  O  O422  1  0.76779212  0.08359203  0.71058064  1
  O  O423  1  0.76835741  0.08262438  0.96052493  1
  O  O424  1  0.76671534  0.41621442  0.20946514  1
  O  O425  1  0.76512523  0.41722995  0.46204597  1
  O  O426  1  0.76780273  0.41753984  0.71018697  1
  O  O427  1  0.76640340  0.41700151  0.96041084  1
  O  O428  1  0.76486383  0.75003037  0.21132310  1
  O  O429  1  0.76784237  0.74989025  0.45957919  1
  O  O430  1  0.76699753  0.74903352  0.71338152  1
  O  O431  1  0.76443993  0.75039654  0.96209781  1
  O  O432  1  0.01634264  0.08280461  0.16314898  1
  O  O433  1  0.01778176  0.08302896  0.41272572  1
  O  O434  1  0.01803932  0.08304896  0.66505147  1
  O  O435  1  0.01473379  0.08277938  0.91279513  1
  O  O436  1  0.01690371  0.41805501  0.16535066  1
  O  O437  1  0.01844696  0.41702105  0.41486319  1
  O  O438  1  0.01837971  0.41752784  0.66477375  1
  O  O439  1  0.01515160  0.41676986  0.91254768  1
  O  O440  1  0.01802152  0.74982974  0.16442562  1
  O  O441  1  0.01763921  0.74985037  0.41513690  1
  O  O442  1  0.01669802  0.74976939  0.66288365  1
  O  O443  1  0.01692107  0.74985021  0.91212824  1
  O  O444  1  0.51531832  0.08230398  0.16625674  1
  O  O445  1  0.51445093  0.08336326  0.41319180  1
  O  O446  1  0.51562472  0.08358902  0.66327941  1
  O  O447  1  0.51414069  0.08285087  0.91317891  1
  O  O448  1  0.51509618  0.41761477  0.16642896  1
  O  O449  1  0.51528675  0.41718890  0.41337210  1
  O  O450  1  0.51733739  0.41647757  0.66490672  1
  O  O451  1  0.51469819  0.41715084  0.91302983  1
  O  O452  1  0.51597354  0.74975486  0.16295801  1
  O  O453  1  0.51705525  0.74971648  0.41617423  1
  O  O454  1  0.51464778  0.74987731  0.66287376  1
  O  O455  1  0.51493509  0.74974260  0.91249545  1
  O  O456  1  0.48416054  0.24990873  0.08714711  1
  O  O457  1  0.48403479  0.24990109  0.33451323  1
  O  O458  1  0.48185581  0.25014283  0.58552777  1
  O  O459  1  0.48132495  0.24991264  0.83576749  1
  O  O460  1  0.48139777  0.58391170  0.08535680  1
  O  O461  1  0.48320766  0.58457403  0.33781390  1
  O  O462  1  0.48573527  0.58297359  0.58721117  1
  O  O463  1  0.48229894  0.58411741  0.83494234  1
  O  O464  1  0.48137992  0.91620654  0.08542092  1
  O  O465  1  0.48360130  0.91502416  0.33555995  1
  O  O466  1  0.48321947  0.91728401  0.58537062  1
  O  O467  1  0.48126474  0.91581893  0.83536976  1
  O  O468  1  0.98356571  0.24930012  0.08465676  1
  O  O469  1  0.98443827  0.25039800  0.33444973  1
  O  O470  1  0.98577130  0.24952284  0.58731939  1
  O  O471  1  0.98296385  0.25051375  0.83472964  1
  O  O472  1  0.98326034  0.58383480  0.08463612  1
  O  O473  1  0.98383590  0.58393836  0.33760989  1
  O  O474  1  0.98505275  0.58350130  0.58512673  1
  O  O475  1  0.98342829  0.58393475  0.83702644  1
  O  O476  1  0.98226083  0.91614858  0.08450886  1
  O  O477  1  0.98429909  0.91628414  0.33485067  1
  O  O478  1  0.98411635  0.91633757  0.58787078  1
  O  O479  1  0.98473144  0.91607672  0.83453114  1
  O  O480  1  0.08721524  0.31437817  0.07723211  1
  O  O481  1  0.08820405  0.31542708  0.32828883  1
  O  O482  1  0.08901028  0.31511265  0.57924555  1
  O  O483  1  0.08758729  0.31465497  0.82649341  1
  O  O484  1  0.08715613  0.64928800  0.07688552  1
  O  O485  1  0.08751647  0.64862175  0.32852598  1
  O  O486  1  0.08881233  0.64899543  0.57775189  1
  O  O487  1  0.08697012  0.64937351  0.82781729  1
  O  O488  1  0.08581304  0.98176426  0.07712125  1
  O  O489  1  0.08798827  0.98143024  0.32797746  1
  O  O490  1  0.08756503  0.98166266  0.57875257  1
  O  O491  1  0.08894571  0.98033115  0.82663207  1
  O  O492  1  0.58767179  0.31486502  0.07784291  1
  O  O493  1  0.58804871  0.31476755  0.32675655  1
  O  O494  1  0.58581171  0.31505403  0.57810670  1
  O  O495  1  0.58534358  0.31464481  0.82723573  1
  O  O496  1  0.58519904  0.64909596  0.07733453  1
  O  O497  1  0.58661785  0.65013477  0.32845833  1
  O  O498  1  0.58975403  0.64721433  0.57753088  1
  O  O499  1  0.58618131  0.64972309  0.82686467  1
  O  O500  1  0.58507049  0.98115977  0.07666930  1
  O  O501  1  0.58712073  0.98016527  0.32733394  1
  O  O502  1  0.58685615  0.98277944  0.57824970  1
  O  O503  1  0.58529299  0.98060333  0.82694053  1
  O  O504  1  0.41129457  0.01697486  0.17269770  1
  O  O505  1  0.41087615  0.01804224  0.42291397  1
  O  O506  1  0.41139074  0.01952947  0.67300295  1
  O  O507  1  0.41052274  0.01783450  0.92103123  1
  O  O508  1  0.41098464  0.35306941  0.17348583  1
  O  O509  1  0.41148665  0.35296298  0.42247815  1
  O  O510  1  0.41320783  0.35103429  0.67265435  1
  O  O511  1  0.41125782  0.35192803  0.92120410  1
  O  O512  1  0.41235684  0.68495908  0.17205597  1
  O  O513  1  0.41318744  0.68392755  0.42391007  1
  O  O514  1  0.41097456  0.68482295  0.67267905  1
  O  O515  1  0.41126754  0.68463711  0.92188220  1
  O  O516  1  0.91292196  0.01682537  0.17213810  1
  O  O517  1  0.91389231  0.01863513  0.42243644  1
  O  O518  1  0.91423559  0.01707252  0.67296337  1
  O  O519  1  0.91029051  0.01973647  0.92210877  1
  O  O520  1  0.91346364  0.35266935  0.17281555  1
  O  O521  1  0.91451629  0.35251163  0.42343669  1
  O  O522  1  0.91432313  0.35223076  0.67332141  1
  O  O523  1  0.91168157  0.35177385  0.92076526  1
  O  O524  1  0.91425376  0.68484335  0.17211436  1
  O  O525  1  0.91386708  0.68416253  0.42354576  1
  O  O526  1  0.91262449  0.68550767  0.67311824  1
  O  O527  1  0.91342929  0.68425545  0.92185700  1
  O  O528  1  0.16240527  0.01847652  0.20138909  1
  O  O529  1  0.16273596  0.01820328  0.45217711  1
  O  O530  1  0.16372847  0.01781107  0.70243650  1
  O  O531  1  0.16176961  0.01800118  0.95292633  1
  O  O532  1  0.16410827  0.35195393  0.20259394  1
  O  O533  1  0.16069899  0.35305484  0.45255095  1
  O  O534  1  0.16440452  0.35069980  0.70229986  1
  O  O535  1  0.16223355  0.35348327  0.95235701  1
  O  O536  1  0.16125374  0.68489524  0.20214627  1
  O  O537  1  0.16268329  0.68413450  0.45236671  1
  O  O538  1  0.16231498  0.68602598  0.70237398  1
  O  O539  1  0.16269188  0.68371037  0.95240982  1
  O  O540  1  0.66436034  0.01903087  0.20150456  1
  O  O541  1  0.66215286  0.01762695  0.45318314  1
  O  O542  1  0.66368279  0.01847945  0.70162799  1
  O  O543  1  0.66450818  0.01770660  0.95138546  1
  O  O544  1  0.66314366  0.35042379  0.20306315  1
  O  O545  1  0.66115145  0.35296738  0.45317809  1
  O  O546  1  0.66358777  0.35274452  0.70189745  1
  O  O547  1  0.66272454  0.35188509  0.95195561  1
  O  O548  1  0.66121398  0.68474500  0.20194369  1
  O  O549  1  0.66386543  0.68432910  0.45170649  1
  O  O550  1  0.66334608  0.68406559  0.70352391  1
  O  O551  1  0.66064267  0.68545857  0.95205836  1
  O  O552  1  0.33833000  0.31514717  0.04685585  1
  O  O553  1  0.33715935  0.31513484  0.29750201  1
  O  O554  1  0.33867308  0.31400981  0.54852196  1
  O  O555  1  0.33711011  0.31505986  0.79713376  1
  O  O556  1  0.33713392  0.64995332  0.04772395  1
  O  O557  1  0.33915437  0.64789508  0.29835485  1
  O  O558  1  0.33637058  0.64959398  0.54711841  1
  O  O559  1  0.33836047  0.64829871  0.79739943  1
  O  O560  1  0.33920290  0.97974440  0.04785343  1
  O  O561  1  0.33753224  0.98247775  0.29627693  1
  O  O562  1  0.33708778  0.98134249  0.54711078  1
  O  O563  1  0.33638320  0.98169641  0.79787764  1
  O  O564  1  0.83879628  0.31398666  0.04723543  1
  O  O565  1  0.83605760  0.31414191  0.29834420  1
  O  O566  1  0.83778388  0.31517538  0.54778136  1
  O  O567  1  0.83824889  0.31560870  0.79705784  1
  O  O568  1  0.83851969  0.64909245  0.04801470  1
  O  O569  1  0.83905482  0.64854938  0.29779547  1
  O  O570  1  0.83714316  0.64971038  0.54688517  1
  O  O571  1  0.83729976  0.64825653  0.79838015  1
  O  O572  1  0.83855493  0.98198042  0.04727155  1
  O  O573  1  0.83832646  0.98284384  0.29644615  1
  O  O574  1  0.83960729  0.97984305  0.54839990  1
  O  O575  1  0.83884184  0.98157170  0.79596789  1
  O  O576  1  0.41124303  0.14699575  0.17365247  1
  O  O577  1  0.41059553  0.14799527  0.42292722  1
  O  O578  1  0.41205350  0.14942319  0.67212401  1
  O  O579  1  0.41074570  0.14827878  0.92129578  1
  O  O580  1  0.41131183  0.48317584  0.17260027  1
  O  O581  1  0.41214197  0.48316626  0.42223080  1
  O  O582  1  0.41307455  0.48088634  0.67315144  1
  O  O583  1  0.41129134  0.48242547  0.92083040  1
  O  O584  1  0.41252944  0.81496843  0.17205028  1
  O  O585  1  0.41248361  0.81368488  0.42394767  1
  O  O586  1  0.41077109  0.81474984  0.67282630  1
  O  O587  1  0.41112537  0.81470264  0.92205605  1
  O  O588  1  0.91231361  0.14690291  0.17303244  1
  O  O589  1  0.91450213  0.14871273  0.42296149  1
  O  O590  1  0.91348222  0.14695193  0.67316042  1
  O  O591  1  0.91204795  0.14994032  0.92155823  1
  O  O592  1  0.91307618  0.48298941  0.17169346  1
  O  O593  1  0.91479524  0.48266395  0.42316029  1
  O  O594  1  0.91406558  0.48207014  0.67329789  1
  O  O595  1  0.91178359  0.48219106  0.92105062  1
  O  O596  1  0.91421658  0.81493603  0.17230345  1
  O  O597  1  0.91341112  0.81403677  0.42369585  1
  O  O598  1  0.91305573  0.81546714  0.67266688  1
  O  O599  1  0.91318593  0.81421978  0.92190807  1
  O  O600  1  0.08719469  0.18396520  0.07759534  1
  O  O601  1  0.08799392  0.18499040  0.32796886  1
  O  O602  1  0.08930951  0.18465317  0.57915037  1
  O  O603  1  0.08677271  0.18487086  0.82634887  1
  O  O604  1  0.08752453  0.51939724  0.07623812  1
  O  O605  1  0.08722492  0.51847590  0.32832562  1
  O  O606  1  0.08930465  0.51885507  0.57795440  1
  O  O607  1  0.08715660  0.51940768  0.82742333  1
  O  O608  1  0.08641844  0.85163403  0.07760330  1
  O  O609  1  0.08798403  0.85116846  0.32835693  1
  O  O610  1  0.08767626  0.85139565  0.57892564  1
  O  O611  1  0.08848830  0.85037971  0.82706953  1
  O  O612  1  0.58746453  0.18445794  0.07749501  1
  O  O613  1  0.58795461  0.18479170  0.32670051  1
  O  O614  1  0.58553470  0.18477071  0.57786860  1
  O  O615  1  0.58499536  0.18460328  0.82701999  1
  O  O616  1  0.58512636  0.51904934  0.07692256  1
  O  O617  1  0.58684170  0.52009553  0.32758921  1
  O  O618  1  0.58907751  0.51702738  0.57847991  1
  O  O619  1  0.58669038  0.51978498  0.82637987  1
  O  O620  1  0.58511799  0.85101133  0.07732486  1
  O  O621  1  0.58742139  0.84995105  0.32857135  1
  O  O622  1  0.58703665  0.85247937  0.57781190  1
  O  O623  1  0.58515629  0.85051159  0.82732597  1
  O  O624  1  0.33764335  0.18509030  0.04734392  1
  O  O625  1  0.33729920  0.18475438  0.29702401  1
  O  O626  1  0.33787283  0.18399179  0.54789908  1
  O  O627  1  0.33753499  0.18480824  0.79693024  1
  O  O628  1  0.33787316  0.52002539  0.04796261  1
  O  O629  1  0.33886353  0.51789210  0.29764208  1
  O  O630  1  0.33679063  0.51961853  0.54732385  1
  O  O631  1  0.33837935  0.51819386  0.79713828  1
  O  O632  1  0.33824122  0.84970837  0.04744255  1
  O  O633  1  0.33760699  0.85224261  0.29727008  1
  O  O634  1  0.33716023  0.85116252  0.54700922  1
  O  O635  1  0.33634924  0.85161195  0.79810186  1
  O  O636  1  0.83846051  0.18379188  0.04634764  1
  O  O637  1  0.83620956  0.18395376  0.29784677  1
  O  O638  1  0.83756287  0.18506442  0.54779118  1
  O  O639  1  0.83878144  0.18538783  0.79690407  1
  O  O640  1  0.83898497  0.51918889  0.04776992  1
  O  O641  1  0.83941705  0.51858447  0.29773077  1
  O  O642  1  0.83717798  0.51965962  0.54766009  1
  O  O643  1  0.83726290  0.51827359  0.79756412  1
  O  O644  1  0.83826177  0.85200622  0.04856341  1
  O  O645  1  0.83860860  0.85251970  0.29712976  1
  O  O646  1  0.83889246  0.84980990  0.54759537  1
  O  O647  1  0.83857240  0.85118146  0.79666097  1
  O  O648  1  0.16220255  0.14829843  0.20188649  1
  O  O649  1  0.16281778  0.14818282  0.45234735  1
  O  O650  1  0.16342928  0.14784760  0.70235938  1
  O  O651  1  0.16200957  0.14815078  0.95270106  1
  O  O652  1  0.16391897  0.48199371  0.20256420  1
  O  O653  1  0.16172427  0.48315230  0.45270084  1
  O  O654  1  0.16358851  0.48070835  0.70200614  1
  O  O655  1  0.16327152  0.48364426  0.95246686  1
  O  O656  1  0.16134550  0.81477367  0.20184685  1
  O  O657  1  0.16188200  0.81405394  0.45224205  1
  O  O658  1  0.16309686  0.81596232  0.70279188  1
  O  O659  1  0.16189119  0.81364579  0.95213880  1
  O  O660  1  0.66429681  0.14912214  0.20246303  1
  O  O661  1  0.66205658  0.14783950  0.45312373  1
  O  O662  1  0.66354123  0.14847172  0.70194761  1
  O  O663  1  0.66454866  0.14775032  0.95133234  1
  O  O664  1  0.66289103  0.48081822  0.20192596  1
  O  O665  1  0.66195589  0.48321208  0.45345506  1
  O  O666  1  0.66371507  0.48281253  0.70275666  1
  O  O667  1  0.66269664  0.48199909  0.95202017  1
  O  O668  1  0.66085566  0.81474674  0.20206394  1
  O  O669  1  0.66357124  0.81420599  0.45165617  1
  O  O670  1  0.66356291  0.81410968  0.70257392  1
  O  O671  1  0.66071614  0.81539904  0.95211759  1
