# generated using pymatgen
data_Na2MnFe(PO4)2
_symmetry_space_group_name_H-M   'P 1'
_cell_length_a   21.08672851
_cell_length_b   18.93901119
_cell_length_c   20.04573571
_cell_angle_alpha   90.00117944
_cell_angle_beta   89.99559010
_cell_angle_gamma   89.99806744
_symmetry_Int_Tables_number   1
_chemical_formula_structural   Na2MnFe(PO4)2
_chemical_formula_sum   'Na96 Mn48 Fe48 P96 O384'
_cell_volume   8005.50080812
_cell_formula_units_Z   48
loop_
 _symmetry_equiv_pos_site_id
 _symmetry_equiv_pos_as_xyz
  1  'x, y, z'
loop_
 _atom_site_type_symbol
 _atom_site_label
 _atom_site_symmetry_multiplicity
 _atom_site_fract_x
 _atom_site_fract_y
 _atom_site_fract_z
 _atom_site_occupancy
  Na  Na0  1  0.00157741  -0.00026959  0.00077003  1
  Na  Na1  1  0.00046465  -0.00122317  0.25013054  1
  Na  Na2  1  0.00309712  0.00049675  0.50029201  1
  Na  Na3  1  0.00266703  0.00004071  0.74890032  1
  Na  Na4  1  -0.00023006  0.33465388  0.00051073  1
  Na  Na5  1  -0.00092685  0.33401261  0.24926211  1
  Na  Na6  1  -0.00097728  0.33360479  0.49962057  1
  Na  Na7  1  -0.00187019  0.33275952  0.75045679  1
  Na  Na8  1  -0.00028291  0.66693400  -0.00012961  1
  Na  Na9  1  -0.00327480  0.66550725  0.25004187  1
  Na  Na10  1  -0.00208533  0.66667036  0.49974175  1
  Na  Na11  1  0.00015094  0.66632056  0.74975447  1
  Na  Na12  1  0.50099401  0.00019232  0.00003692  1
  Na  Na13  1  0.50307145  0.00114339  0.25063913  1
  Na  Na14  1  0.49951678  -0.00039688  0.50009167  1
  Na  Na15  1  0.49787102  -0.00120311  0.74994586  1
  Na  Na16  1  0.50214810  0.33394641  -0.00037261  1
  Na  Na17  1  0.50170076  0.33338868  0.25043399  1
  Na  Na18  1  0.50205492  0.33384221  0.49962052  1
  Na  Na19  1  0.50113729  0.33308460  0.75057961  1
  Na  Na20  1  0.50068185  0.66681984  0.00000192  1
  Na  Na21  1  0.50036989  0.66680565  0.24867559  1
  Na  Na22  1  0.49876245  0.66608763  0.50019326  1
  Na  Na23  1  0.49795957  0.66585766  0.75070879  1
  Na  Na24  1  0.24848209  -0.00101941  0.12483580  1
  Na  Na25  1  0.24884238  0.00004955  0.37512471  1
  Na  Na26  1  0.24797113  -0.00042550  0.62611117  1
  Na  Na27  1  0.24901746  -0.00037894  0.87417987  1
  Na  Na28  1  0.24944890  0.33398584  0.12462233  1
  Na  Na29  1  0.25093713  0.33429565  0.37559256  1
  Na  Na30  1  0.25001196  0.33387172  0.62505931  1
  Na  Na31  1  0.24938936  0.33445878  0.87578843  1
  Na  Na32  1  0.25222065  0.66622046  0.12525845  1
  Na  Na33  1  0.25325263  0.66711689  0.37433654  1
  Na  Na34  1  0.25315314  0.66671011  0.62473157  1
  Na  Na35  1  0.25351149  0.66682849  0.87431308  1
  Na  Na36  1  0.74794050  -0.00117845  0.12512662  1
  Na  Na37  1  0.74874328  -0.00066158  0.37476240  1
  Na  Na38  1  0.74953779  -0.00078356  0.62456467  1
  Na  Na39  1  0.75092114  0.00020646  0.87568021  1
  Na  Na40  1  0.74749292  0.33243670  0.12429911  1
  Na  Na41  1  0.74947772  0.33329247  0.37612065  1
  Na  Na42  1  0.74832323  0.33224032  0.62437760  1
  Na  Na43  1  0.75049577  0.33376035  0.87475365  1
  Na  Na44  1  0.74960993  0.66689173  0.12521598  1
  Na  Na45  1  0.74975926  0.66668557  0.37446665  1
  Na  Na46  1  0.75019094  0.66798417  0.62480170  1
  Na  Na47  1  0.74600943  0.66539995  0.87588375  1
  Na  Na48  1  -0.00073187  0.16710166  0.00025088  1
  Na  Na49  1  -0.00010372  0.16611634  0.24979639  1
  Na  Na50  1  -0.00103406  0.16713294  0.49961475  1
  Na  Na51  1  0.00090119  0.16604278  0.75018281  1
  Na  Na52  1  0.00060459  0.50033784  -0.00065646  1
  Na  Na53  1  -0.00080434  0.50054249  0.24925428  1
  Na  Na54  1  0.00013618  0.50029706  0.49955713  1
  Na  Na55  1  0.00236332  0.49883328  0.75098360  1
  Na  Na56  1  -0.00105385  0.83377156  0.00082939  1
  Na  Na57  1  -0.00142091  0.83312080  0.25101390  1
  Na  Na58  1  -0.00043594  0.83372162  0.49976806  1
  Na  Na59  1  0.00018457  0.83324720  0.74880364  1
  Na  Na60  1  0.50272777  0.16660692  -0.00000830  1
  Na  Na61  1  0.50272227  0.16655376  0.25042281  1
  Na  Na62  1  0.50152605  0.16638092  0.50108907  1
  Na  Na63  1  0.50104827  0.16645452  0.74950457  1
  Na  Na64  1  0.49969317  0.50051560  -0.00015978  1
  Na  Na65  1  0.49995334  0.50032788  0.24974953  1
  Na  Na66  1  0.49878170  0.50044919  0.49981125  1
  Na  Na67  1  0.49898681  0.50046259  0.75130797  1
  Na  Na68  1  0.50062641  0.83260166  -0.00036399  1
  Na  Na69  1  0.50117904  0.83302622  0.24953911  1
  Na  Na70  1  0.50077604  0.83253033  0.49903083  1
  Na  Na71  1  0.49843587  0.83365285  0.75048943  1
  Na  Na72  1  0.24942359  0.16645506  0.12595942  1
  Na  Na73  1  0.24993006  0.16622862  0.37511051  1
  Na  Na74  1  0.24972834  0.16580146  0.62594052  1
  Na  Na75  1  0.24878710  0.16696124  0.87465666  1
  Na  Na76  1  0.25054296  0.50039539  0.12430089  1
  Na  Na77  1  0.25269371  0.49963603  0.37511259  1
  Na  Na78  1  0.25062541  0.49997823  0.62471504  1
  Na  Na79  1  0.24974310  0.50040996  0.87488993  1
  Na  Na80  1  0.25176771  0.83238633  0.12416506  1
  Na  Na81  1  0.24913535  0.83441376  0.37510566  1
  Na  Na82  1  0.25105798  0.83358135  0.62492205  1
  Na  Na83  1  0.25185899  0.83311586  0.87519789  1
  Na  Na84  1  0.74857724  0.16700371  0.12447596  1
  Na  Na85  1  0.74761205  0.16761582  0.37522101  1
  Na  Na86  1  0.74974277  0.16728076  0.62444717  1
  Na  Na87  1  0.74896510  0.16775710  0.87500474  1
  Na  Na88  1  0.74860072  0.50087319  0.12534705  1
  Na  Na89  1  0.74986643  0.50013144  0.37533510  1
  Na  Na90  1  0.74743494  0.50163286  0.62407364  1
  Na  Na91  1  0.74953939  0.49982099  0.87564247  1
  Na  Na92  1  0.74881268  0.83303177  0.12462320  1
  Na  Na93  1  0.75106929  0.83237830  0.37475254  1
  Na  Na94  1  0.74896530  0.83361230  0.62559482  1
  Na  Na95  1  0.74951718  0.83266140  0.87560987  1
  Mn  Mn96  1  0.64146837  0.58411172  0.49743829  1
  Mn  Mn97  1  0.10867026  0.75027693  0.87274191  1
  Mn  Mn98  1  0.10863875  0.74931737  0.62242072  1
  Mn  Mn99  1  0.64164570  0.91696954  0.74786330  1
  Mn  Mn100  1  0.39273696  0.25019468  0.62750581  1
  Mn  Mn101  1  0.10800250  0.74874444  0.12350540  1
  Mn  Mn102  1  0.35691674  0.08377093  0.75253943  1
  Mn  Mn103  1  0.14274304  0.58395217  0.24802652  1
  Mn  Mn104  1  0.85685152  0.41690183  0.25181948  1
  Mn  Mn105  1  0.89179534  0.58361913  0.87724790  1
  Mn  Mn106  1  0.60787021  0.41706389  0.37216923  1
  Mn  Mn107  1  0.14192355  0.25052770  0.24818764  1
  Mn  Mn108  1  0.10713183  0.74963971  0.37249628  1
  Mn  Mn109  1  0.14151468  0.24959693  0.49747937  1
  Mn  Mn110  1  0.14252283  0.91528856  0.99726203  1
  Mn  Mn111  1  0.85721922  0.41753312  0.75151304  1
  Mn  Mn112  1  0.89272728  0.91726414  0.62695674  1
  Mn  Mn113  1  0.35758140  0.41650189  0.00259803  1
  Mn  Mn114  1  0.39327674  0.91718637  0.12760525  1
  Mn  Mn115  1  0.85741685  0.41712911  0.50274722  1
  Mn  Mn116  1  0.85753832  0.08326217  0.00203108  1
  Mn  Mn117  1  0.14135819  0.25043036  0.74769838  1
  Mn  Mn118  1  0.14146640  0.25050895  0.99752049  1
  Mn  Mn119  1  0.35857954  0.75140365  0.50191006  1
  Mn  Mn120  1  0.85728781  0.74964619  0.75250409  1
  Mn  Mn121  1  0.39256230  0.91689420  0.37707782  1
  Mn  Mn122  1  0.64257039  0.91647515  0.24763594  1
  Mn  Mn123  1  0.10785164  0.08377198  0.12280966  1
  Mn  Mn124  1  0.39266007  0.24973617  0.87753830  1
  Mn  Mn125  1  0.10739069  0.41680039  0.37227301  1
  Mn  Mn126  1  0.85694029  0.08308428  0.25269316  1
  Mn  Mn127  1  0.85764795  0.08237145  0.50172832  1
  Mn  Mn128  1  0.85666377  0.74925884  0.00175520  1
  Mn  Mn129  1  0.39338554  0.25025294  0.12729008  1
  Mn  Mn130  1  0.39298842  0.24982927  0.37727406  1
  Mn  Mn131  1  0.35784029  0.08347488  0.00242124  1
  Mn  Mn132  1  0.60670593  0.74971171  0.62294376  1
  Mn  Mn133  1  0.35841045  0.08338244  0.25241113  1
  Mn  Mn134  1  0.60823120  0.41737350  0.87228898  1
  Mn  Mn135  1  0.14293175  0.58411877  0.49751786  1
  Mn  Mn136  1  0.89196114  0.58247672  0.62772355  1
  Mn  Mn137  1  0.89148102  0.25050750  0.12755577  1
  Mn  Mn138  1  0.60760913  0.08297497  0.62258304  1
  Mn  Mn139  1  0.35846318  0.41546650  0.50296531  1
  Mn  Mn140  1  0.89165776  0.91601423  0.12719334  1
  Mn  Mn141  1  0.60817111  0.08249058  0.87201435  1
  Mn  Mn142  1  0.85857654  0.08300470  0.75218949  1
  Mn  Mn143  1  0.14349782  0.58409643  0.74788601  1
  Fe  Fe144  1  0.64258674  0.25057799  0.24810744  1
  Fe  Fe145  1  0.10732462  0.41760537  0.12342196  1
  Fe  Fe146  1  0.39283061  0.58298180  0.62704843  1
  Fe  Fe147  1  0.64222151  0.58310661  0.99853675  1
  Fe  Fe148  1  0.64242199  0.58313663  0.24794656  1
  Fe  Fe149  1  0.10691227  0.08352137  0.87407292  1
  Fe  Fe150  1  0.64132782  0.58304551  0.74808323  1
  Fe  Fe151  1  0.89170373  0.24952412  0.37627291  1
  Fe  Fe152  1  0.64324129  0.25025531  0.99775868  1
  Fe  Fe153  1  0.35809590  0.41663229  0.25087828  1
  Fe  Fe154  1  0.35803659  0.75001872  0.75189535  1
  Fe  Fe155  1  0.89236409  0.24957029  0.87645430  1
  Fe  Fe156  1  0.14314219  0.91626883  0.49829124  1
  Fe  Fe157  1  0.85644333  0.74981659  0.25160360  1
  Fe  Fe158  1  0.85651076  0.75042081  0.50122977  1
  Fe  Fe159  1  0.89314602  0.91684470  0.87620888  1
  Fe  Fe160  1  0.10744610  0.08427610  0.62250139  1
  Fe  Fe161  1  0.14318708  0.91576896  0.74871531  1
  Fe  Fe162  1  0.39374016  0.58338590  0.37577763  1
  Fe  Fe163  1  0.64300518  0.24927714  0.49824590  1
  Fe  Fe164  1  0.60723768  0.74979807  0.12290545  1
  Fe  Fe165  1  0.85698715  0.41722462  0.00167458  1
  Fe  Fe166  1  0.89254412  0.25010540  0.62644227  1
  Fe  Fe167  1  0.60682109  0.41696131  0.62407396  1
  Fe  Fe168  1  0.14270500  0.91580779  0.24881848  1
  Fe  Fe169  1  0.39359710  0.58284220  0.12658135  1
  Fe  Fe170  1  0.10766186  0.41629700  0.62370032  1
  Fe  Fe171  1  0.60758410  0.08270799  0.37385188  1
  Fe  Fe172  1  0.60816424  0.08341575  0.12268442  1
  Fe  Fe173  1  0.64333394  0.25043995  0.74795328  1
  Fe  Fe174  1  0.64224483  0.91641553  0.99747956  1
  Fe  Fe175  1  0.64198014  0.91666683  0.49827270  1
  Fe  Fe176  1  0.35754757  0.41636883  0.75184956  1
  Fe  Fe177  1  0.39320049  0.58321236  0.87738498  1
  Fe  Fe178  1  0.60778461  0.75002528  0.37278193  1
  Fe  Fe179  1  0.89296809  0.91681816  0.37735832  1
  Fe  Fe180  1  0.10707795  0.08354097  0.37355971  1
  Fe  Fe181  1  0.39204163  0.91671399  0.62658955  1
  Fe  Fe182  1  0.14326661  0.58400281  0.99865691  1
  Fe  Fe183  1  0.35844220  0.75004185  0.25155255  1
  Fe  Fe184  1  0.35823747  0.74982730  0.00202764  1
  Fe  Fe185  1  0.10655258  0.41640899  0.87322004  1
  Fe  Fe186  1  0.89142018  0.58336174  0.37668488  1
  Fe  Fe187  1  0.60584624  0.75022947  0.87326910  1
  Fe  Fe188  1  0.60747171  0.41699524  0.12300333  1
  Fe  Fe189  1  0.89199805  0.58335593  0.12620300  1
  Fe  Fe190  1  0.35706544  0.08325452  0.50160935  1
  Fe  Fe191  1  0.39233280  0.91662105  0.87704632  1
  P  P192  1  0.05295311  0.25120343  0.11016197  1
  P  P193  1  0.05138371  0.24956378  0.35987347  1
  P  P194  1  0.05212145  0.25041218  0.61001622  1
  P  P195  1  0.05177182  0.25054057  0.86051792  1
  P  P196  1  0.05279106  0.58312720  0.10948730  1
  P  P197  1  0.05147026  0.58373715  0.35979931  1
  P  P198  1  0.05375935  0.58250726  0.60992940  1
  P  P199  1  0.05475138  0.58309914  0.86128920  1
  P  P200  1  0.05471220  0.91547935  0.11140495  1
  P  P201  1  0.05419980  0.91689966  0.36098334  1
  P  P202  1  0.05601520  0.91683781  0.61042808  1
  P  P203  1  0.05310616  0.91682190  0.85937567  1
  P  P204  1  0.55600821  0.25058861  0.11053677  1
  P  P205  1  0.55568974  0.24887927  0.36093462  1
  P  P206  1  0.55556434  0.25101414  0.61080466  1
  P  P207  1  0.55574840  0.25004728  0.86013232  1
  P  P208  1  0.55435933  0.58308254  0.11071595  1
  P  P209  1  0.55324581  0.58435301  0.35902621  1
  P  P210  1  0.55269913  0.58254608  0.61141368  1
  P  P211  1  0.55391981  0.58424312  0.86104663  1
  P  P212  1  0.55463186  0.91641604  0.10938668  1
  P  P213  1  0.55489252  0.91644810  0.36119601  1
  P  P214  1  0.55209867  0.91624325  0.60942211  1
  P  P215  1  0.55272590  0.91566973  0.86101243  1
  P  P216  1  0.44909983  0.08368869  0.14015081  1
  P  P217  1  0.44771187  0.08350634  0.39089998  1
  P  P218  1  0.44522697  0.08254691  0.63892900  1
  P  P219  1  0.44674319  0.08286389  0.89009534  1
  P  P220  1  0.44793811  0.41713640  0.14006792  1
  P  P221  1  0.44583514  0.41734340  0.38853726  1
  P  P222  1  0.44745641  0.41683238  0.64102572  1
  P  P223  1  0.44582088  0.41705565  0.88914520  1
  P  P224  1  0.44653072  0.74930108  0.13887975  1
  P  P225  1  0.44716474  0.74931181  0.38816698  1
  P  P226  1  0.44563438  0.75041454  0.64044522  1
  P  P227  1  0.44526302  0.74979849  0.88943496  1
  P  P228  1  0.94622306  0.08294695  0.14032492  1
  P  P229  1  0.94742912  0.08264607  0.38968674  1
  P  P230  1  0.94801195  0.08395125  0.63946950  1
  P  P231  1  0.94772512  0.08258322  0.88974091  1
  P  P232  1  0.94602769  0.41824184  0.13842026  1
  P  P233  1  0.94547039  0.41681101  0.38954043  1
  P  P234  1  0.94783828  0.41616810  0.64012525  1
  P  P235  1  0.94619727  0.41630035  0.89039871  1
  P  P236  1  0.94532367  0.74880668  0.14056194  1
  P  P237  1  0.94393450  0.75015078  0.38915875  1
  P  P238  1  0.94555057  0.75008846  0.63879492  1
  P  P239  1  0.94682773  0.75103485  0.88993005  1
  P  P240  1  0.19529806  0.08242928  0.23651285  1
  P  P241  1  0.19572917  0.08264057  0.48567905  1
  P  P242  1  0.19374263  0.08266851  0.73604647  1
  P  P243  1  0.19601895  0.08312943  0.98413573  1
  P  P244  1  0.19763176  0.41747454  0.23448969  1
  P  P245  1  0.19566535  0.41681218  0.48583380  1
  P  P246  1  0.19627280  0.41701868  0.73562840  1
  P  P247  1  0.19440353  0.41839503  0.98562537  1
  P  P248  1  0.19859853  0.75036179  0.23521653  1
  P  P249  1  0.19740263  0.75061934  0.48454647  1
  P  P250  1  0.19893974  0.75029928  0.73501710  1
  P  P251  1  0.19868762  0.74835585  0.98507201  1
  P  P252  1  0.69483989  0.08413454  0.23561798  1
  P  P253  1  0.69589371  0.08294507  0.48466870  1
  P  P254  1  0.69721544  0.08386197  0.73462352  1
  P  P255  1  0.69524337  0.08315941  0.98587430  1
  P  P256  1  0.69569174  0.41697497  0.23451391  1
  P  P257  1  0.69482978  0.41630970  0.48643908  1
  P  P258  1  0.69583446  0.41700406  0.73416361  1
  P  P259  1  0.69623730  0.41707761  0.98622655  1
  P  P260  1  0.69559157  0.74912268  0.23541783  1
  P  P261  1  0.69625973  0.75087414  0.48434513  1
  P  P262  1  0.69445355  0.74935349  0.73636823  1
  P  P263  1  0.69353579  0.74960138  0.98579400  1
  P  P264  1  0.30296465  0.24999396  0.01553574  1
  P  P265  1  0.30359976  0.25108001  0.26508811  1
  P  P266  1  0.30320476  0.24861842  0.51536700  1
  P  P267  1  0.30296477  0.25112591  0.76533194  1
  P  P268  1  0.30497424  0.58383170  0.01445763  1
  P  P269  1  0.30626292  0.58298424  0.26380013  1
  P  P270  1  0.30617278  0.58338899  0.51424224  1
  P  P271  1  0.30639483  0.58266919  0.76429901  1
  P  P272  1  0.30503605  0.91608579  0.01401841  1
  P  P273  1  0.30279951  0.91610214  0.26486599  1
  P  P274  1  0.30300124  0.91822105  0.51539031  1
  P  P275  1  0.30419397  0.91614950  0.76442346  1
  P  P276  1  0.80368145  0.25084421  0.01353182  1
  P  P277  1  0.80183267  0.25024846  0.26549957  1
  P  P278  1  0.80412524  0.24948096  0.51431641  1
  P  P279  1  0.80418765  0.25028899  0.76413104  1
  P  P280  1  0.80216371  0.58273856  0.01544312  1
  P  P281  1  0.80318990  0.58395917  0.26404331  1
  P  P282  1  0.80387487  0.58467476  0.51397427  1
  P  P283  1  0.80091391  0.58335434  0.76526968  1
  P  P284  1  0.80280333  0.91629751  0.01376301  1
  P  P285  1  0.80390849  0.91565176  0.26557109  1
  P  P286  1  0.80292937  0.91578668  0.51373250  1
  P  P287  1  0.80370935  0.91656941  0.76591923  1
  O  O288  1  0.05610166  0.25065457  0.18693141  1
  O  O289  1  0.05513800  0.25017504  0.43655895  1
  O  O290  1  0.05550005  0.25035429  0.68673660  1
  O  O291  1  0.05522367  0.25078001  0.93717288  1
  O  O292  1  0.05665838  0.58378038  0.18619964  1
  O  O293  1  0.05620667  0.58426297  0.43638845  1
  O  O294  1  0.05742216  0.58341367  0.68672460  1
  O  O295  1  0.05885538  0.58452724  0.93794234  1
  O  O296  1  0.05912334  0.91488988  0.18815105  1
  O  O297  1  0.05914279  0.91609210  0.43766569  1
  O  O298  1  0.06016480  0.91537005  0.68716790  1
  O  O299  1  0.05652074  0.91559655  0.93617887  1
  O  O300  1  0.55931920  0.25056167  0.18737756  1
  O  O301  1  0.55939778  0.24975956  0.43772537  1
  O  O302  1  0.55950499  0.24988515  0.68759072  1
  O  O303  1  0.56019470  0.25042115  0.93693785  1
  O  O304  1  0.55870165  0.58312433  0.18739161  1
  O  O305  1  0.55622364  0.58383799  0.43581558  1
  O  O306  1  0.55708878  0.58317153  0.68808800  1
  O  O307  1  0.55857101  0.58307348  0.93772124  1
  O  O308  1  0.55734232  0.91632677  0.18629204  1
  O  O309  1  0.55840279  0.91610831  0.43793919  1
  O  O310  1  0.55578736  0.91652026  0.68615399  1
  O  O311  1  0.55780056  0.91653414  0.93760957  1
  O  O312  1  0.44466348  0.08373225  0.06353228  1
  O  O313  1  0.44407663  0.08359461  0.31413241  1
  O  O314  1  0.44126703  0.08329336  0.56223231  1
  O  O315  1  0.44309897  0.08346734  0.81330254  1
  O  O316  1  0.44404176  0.41646019  0.06336716  1
  O  O317  1  0.44208337  0.41618943  0.31184641  1
  O  O318  1  0.44429417  0.41597084  0.56421241  1
  O  O319  1  0.44165517  0.41608549  0.81248257  1
  O  O320  1  0.44200357  0.74984033  0.06218408  1
  O  O321  1  0.44257930  0.75052014  0.31147560  1
  O  O322  1  0.44361203  0.75060153  0.56358837  1
  O  O323  1  0.44104524  0.75010790  0.81269534  1
  O  O324  1  0.94293242  0.08283287  0.06352334  1
  O  O325  1  0.94365164  0.08231954  0.31302744  1
  O  O326  1  0.94390960  0.08302041  0.56282825  1
  O  O327  1  0.94473175  0.08256330  0.81301815  1
  O  O328  1  0.94105687  0.41770699  0.06179567  1
  O  O329  1  0.94249533  0.41707350  0.31274412  1
  O  O330  1  0.94376517  0.41728812  0.56346277  1
  O  O331  1  0.94255563  0.41710068  0.81369029  1
  O  O332  1  0.94218752  0.74985149  0.06378841  1
  O  O333  1  0.93992882  0.74984900  0.31239325  1
  O  O334  1  0.94078021  0.75041556  0.56209050  1
  O  O335  1  0.94366718  0.74986034  0.81315903  1
  O  O336  1  0.19312611  0.08324626  0.06098531  1
  O  O337  1  0.19077674  0.08341941  0.31328358  1
  O  O338  1  0.19116237  0.08402603  0.56244056  1
  O  O339  1  0.18940584  0.08379857  0.81280135  1
  O  O340  1  0.19021976  0.41750084  0.06239212  1
  O  O341  1  0.19368186  0.41754624  0.31126402  1
  O  O342  1  0.19092688  0.41666533  0.56259152  1
  O  O343  1  0.19097803  0.41662026  0.81229023  1
  O  O344  1  0.19449687  0.74876856  0.06169927  1
  O  O345  1  0.19414255  0.74964092  0.31184479  1
  O  O346  1  0.19456535  0.74947340  0.56130420  1
  O  O347  1  0.19517116  0.74967756  0.81169473  1
  O  O348  1  0.69163028  0.08285310  0.06269173  1
  O  O349  1  0.69118462  0.08312848  0.31235852  1
  O  O350  1  0.69333987  0.08275782  0.56147406  1
  O  O351  1  0.69424428  0.08306901  0.81141384  1
  O  O352  1  0.69170095  0.41721309  0.06286763  1
  O  O353  1  0.69339135  0.41728721  0.31139106  1
  O  O354  1  0.69069021  0.41727305  0.56311698  1
  O  O355  1  0.69380370  0.41712884  0.81104298  1
  O  O356  1  0.69023417  0.74977668  0.06266794  1
  O  O357  1  0.69124118  0.74964109  0.31211410  1
  O  O358  1  0.69239509  0.75034220  0.56108439  1
  O  O359  1  0.69003287  0.74992616  0.81309207  1
  O  O360  1  0.30687852  0.25029378  0.18832951  1
  O  O361  1  0.30674014  0.24947647  0.43862352  1
  O  O362  1  0.30644756  0.25043321  0.68859264  1
  O  O363  1  0.30648315  0.25016607  0.93878318  1
  O  O364  1  0.31013560  0.58286757  0.18697961  1
  O  O365  1  0.31040143  0.58333630  0.43746927  1
  O  O366  1  0.31000867  0.58242345  0.68743658  1
  O  O367  1  0.30941679  0.58299905  0.93772610  1
  O  O368  1  0.30673698  0.91673157  0.18815943  1
  O  O369  1  0.30685087  0.91759742  0.43867675  1
  O  O370  1  0.30844288  0.91689109  0.68772362  1
  O  O371  1  0.30913268  0.91697165  0.93722882  1
  O  O372  1  0.80558636  0.25003248  0.18872888  1
  O  O373  1  0.80904345  0.24956581  0.43761277  1
  O  O374  1  0.80921615  0.24994603  0.68740135  1
  O  O375  1  0.80880460  0.25019839  0.93684284  1
  O  O376  1  0.80777464  0.58326384  0.18739190  1
  O  O377  1  0.80798351  0.58338231  0.43720440  1
  O  O378  1  0.80531157  0.58361527  0.68857774  1
  O  O379  1  0.80595448  0.58325741  0.93874714  1
  O  O380  1  0.80644070  0.91642665  0.18874393  1
  O  O381  1  0.80807838  0.91694359  0.43712614  1
  O  O382  1  0.80713300  0.91671383  0.68909371  1
  O  O383  1  0.80839167  0.91659476  0.93720650  1
  O  O384  1  0.23318998  0.25022847  0.04025933  1
  O  O385  1  0.23394264  0.25076026  0.29042959  1
  O  O386  1  0.23351991  0.24921727  0.54040338  1
  O  O387  1  0.23313943  0.25085054  0.79014827  1
  O  O388  1  0.23469359  0.58333300  0.03835399  1
  O  O389  1  0.23625943  0.58334096  0.28834600  1
  O  O390  1  0.23612546  0.58348137  0.53834586  1
  O  O391  1  0.23639423  0.58330650  0.78866303  1
  O  O392  1  0.23503311  0.91587744  0.03816678  1
  O  O393  1  0.23281602  0.91647997  0.28957691  1
  O  O394  1  0.23295037  0.91708885  0.53977691  1
  O  O395  1  0.23380509  0.91655912  0.78828961  1
  O  O396  1  0.73324098  0.25012979  0.03689920  1
  O  O397  1  0.73173813  0.25081747  0.28973409  1
  O  O398  1  0.73358206  0.24929728  0.53735839  1
  O  O399  1  0.73373176  0.25076319  0.78746110  1
  O  O400  1  0.73196963  0.58372116  0.03959876  1
  O  O401  1  0.73278082  0.58332011  0.28781861  1
  O  O402  1  0.73379498  0.58486558  0.53802445  1
  O  O403  1  0.73083051  0.58268315  0.78949963  1
  O  O404  1  0.73236975  0.91569667  0.03712245  1
  O  O405  1  0.73406218  0.91592845  0.29037767  1
  O  O406  1  0.73257082  0.91633195  0.53751522  1
  O  O407  1  0.73384417  0.91655301  0.79050540  1
  O  O408  1  0.26534278  0.08270602  0.21224483  1
  O  O409  1  0.26602504  0.08296378  0.46178554  1
  O  O410  1  0.26394987  0.08306090  0.71237013  1
  O  O411  1  0.26565159  0.08311792  0.95893752  1
  O  O412  1  0.26776636  0.41738109  0.21013175  1
  O  O413  1  0.26587605  0.41679301  0.46236641  1
  O  O414  1  0.26672029  0.41715575  0.71226552  1
  O  O415  1  0.26459029  0.41752928  0.96187035  1
  O  O416  1  0.26875935  0.74963660  0.21095958  1
  O  O417  1  0.26710037  0.75094514  0.45939236  1
  O  O418  1  0.26901975  0.74996396  0.71053516  1
  O  O419  1  0.26877409  0.74922408  0.96071140  1
  O  O420  1  0.76473278  0.08291419  0.21088814  1
  O  O421  1  0.76549527  0.08320672  0.45918683  1
  O  O422  1  0.76674148  0.08342310  0.70909349  1
  O  O423  1  0.76509221  0.08382940  0.96109790  1
  O  O424  1  0.76523932  0.41662393  0.20893327  1
  O  O425  1  0.76476875  0.41658692  0.46201790  1
  O  O426  1  0.76526145  0.41710009  0.70813374  1
  O  O427  1  0.76642495  0.41703539  0.96194893  1
  O  O428  1  0.76591942  0.74993797  0.21159533  1
  O  O429  1  0.76630853  0.74988769  0.45995988  1
  O  O430  1  0.76439485  0.75033979  0.71200634  1
  O  O431  1  0.76352587  0.74905052  0.96131331  1
  O  O432  1  0.01593230  0.08273518  0.16517615  1
  O  O433  1  0.01744365  0.08319898  0.41448902  1
  O  O434  1  0.01813805  0.08344207  0.66370841  1
  O  O435  1  0.01759561  0.08328849  0.91506567  1
  O  O436  1  0.01630976  0.41784708  0.16235892  1
  O  O437  1  0.01514539  0.41703080  0.41479317  1
  O  O438  1  0.01778603  0.41590791  0.66484700  1
  O  O439  1  0.01638235  0.41713259  0.91458284  1
  O  O440  1  0.01503426  0.74901899  0.16574036  1
  O  O441  1  0.01404740  0.75042283  0.41334331  1
  O  O442  1  0.01571197  0.74970092  0.66258200  1
  O  O443  1  0.01644751  0.75077394  0.91524968  1
  O  O444  1  0.51934596  0.08370903  0.16398952  1
  O  O445  1  0.51780292  0.08289806  0.41520385  1
  O  O446  1  0.51518978  0.08284472  0.66346269  1
  O  O447  1  0.51658743  0.08317175  0.91458687  1
  O  O448  1  0.51811711  0.41703879  0.16424181  1
  O  O449  1  0.51579207  0.41714239  0.41312942  1
  O  O450  1  0.51737588  0.41656557  0.66592902  1
  O  O451  1  0.51589583  0.41730085  0.91326694  1
  O  O452  1  0.51707451  0.74979034  0.16221390  1
  O  O453  1  0.51732628  0.74924745  0.41238331  1
  O  O454  1  0.51511622  0.75001657  0.66625319  1
  O  O455  1  0.51560433  0.74964971  0.91329449  1
  O  O456  1  0.48614228  0.25058116  0.08562382  1
  O  O457  1  0.48575722  0.24988787  0.33645476  1
  O  O458  1  0.48553366  0.25031641  0.58656299  1
  O  O459  1  0.48562656  0.24968424  0.83641997  1
  O  O460  1  0.48398255  0.58322978  0.08678945  1
  O  O461  1  0.48338694  0.58386009  0.33409027  1
  O  O462  1  0.48246564  0.58324239  0.58733351  1
  O  O463  1  0.48347140  0.58363948  0.83773845  1
  O  O464  1  0.48492114  0.91629740  0.08431795  1
  O  O465  1  0.48515428  0.91705591  0.33607707  1
  O  O466  1  0.48204044  0.91608403  0.58496195  1
  O  O467  1  0.48237196  0.91583321  0.83744557  1
  O  O468  1  0.98324850  0.25098445  0.08505912  1
  O  O469  1  0.98135569  0.24969853  0.33508228  1
  O  O470  1  0.98217081  0.25041921  0.58502053  1
  O  O471  1  0.98175309  0.24985916  0.83564872  1
  O  O472  1  0.98265861  0.58374455  0.08508057  1
  O  O473  1  0.98116512  0.58334697  0.33609399  1
  O  O474  1  0.98395288  0.58322618  0.58521508  1
  O  O475  1  0.98475699  0.58276885  0.83678446  1
  O  O476  1  0.98461814  0.91615586  0.08745356  1
  O  O477  1  0.98367482  0.91604528  0.33770880  1
  O  O478  1  0.98589035  0.91700472  0.58637340  1
  O  O479  1  0.98320840  0.91643639  0.83436892  1
  O  O480  1  0.08695215  0.31638309  0.07805905  1
  O  O481  1  0.08524863  0.31465548  0.32711025  1
  O  O482  1  0.08615523  0.31537964  0.57747284  1
  O  O483  1  0.08519247  0.31587827  0.82769951  1
  O  O484  1  0.08711789  0.64794603  0.07651117  1
  O  O485  1  0.08480346  0.64876485  0.32637128  1
  O  O486  1  0.08801774  0.64735220  0.57702689  1
  O  O487  1  0.08824871  0.64796681  0.82755388  1
  O  O488  1  0.08858826  0.98040447  0.07858022  1
  O  O489  1  0.08714428  0.98224734  0.32797380  1
  O  O490  1  0.08962045  0.98220997  0.57806533  1
  O  O491  1  0.08708383  0.98212573  0.82751833  1
  O  O492  1  0.58978278  0.31579699  0.07776923  1
  O  O493  1  0.58995010  0.31351979  0.32757952  1
  O  O494  1  0.58882578  0.31638509  0.57819902  1
  O  O495  1  0.58916136  0.31519711  0.82704922  1
  O  O496  1  0.58777124  0.64809365  0.07749539  1
  O  O497  1  0.58736942  0.64925148  0.32649833  1
  O  O498  1  0.58617619  0.64747536  0.57789587  1
  O  O499  1  0.58674998  0.64950064  0.82783014  1
  O  O500  1  0.58883496  0.98148479  0.07710964  1
  O  O501  1  0.58904176  0.98153748  0.32885591  1
  O  O502  1  0.58627510  0.98109480  0.57664126  1
  O  O503  1  0.58596069  0.98048600  0.82707218  1
  O  O504  1  0.41569993  0.01853314  0.17321757  1
  O  O505  1  0.41326440  0.01865463  0.42338132  1
  O  O506  1  0.41177037  0.01718026  0.67148416  1
  O  O507  1  0.41304068  0.01759898  0.92241506  1
  O  O508  1  0.41410371  0.35234382  0.17338073  1
  O  O509  1  0.41224902  0.35258143  0.42224436  1
  O  O510  1  0.41315863  0.35203779  0.67390507  1
  O  O511  1  0.41254327  0.35214061  0.92276472  1
  O  O512  1  0.41344628  0.68410362  0.17192397  1
  O  O513  1  0.41361008  0.68420497  0.42082145  1
  O  O514  1  0.41105461  0.68546717  0.67251749  1
  O  O515  1  0.41203442  0.68456477  0.92258110  1
  O  O516  1  0.91204087  0.01803968  0.17278655  1
  O  O517  1  0.91406085  0.01740829  0.42284514  1
  O  O518  1  0.91425022  0.01906736  0.67262174  1
  O  O519  1  0.91419464  0.01720385  0.92228130  1
  O  O520  1  0.91241869  0.35340700  0.17193850  1
  O  O521  1  0.91158265  0.35143996  0.42165229  1
  O  O522  1  0.91360010  0.35108595  0.67211978  1
  O  O523  1  0.91268054  0.35096123  0.92288230  1
  O  O524  1  0.91107936  0.68343833  0.17232917  1
  O  O525  1  0.91029198  0.68508695  0.42216463  1
  O  O526  1  0.91189351  0.68515244  0.67211484  1
  O  O527  1  0.91247224  0.68606831  0.92252778  1
  O  O528  1  0.16193476  0.01707468  0.20394139  1
  O  O529  1  0.16238118  0.01725703  0.45309091  1
  O  O530  1  0.16062927  0.01734137  0.70335372  1
  O  O531  1  0.16163645  0.01810832  0.95190983  1
  O  O532  1  0.16340933  0.35255175  0.20197346  1
  O  O533  1  0.16237105  0.35165170  0.45261563  1
  O  O534  1  0.16285035  0.35206494  0.70201158  1
  O  O535  1  0.16030080  0.35378021  0.95200243  1
  O  O536  1  0.16476796  0.68536448  0.20215832  1
  O  O537  1  0.16351053  0.68571945  0.45151714  1
  O  O538  1  0.16524346  0.68533092  0.70191639  1
  O  O539  1  0.16538030  0.68319153  0.95212535  1
  O  O540  1  0.66040066  0.01951546  0.20242942  1
  O  O541  1  0.66160418  0.01793056  0.45232109  1
  O  O542  1  0.66269913  0.01888929  0.70232457  1
  O  O543  1  0.66197412  0.01781185  0.95285939  1
  O  O544  1  0.66114502  0.35201153  0.20253497  1
  O  O545  1  0.66147019  0.35096123  0.45384891  1
  O  O546  1  0.66145682  0.35182411  0.70231903  1
  O  O547  1  0.66284361  0.35213876  0.95284809  1
  O  O548  1  0.66235813  0.68398075  0.20225791  1
  O  O549  1  0.66186573  0.68615124  0.45131793  1
  O  O550  1  0.66147014  0.68385857  0.70338647  1
  O  O551  1  0.65945306  0.68454428  0.95332359  1
  O  O552  1  0.33708564  0.31504646  0.04798910  1
  O  O553  1  0.33752646  0.31648461  0.29702486  1
  O  O554  1  0.33757528  0.31349143  0.54808414  1
  O  O555  1  0.33688562  0.31628726  0.79763468  1
  O  O556  1  0.33852533  0.64893171  0.04738461  1
  O  O557  1  0.34023780  0.64806168  0.29654755  1
  O  O558  1  0.33993849  0.64845907  0.54704964  1
  O  O559  1  0.34043476  0.64771152  0.79695060  1
  O  O560  1  0.33833986  0.98106145  0.04758571  1
  O  O561  1  0.33676823  0.98101021  0.29781130  1
  O  O562  1  0.33637097  0.98339847  0.54824549  1
  O  O563  1  0.33779024  0.98096034  0.79803083  1
  O  O564  1  0.83623355  0.31623749  0.04691409  1
  O  O565  1  0.83600372  0.31510697  0.29806448  1
  O  O566  1  0.83714936  0.31450030  0.54804379  1
  O  O567  1  0.83758670  0.31529050  0.79739539  1
  O  O568  1  0.83644770  0.64745567  0.04837333  1
  O  O569  1  0.83630461  0.64918994  0.29716486  1
  O  O570  1  0.83741763  0.64990438  0.54642303  1
  O  O571  1  0.83433855  0.64836648  0.79850940  1
  O  O572  1  0.83560101  0.98139788  0.04754374  1
  O  O573  1  0.83815205  0.98045294  0.29845988  1
  O  O574  1  0.83649835  0.98061225  0.54741764  1
  O  O575  1  0.83789503  0.98159485  0.79846390  1
  O  O576  1  0.41549461  0.14863581  0.17322770  1
  O  O577  1  0.41404185  0.14854711  0.42377871  1
  O  O578  1  0.41156094  0.14741505  0.67235143  1
  O  O579  1  0.41297649  0.14788907  0.92299898  1
  O  O580  1  0.41405050  0.48226363  0.17250047  1
  O  O581  1  0.41255812  0.48285273  0.42083911  1
  O  O582  1  0.41339351  0.48192504  0.67321121  1
  O  O583  1  0.41228740  0.48230472  0.92186265  1
  O  O584  1  0.41312166  0.81410101  0.17268098  1
  O  O585  1  0.41381207  0.81427722  0.42183088  1
  O  O586  1  0.41139723  0.81563621  0.67253838  1
  O  O587  1  0.41184815  0.81470591  0.92283793  1
  O  O588  1  0.91229518  0.14822664  0.17258004  1
  O  O589  1  0.91316239  0.14765686  0.42194002  1
  O  O590  1  0.91452477  0.14920667  0.67202240  1
  O  O591  1  0.91320431  0.14751025  0.92199403  1
  O  O592  1  0.91280022  0.48346951  0.17146398  1
  O  O593  1  0.91120362  0.48182714  0.42201986  1
  O  O594  1  0.91422529  0.48117314  0.67346505  1
  O  O595  1  0.91185064  0.48103105  0.92347341  1
  O  O596  1  0.91079307  0.81345956  0.17346446  1
  O  O597  1  0.91025993  0.81530584  0.42222147  1
  O  O598  1  0.91235716  0.81527821  0.67197346  1
  O  O599  1  0.91270631  0.81628217  0.92191395  1
  O  O600  1  0.08692148  0.18607931  0.07764854  1
  O  O601  1  0.08543185  0.18447075  0.32767819  1
  O  O602  1  0.08596574  0.18522973  0.57741212  1
  O  O603  1  0.08604708  0.18568827  0.82808420  1
  O  O604  1  0.08668875  0.51808863  0.07694078  1
  O  O605  1  0.08527942  0.51878131  0.32693336  1
  O  O606  1  0.08727241  0.51702773  0.57781578  1
  O  O607  1  0.08856704  0.51771868  0.82907456  1
  O  O608  1  0.08773048  0.85027987  0.07790913  1
  O  O609  1  0.08786480  0.85218767  0.32708953  1
  O  O610  1  0.08960528  0.85207692  0.57664447  1
  O  O611  1  0.08763327  0.85209848  0.82634509  1
  O  O612  1  0.58998584  0.18556145  0.07779210  1
  O  O613  1  0.58887766  0.18340503  0.32844913  1
  O  O614  1  0.58966315  0.18629109  0.57743883  1
  O  O615  1  0.58963355  0.18528210  0.82696609  1
  O  O616  1  0.58765491  0.51800736  0.07727582  1
  O  O617  1  0.58754334  0.51940303  0.32638835  1
  O  O618  1  0.58580863  0.51740518  0.57828015  1
  O  O619  1  0.58752746  0.51957427  0.82717085  1
  O  O620  1  0.58876047  0.85129278  0.07713288  1
  O  O621  1  0.58830565  0.85127488  0.32807647  1
  O  O622  1  0.58620803  0.85127804  0.57682740  1
  O  O623  1  0.58577905  0.85043458  0.82794800  1
  O  O624  1  0.33689272  0.18492748  0.04809916  1
  O  O625  1  0.33783275  0.18606989  0.29766652  1
  O  O626  1  0.33700263  0.18331583  0.54754394  1
  O  O627  1  0.33689798  0.18599931  0.79793408  1
  O  O628  1  0.33880420  0.51908743  0.04803436  1
  O  O629  1  0.33984038  0.51783160  0.29672014  1
  O  O630  1  0.33981918  0.51849422  0.54765446  1
  O  O631  1  0.33965935  0.51749977  0.79751867  1
  O  O632  1  0.33874930  0.85082192  0.04645006  1
  O  O633  1  0.33659470  0.85088839  0.29732022  1
  O  O634  1  0.33754367  0.85343978  0.54808786  1
  O  O635  1  0.33754427  0.85094876  0.79738542  1
  O  O636  1  0.83704042  0.18602014  0.04719669  1
  O  O637  1  0.83543602  0.18516230  0.29847964  1
  O  O638  1  0.83748133  0.18451759  0.54770966  1
  O  O639  1  0.83725853  0.18525230  0.79783384  1
  O  O640  1  0.83561139  0.51754183  0.04823577  1
  O  O641  1  0.83682459  0.51917571  0.29767746  1
  O  O642  1  0.83704476  0.51960016  0.54762244  1
  O  O643  1  0.83501249  0.51836830  0.79777006  1
  O  O644  1  0.83610737  0.85124581  0.04715436  1
  O  O645  1  0.83784159  0.85044638  0.29756563  1
  O  O646  1  0.83586943  0.85046853  0.54682056  1
  O  O647  1  0.83784489  0.85168453  0.79856577  1
  O  O648  1  0.16175744  0.14751116  0.20328802  1
  O  O649  1  0.16191330  0.14727227  0.45187751  1
  O  O650  1  0.16013214  0.14754235  0.70232386  1
  O  O651  1  0.16155019  0.14810985  0.95183391  1
  O  O652  1  0.16376858  0.48251993  0.20168227  1
  O  O653  1  0.16245850  0.48184410  0.45241432  1
  O  O654  1  0.16300261  0.48201130  0.70218252  1
  O  O655  1  0.16148448  0.48385939  0.95284031  1
  O  O656  1  0.16514938  0.81551759  0.20247900  1
  O  O657  1  0.16312410  0.81589804  0.45288336  1
  O  O658  1  0.16510863  0.81535505  0.70261663  1
  O  O659  1  0.16466554  0.81325724  0.95205273  1
  O  O660  1  0.66181411  0.14972494  0.20308452  1
  O  O661  1  0.66142718  0.14800410  0.45264170  1
  O  O662  1  0.66314843  0.14909060  0.70271264  1
  O  O663  1  0.66130224  0.14819721  0.95337445  1
  O  O664  1  0.66148011  0.48209224  0.20221767  1
  O  O665  1  0.66119387  0.48122327  0.45300276  1
  O  O666  1  0.66097363  0.48193993  0.70221323  1
  O  O667  1  0.66282071  0.48229021  0.95314681  1
  O  O668  1  0.66177954  0.81393947  0.20204197  1
  O  O669  1  0.66277159  0.81606654  0.45160162  1
  O  O670  1  0.66051751  0.81415104  0.70312361  1
  O  O671  1  0.65998470  0.81466555  0.95263524  1
