# generated using pymatgen
data_Na2MnFe(PO4)2
_symmetry_space_group_name_H-M   'P 1'
_cell_length_a   21.08642264
_cell_length_b   18.93904850
_cell_length_c   20.04554410
_cell_angle_alpha   89.99972500
_cell_angle_beta   89.99783269
_cell_angle_gamma   90.00182077
_symmetry_Int_Tables_number   1
_chemical_formula_structural   Na2MnFe(PO4)2
_chemical_formula_sum   'Na96 Mn48 Fe48 P96 O384'
_cell_volume   8005.32395202
_cell_formula_units_Z   48
loop_
 _symmetry_equiv_pos_site_id
 _symmetry_equiv_pos_as_xyz
  1  'x, y, z'
loop_
 _atom_site_type_symbol
 _atom_site_label
 _atom_site_symmetry_multiplicity
 _atom_site_fract_x
 _atom_site_fract_y
 _atom_site_fract_z
 _atom_site_occupancy
  Na  Na0  1  -0.00188851  -0.00048648  -0.00050881  1
  Na  Na1  1  0.00075948  -0.00001967  0.24917815  1
  Na  Na2  1  0.00025358  -0.00053112  0.50021265  1
  Na  Na3  1  -0.00188790  -0.00085378  0.75167806  1
  Na  Na4  1  -0.00233961  0.33306683  -0.00014139  1
  Na  Na5  1  -0.00077222  0.33340109  0.24889140  1
  Na  Na6  1  -0.00013004  0.33277308  0.50045845  1
  Na  Na7  1  -0.00043535  0.33374593  0.75011756  1
  Na  Na8  1  -0.00194343  0.66611399  -0.00044423  1
  Na  Na9  1  -0.00044667  0.66672329  0.24983215  1
  Na  Na10  1  0.00192596  0.66801660  0.49957433  1
  Na  Na11  1  -0.00026211  0.66685055  0.75032626  1
  Na  Na12  1  0.49967058  -0.00023904  0.00025576  1
  Na  Na13  1  0.49846557  -0.00008875  0.24954356  1
  Na  Na14  1  0.49878376  -0.00017815  0.49981879  1
  Na  Na15  1  0.50079268  0.00043892  0.74958471  1
  Na  Na16  1  0.50154117  0.33386814  -0.00030308  1
  Na  Na17  1  0.49875240  0.33309552  0.24900247  1
  Na  Na18  1  0.49981112  0.33284977  0.50098215  1
  Na  Na19  1  0.50383003  0.33423661  0.75119002  1
  Na  Na20  1  0.50082132  0.66706297  -0.00075673  1
  Na  Na21  1  0.49872083  0.66618197  0.25070885  1
  Na  Na22  1  0.49983832  0.66615822  0.50103402  1
  Na  Na23  1  0.50059985  0.66640131  0.74968329  1
  Na  Na24  1  0.24860270  -0.00087746  0.12521284  1
  Na  Na25  1  0.24922931  0.00036168  0.37472634  1
  Na  Na26  1  0.24892861  -0.00054755  0.62508108  1
  Na  Na27  1  0.25165158  0.00031630  0.87482931  1
  Na  Na28  1  0.25029843  0.33416038  0.12476844  1
  Na  Na29  1  0.24826113  0.33272146  0.37531102  1
  Na  Na30  1  0.24894891  0.33320936  0.62476851  1
  Na  Na31  1  0.24871065  0.33328126  0.87492520  1
  Na  Na32  1  0.24876118  0.66614930  0.12481486  1
  Na  Na33  1  0.24871140  0.66681969  0.37585638  1
  Na  Na34  1  0.24899760  0.66685847  0.62503403  1
  Na  Na35  1  0.24973795  0.66670102  0.87492344  1
  Na  Na36  1  0.75235638  0.00055448  0.12584619  1
  Na  Na37  1  0.75128967  -0.00061539  0.37553715  1
  Na  Na38  1  0.75140001  0.00020054  0.62461189  1
  Na  Na39  1  0.75132841  0.00055434  0.87391777  1
  Na  Na40  1  0.75203786  0.33340291  0.12485627  1
  Na  Na41  1  0.75233099  0.33396341  0.37581299  1
  Na  Na42  1  0.74970530  0.33350040  0.62459759  1
  Na  Na43  1  0.74936693  0.33286435  0.87501447  1
  Na  Na44  1  0.75303400  0.66746408  0.12425347  1
  Na  Na45  1  0.75175140  0.66709627  0.37406997  1
  Na  Na46  1  0.74984594  0.66677029  0.62595604  1
  Na  Na47  1  0.75109478  0.66705908  0.87508212  1
  Na  Na48  1  -0.00312644  0.16790563  -0.00026614  1
  Na  Na49  1  0.00049355  0.16649886  0.24853548  1
  Na  Na50  1  0.00106995  0.16644556  0.50094996  1
  Na  Na51  1  -0.00162374  0.16733858  0.75047550  1
  Na  Na52  1  -0.00231257  0.49991150  -0.00054777  1
  Na  Na53  1  -0.00112155  0.50049999  0.24959207  1
  Na  Na54  1  0.00216914  0.49876207  0.49967350  1
  Na  Na55  1  -0.00167594  0.50066226  0.75088323  1
  Na  Na56  1  0.00028436  0.83256531  -0.00015198  1
  Na  Na57  1  -0.00108999  0.83403510  0.24962127  1
  Na  Na58  1  0.00045059  0.83288816  0.49966300  1
  Na  Na59  1  -0.00043591  0.83327527  0.75064942  1
  Na  Na60  1  0.50151702  0.16624554  -0.00026471  1
  Na  Na61  1  0.49878738  0.16652320  0.24915790  1
  Na  Na62  1  0.49850445  0.16716921  0.50101273  1
  Na  Na63  1  0.50333782  0.16596286  0.75027344  1
  Na  Na64  1  0.50037908  0.50010539  0.00020824  1
  Na  Na65  1  0.49855869  0.50067339  0.25004427  1
  Na  Na66  1  0.50201989  0.49984529  0.50055480  1
  Na  Na67  1  0.50251389  0.50002562  0.74989319  1
  Na  Na68  1  0.50038141  0.83264953  -0.00063280  1
  Na  Na69  1  0.49864443  0.83373978  0.25007296  1
  Na  Na70  1  0.49851378  0.83350076  0.50041310  1
  Na  Na71  1  0.49883245  0.83357234  0.75001592  1
  Na  Na72  1  0.25058916  0.16634836  0.12536948  1
  Na  Na73  1  0.24951703  0.16664639  0.37524738  1
  Na  Na74  1  0.24961401  0.16681777  0.62441085  1
  Na  Na75  1  0.25034391  0.16677804  0.87529417  1
  Na  Na76  1  0.24940472  0.49994008  0.12506867  1
  Na  Na77  1  0.24934464  0.49982713  0.37480077  1
  Na  Na78  1  0.24789753  0.50088981  0.62557513  1
  Na  Na79  1  0.25050716  0.49970306  0.87448689  1
  Na  Na80  1  0.24841160  0.83334442  0.12424676  1
  Na  Na81  1  0.24669364  0.83431519  0.37600972  1
  Na  Na82  1  0.24920888  0.83307173  0.62491184  1
  Na  Na83  1  0.24865177  0.83335945  0.87508423  1
  Na  Na84  1  0.75029164  0.16719680  0.12519912  1
  Na  Na85  1  0.75162525  0.16619712  0.37535570  1
  Na  Na86  1  0.74887827  0.16716335  0.62432855  1
  Na  Na87  1  0.74947443  0.16674424  0.87472998  1
  Na  Na88  1  0.75319028  0.49937749  0.12440846  1
  Na  Na89  1  0.74981554  0.50058882  0.37486384  1
  Na  Na90  1  0.74882278  0.50050394  0.62577990  1
  Na  Na91  1  0.75136282  0.49934477  0.87523626  1
  Na  Na92  1  0.75330000  0.83278258  0.12553256  1
  Na  Na93  1  0.75378082  0.83275122  0.37512237  1
  Na  Na94  1  0.75285051  0.83215046  0.62507983  1
  Na  Na95  1  0.75114172  0.83338745  0.87409944  1
  Mn  Mn96  1  0.60858060  0.41696903  0.12309792  1
  Mn  Mn97  1  0.60783725  0.75049621  0.37305363  1
  Mn  Mn98  1  0.10716943  0.08401734  0.87304599  1
  Mn  Mn99  1  0.10703656  0.08367974  0.12150246  1
  Mn  Mn100  1  0.14234423  0.91726543  0.74803939  1
  Mn  Mn101  1  0.89225396  0.58380854  0.62709935  1
  Mn  Mn102  1  0.10734405  0.41732645  0.62335071  1
  Mn  Mn103  1  0.14187131  0.24998112  0.49724215  1
  Mn  Mn104  1  0.35717396  0.41645759  0.25256881  1
  Mn  Mn105  1  0.35689363  0.75027221  0.25251768  1
  Mn  Mn106  1  0.64279587  0.91656018  0.74755423  1
  Mn  Mn107  1  0.64221377  0.25025099  0.49660227  1
  Mn  Mn108  1  0.39175953  0.91667141  0.62708502  1
  Mn  Mn109  1  0.85895969  0.08288217  0.50239092  1
  Mn  Mn110  1  0.39150602  0.58369903  0.12634726  1
  Mn  Mn111  1  0.60737846  0.41616725  0.37226895  1
  Mn  Mn112  1  0.14181207  0.58303208  0.74839637  1
  Mn  Mn113  1  0.39296614  0.25048159  0.62800272  1
  Mn  Mn114  1  0.35726432  0.74963189  0.00159787  1
  Mn  Mn115  1  0.85882304  0.08352224  0.25318361  1
  Mn  Mn116  1  0.39219489  0.25021302  0.12634135  1
  Mn  Mn117  1  0.39123449  0.91611542  0.12689634  1
  Mn  Mn118  1  0.64307013  0.91689109  0.99788241  1
  Mn  Mn119  1  0.39269129  0.58277746  0.62715820  1
  Mn  Mn120  1  0.64354911  0.58349898  0.99779045  1
  Mn  Mn121  1  0.35623627  0.75034190  0.50205932  1
  Mn  Mn122  1  0.35658835  0.08313199  0.25238541  1
  Mn  Mn123  1  0.60660600  0.08313057  0.37316430  1
  Mn  Mn124  1  0.89278584  0.58316925  0.37820600  1
  Mn  Mn125  1  0.60843291  0.75039951  0.62268142  1
  Mn  Mn126  1  0.89200331  0.91664409  0.87800146  1
  Mn  Mn127  1  0.35734585  0.41662875  0.50247889  1
  Mn  Mn128  1  0.60879126  0.75017865  0.12325175  1
  Mn  Mn129  1  0.35845425  0.41688860  0.75261209  1
  Mn  Mn130  1  0.10740414  0.08259191  0.62353563  1
  Mn  Mn131  1  0.64261905  0.25021170  0.24861116  1
  Mn  Mn132  1  0.64284662  0.58350144  0.24787025  1
  Mn  Mn133  1  0.89193509  0.24936958  0.62792071  1
  Mn  Mn134  1  0.14163060  0.25008644  0.99738397  1
  Mn  Mn135  1  0.64307638  0.91558887  0.49738505  1
  Mn  Mn136  1  0.64283461  0.91636508  0.24854689  1
  Mn  Mn137  1  0.35852231  0.08335110  0.75244030  1
  Mn  Mn138  1  0.14173293  0.58312424  0.24758130  1
  Mn  Mn139  1  0.85811441  0.41775909  0.50225304  1
  Mn  Mn140  1  0.10651071  0.41691088  0.12211435  1
  Mn  Mn141  1  0.60820376  0.08293125  0.12283308  1
  Mn  Mn142  1  0.10663508  0.74950257  0.12253361  1
  Mn  Mn143  1  0.39349558  0.25034220  0.87707918  1
  Fe  Fe144  1  0.60860189  0.41733946  0.87375388  1
  Fe  Fe145  1  0.89180316  0.24985814  0.12732723  1
  Fe  Fe146  1  0.14160505  0.58312740  0.99740415  1
  Fe  Fe147  1  0.89303832  0.91654960  0.12683754  1
  Fe  Fe148  1  0.39221086  0.58329118  0.37760033  1
  Fe  Fe149  1  0.35716131  0.74975615  0.75205221  1
  Fe  Fe150  1  0.64302642  0.58422609  0.49799706  1
  Fe  Fe151  1  0.39313930  0.91615368  0.87669495  1
  Fe  Fe152  1  0.14194546  0.24987751  0.74933728  1
  Fe  Fe153  1  0.14192213  0.24977441  0.24814853  1
  Fe  Fe154  1  0.85675897  0.41657952  0.75195715  1
  Fe  Fe155  1  0.39121107  0.25003446  0.37659024  1
  Fe  Fe156  1  0.10657978  0.74913698  0.87332712  1
  Fe  Fe157  1  0.85804004  0.41689316  0.25241241  1
  Fe  Fe158  1  0.10703232  0.41613676  0.37266166  1
  Fe  Fe159  1  0.85836736  0.74959469  0.25229129  1
  Fe  Fe160  1  0.64344825  0.58327172  0.74938559  1
  Fe  Fe161  1  0.85793278  0.74947907  0.75205082  1
  Fe  Fe162  1  0.85663290  0.08387859  0.75175679  1
  Fe  Fe163  1  0.10627663  0.41673724  0.87364571  1
  Fe  Fe164  1  0.35729592  0.41661189  0.00054765  1
  Fe  Fe165  1  0.85857240  0.74940145  0.50194267  1
  Fe  Fe166  1  0.60814495  0.08259781  0.87343453  1
  Fe  Fe167  1  0.85677207  0.08340496  0.00158416  1
  Fe  Fe168  1  0.60856919  0.41648548  0.62321472  1
  Fe  Fe169  1  0.89411757  0.24943486  0.37621855  1
  Fe  Fe170  1  0.14207823  0.58354771  0.49793360  1
  Fe  Fe171  1  0.14172643  0.91707742  0.24810419  1
  Fe  Fe172  1  0.10704486  0.75025514  0.62411509  1
  Fe  Fe173  1  0.39093233  0.91653402  0.37694223  1
  Fe  Fe174  1  0.64368104  0.25018893  0.74869366  1
  Fe  Fe175  1  0.60794579  0.08305794  0.62258973  1
  Fe  Fe176  1  0.14165704  0.91687467  0.49794559  1
  Fe  Fe177  1  0.89425241  0.91740285  0.37684866  1
  Fe  Fe178  1  0.89152609  0.25065009  0.87635050  1
  Fe  Fe179  1  0.60792370  0.75005999  0.87314096  1
  Fe  Fe180  1  0.85726330  0.41622628  0.00127588  1
  Fe  Fe181  1  0.39350572  0.58341212  0.87644442  1
  Fe  Fe182  1  0.89331519  0.91640983  0.62637411  1
  Fe  Fe183  1  0.14223676  0.91646515  0.99799692  1
  Fe  Fe184  1  0.10651251  0.75017782  0.37284612  1
  Fe  Fe185  1  0.10764141  0.08350343  0.37337963  1
  Fe  Fe186  1  0.89214538  0.58294738  0.87660632  1
  Fe  Fe187  1  0.85781792  0.75052776  0.00151024  1
  Fe  Fe188  1  0.35787732  0.08370378  0.00087747  1
  Fe  Fe189  1  0.35652526  0.08320733  0.50143289  1
  Fe  Fe190  1  0.64369787  0.24986428  0.99854381  1
  Fe  Fe191  1  0.89264593  0.58339314  0.12675943  1
  P  P192  1  0.05214408  0.25030697  0.11045028  1
  P  P193  1  0.05301204  0.24978137  0.35918598  1
  P  P194  1  0.05432423  0.24991559  0.61155398  1
  P  P195  1  0.05181372  0.25104110  0.85991102  1
  P  P196  1  0.05201926  0.58315220  0.10892225  1
  P  P197  1  0.05439484  0.58335814  0.36098747  1
  P  P198  1  0.05375657  0.58437741  0.60964038  1
  P  P199  1  0.05271463  0.58296755  0.86146764  1
  P  P200  1  0.05345131  0.91659189  0.11002038  1
  P  P201  1  0.05413156  0.91676537  0.36058546  1
  P  P202  1  0.05289505  0.91577693  0.61007795  1
  P  P203  1  0.05446699  0.91593228  0.86154071  1
  P  P204  1  0.55460540  0.25006579  0.10915005  1
  P  P205  1  0.55091535  0.24968428  0.35973592  1
  P  P206  1  0.55608553  0.25000912  0.61167684  1
  P  P207  1  0.55669904  0.24991750  0.86124901  1
  P  P208  1  0.55361534  0.58359394  0.10971329  1
  P  P209  1  0.55318957  0.58371049  0.36112923  1
  P  P210  1  0.55631966  0.58279077  0.61095589  1
  P  P211  1  0.55393824  0.58352758  0.85995300  1
  P  P212  1  0.55327032  0.91640010  0.10975945  1
  P  P213  1  0.55124527  0.91660203  0.36012812  1
  P  P214  1  0.55367364  0.91723186  0.60977882  1
  P  P215  1  0.55290960  0.91647548  0.86018231  1
  P  P216  1  0.44495778  0.08335752  0.13869954  1
  P  P217  1  0.44473001  0.08334521  0.39056984  1
  P  P218  1  0.44695917  0.08352715  0.63902433  1
  P  P219  1  0.44796947  0.08274739  0.89012794  1
  P  P220  1  0.44532471  0.41690559  0.13864764  1
  P  P221  1  0.44617410  0.41671646  0.39040777  1
  P  P222  1  0.44878935  0.41665662  0.64051695  1
  P  P223  1  0.44828041  0.41771303  0.89015079  1
  P  P224  1  0.44652432  0.74978344  0.14012417  1
  P  P225  1  0.44586226  0.74995096  0.39050458  1
  P  P226  1  0.44578516  0.74963692  0.64067264  1
  P  P227  1  0.44681978  0.74954996  0.88828074  1
  P  P228  1  0.94480491  0.08312038  0.13825598  1
  P  P229  1  0.94879916  0.08365133  0.38978835  1
  P  P230  1  0.94616812  0.08205006  0.64122994  1
  P  P231  1  0.94416477  0.08468493  0.88938964  1
  P  P232  1  0.94387769  0.41678155  0.13891637  1
  P  P233  1  0.94722070  0.41561504  0.38887114  1
  P  P234  1  0.94570028  0.41701076  0.64107137  1
  P  P235  1  0.94494396  0.41641831  0.88891830  1
  P  P236  1  0.94455666  0.75007043  0.13904565  1
  P  P237  1  0.94638154  0.75072485  0.38932096  1
  P  P238  1  0.94632424  0.75058067  0.63959854  1
  P  P239  1  0.94562455  0.74911325  0.88929518  1
  P  P240  1  0.19409888  0.08348096  0.23598275  1
  P  P241  1  0.19632945  0.08255587  0.48461567  1
  P  P242  1  0.19681201  0.08432115  0.73531461  1
  P  P243  1  0.19769523  0.08271064  0.98489251  1
  P  P244  1  0.19459637  0.41561661  0.23568308  1
  P  P245  1  0.19533626  0.41749626  0.48448465  1
  P  P246  1  0.19521993  0.41590160  0.73656602  1
  P  P247  1  0.19643056  0.41751820  0.98423189  1
  P  P248  1  0.19452721  0.75088457  0.23598203  1
  P  P249  1  0.19333497  0.75016550  0.48615265  1
  P  P250  1  0.19564099  0.74983513  0.73582972  1
  P  P251  1  0.19495746  0.74953681  0.98440986  1
  P  P252  1  0.69715656  0.08328219  0.23557863  1
  P  P253  1  0.69630042  0.08277114  0.48548046  1
  P  P254  1  0.69610924  0.08378521  0.73546504  1
  P  P255  1  0.69777222  0.08363946  0.98470179  1
  P  P256  1  0.69873072  0.41660940  0.23510119  1
  P  P257  1  0.69575197  0.41791998  0.48577902  1
  P  P258  1  0.69626566  0.41685619  0.73637284  1
  P  P259  1  0.69792594  0.41614749  0.98496337  1
  P  P260  1  0.69902528  0.75012166  0.23516798  1
  P  P261  1  0.69881191  0.74934292  0.48480820  1
  P  P262  1  0.69711321  0.74945525  0.73650788  1
  P  P263  1  0.69822432  0.75044936  0.98443341  1
  P  P264  1  0.30335264  0.25046177  0.01437136  1
  P  P265  1  0.30193352  0.25000970  0.26538452  1
  P  P266  1  0.30439550  0.24927755  0.51420848  1
  P  P267  1  0.30231326  0.25026994  0.76528491  1
  P  P268  1  0.30273307  0.58240673  0.01313648  1
  P  P269  1  0.30336991  0.58350644  0.26585302  1
  P  P270  1  0.30258620  0.58336119  0.51438012  1
  P  P271  1  0.30412588  0.58411991  0.76555064  1
  P  P272  1  0.30321093  0.91696459  0.01337368  1
  P  P273  1  0.30143280  0.91634507  0.26562585  1
  P  P274  1  0.30227326  0.91750622  0.51387694  1
  P  P275  1  0.30421079  0.91557166  0.76563216  1
  P  P276  1  0.80422797  0.24985120  0.01388532  1
  P  P277  1  0.80555676  0.25081096  0.26519251  1
  P  P278  1  0.80520111  0.24996332  0.51383508  1
  P  P279  1  0.80269038  0.25008895  0.76513572  1
  P  P280  1  0.80599267  0.58341075  0.01381205  1
  P  P281  1  0.80553594  0.58317596  0.26393555  1
  P  P282  1  0.80246644  0.58425200  0.51539032  1
  P  P283  1  0.80331619  0.58322011  0.76541832  1
  P  P284  1  0.80432218  0.91682255  0.01546343  1
  P  P285  1  0.80619048  0.91603217  0.26503385  1
  P  P286  1  0.80638128  0.91566374  0.51443198  1
  P  P287  1  0.80538898  0.91667306  0.76331900  1
  O  O288  1  0.05760803  0.25010406  0.18698720  1
  O  O289  1  0.05607648  0.24982551  0.43600652  1
  O  O290  1  0.05845568  0.24992936  0.68825260  1
  O  O291  1  0.05545486  0.25027691  0.93665610  1
  O  O292  1  0.05626464  0.58317446  0.18562498  1
  O  O293  1  0.05807200  0.58319717  0.43773060  1
  O  O294  1  0.05626073  0.58357319  0.68649693  1
  O  O295  1  0.05712204  0.58286823  0.93810922  1
  O  O296  1  0.05802509  0.91677407  0.18673793  1
  O  O297  1  0.05814529  0.91695542  0.43733851  1
  O  O298  1  0.05626330  0.91654216  0.68682419  1
  O  O299  1  0.05853235  0.91679269  0.93829577  1
  O  O300  1  0.55738280  0.25004738  0.18595820  1
  O  O301  1  0.55527024  0.24988023  0.43645099  1
  O  O302  1  0.56037142  0.25007031  0.68846950  1
  O  O303  1  0.56055259  0.24992212  0.93802227  1
  O  O304  1  0.55681017  0.58341991  0.18652301  1
  O  O305  1  0.55867088  0.58411143  0.43777859  1
  O  O306  1  0.56070550  0.58370821  0.68771619  1
  O  O307  1  0.55755260  0.58366547  0.93665815  1
  O  O308  1  0.55681513  0.91657435  0.18650650  1
  O  O309  1  0.55600648  0.91621456  0.43677418  1
  O  O310  1  0.55709292  0.91657622  0.68655589  1
  O  O311  1  0.55660766  0.91632691  0.93684298  1
  O  O312  1  0.44056136  0.08338756  0.06193128  1
  O  O313  1  0.44206300  0.08326170  0.31369675  1
  O  O314  1  0.44111495  0.08333159  0.56248930  1
  O  O315  1  0.44451513  0.08365126  0.81336719  1
  O  O316  1  0.44082809  0.41682238  0.06191671  1
  O  O317  1  0.44318413  0.41685463  0.31357747  1
  O  O318  1  0.44393187  0.41668785  0.56390346  1
  O  O319  1  0.44465837  0.41691616  0.81345492  1
  O  O320  1  0.44305367  0.74980128  0.06331494  1
  O  O321  1  0.44294574  0.75000068  0.31374355  1
  O  O322  1  0.44177950  0.74959596  0.56393250  1
  O  O323  1  0.44209833  0.74957295  0.81169739  1
  O  O324  1  0.94067790  0.08337907  0.06152752  1
  O  O325  1  0.94537548  0.08346810  0.31307279  1
  O  O326  1  0.94408913  0.08322974  0.56440563  1
  O  O327  1  0.94010156  0.08397276  0.81266001  1
  O  O328  1  0.94014142  0.41636209  0.06207468  1
  O  O329  1  0.94265997  0.41682584  0.31220676  1
  O  O330  1  0.94313255  0.41693487  0.56423089  1
  O  O331  1  0.94032650  0.41644595  0.81223160  1
  O  O332  1  0.94122408  0.75022201  0.06222218  1
  O  O333  1  0.94202808  0.74969221  0.31260429  1
  O  O334  1  0.94220273  0.74941657  0.56286740  1
  O  O335  1  0.94113665  0.74970953  0.81254007  1
  O  O336  1  0.19369920  0.08322711  0.06162510  1
  O  O337  1  0.19036699  0.08371484  0.31276386  1
  O  O338  1  0.19277174  0.08294983  0.56132150  1
  O  O339  1  0.19339701  0.08363180  0.81204297  1
  O  O340  1  0.19259743  0.41725650  0.06097896  1
  O  O341  1  0.19029845  0.41613232  0.31242312  1
  O  O342  1  0.19251105  0.41688014  0.56132170  1
  O  O343  1  0.19047449  0.41670422  0.81324877  1
  O  O344  1  0.19201943  0.74929413  0.06122924  1
  O  O345  1  0.19048679  0.75026175  0.31275249  1
  O  O346  1  0.19013541  0.75024907  0.56298182  1
  O  O347  1  0.19045432  0.74951844  0.81247681  1
  O  O348  1  0.69434497  0.08293824  0.06140977  1
  O  O349  1  0.69338580  0.08307769  0.31231721  1
  O  O350  1  0.69190451  0.08277965  0.56228931  1
  O  O351  1  0.69148985  0.08253920  0.81220720  1
  O  O352  1  0.69461688  0.41689566  0.06163453  1
  O  O353  1  0.69427515  0.41649110  0.31181993  1
  O  O354  1  0.69204995  0.41678922  0.56258825  1
  O  O355  1  0.69201399  0.41706792  0.81311177  1
  O  O356  1  0.69460223  0.75035497  0.06112897  1
  O  O357  1  0.69454862  0.75032672  0.31182654  1
  O  O358  1  0.69474841  0.75026747  0.56151108  1
  O  O359  1  0.69185210  0.75041693  0.81313287  1
  O  O360  1  0.30625664  0.25031487  0.18870161  1
  O  O361  1  0.30830132  0.25020251  0.43746045  1
  O  O362  1  0.30622160  0.25051527  0.68855348  1
  O  O363  1  0.30681226  0.25044638  0.93764163  1
  O  O364  1  0.30642398  0.58351530  0.18899535  1
  O  O365  1  0.30783980  0.58316543  0.43774359  1
  O  O366  1  0.30698573  0.58331289  0.68875324  1
  O  O367  1  0.30846477  0.58317015  0.93656823  1
  O  O368  1  0.30542568  0.91597475  0.18887964  1
  O  O369  1  0.30699103  0.91674056  0.43723081  1
  O  O370  1  0.30667969  0.91626990  0.68877685  1
  O  O371  1  0.30883204  0.91625118  0.93675628  1
  O  O372  1  0.80901632  0.24973500  0.18831619  1
  O  O373  1  0.81037376  0.24955340  0.43714206  1
  O  O374  1  0.80582498  0.25014729  0.68841065  1
  O  O375  1  0.80810647  0.25006030  0.93715173  1
  O  O376  1  0.80912189  0.58332186  0.18717354  1
  O  O377  1  0.80657326  0.58349170  0.43867969  1
  O  O378  1  0.80642367  0.58349343  0.68875113  1
  O  O379  1  0.80922571  0.58329412  0.93697743  1
  O  O380  1  0.80992213  0.91701209  0.18826690  1
  O  O381  1  0.81093242  0.91695484  0.43766449  1
  O  O382  1  0.80909116  0.91630269  0.68661311  1
  O  O383  1  0.80640126  0.91671576  0.93856907  1
  O  O384  1  0.23361708  0.25046910  0.03958942  1
  O  O385  1  0.23174549  0.24961120  0.28943355  1
  O  O386  1  0.23432135  0.24989116  0.53829880  1
  O  O387  1  0.23233867  0.25000830  0.79000109  1
  O  O388  1  0.23226685  0.58299836  0.03667141  1
  O  O389  1  0.23348071  0.58334318  0.29036803  1
  O  O390  1  0.23219962  0.58381188  0.53781772  1
  O  O391  1  0.23425847  0.58329458  0.79029471  1
  O  O392  1  0.23272298  0.91623910  0.03680609  1
  O  O393  1  0.23126738  0.91726794  0.28968674  1
  O  O394  1  0.23195400  0.91659113  0.53775386  1
  O  O395  1  0.23449338  0.91662826  0.79069884  1
  O  O396  1  0.73393679  0.25011152  0.03814886  1
  O  O397  1  0.73572141  0.25000913  0.28998390  1
  O  O398  1  0.73504389  0.25031961  0.53731850  1
  O  O399  1  0.73263349  0.25007263  0.78980685  1
  O  O400  1  0.73612603  0.58347597  0.03866100  1
  O  O401  1  0.73574270  0.58342670  0.28884326  1
  O  O402  1  0.73263527  0.58410283  0.54016453  1
  O  O403  1  0.73327216  0.58317184  0.79029538  1
  O  O404  1  0.73491952  0.91666842  0.04143378  1
  O  O405  1  0.73626389  0.91641304  0.28965745  1
  O  O406  1  0.73631456  0.91600252  0.53844302  1
  O  O407  1  0.73549989  0.91674654  0.78810772  1
  O  O408  1  0.26401659  0.08295703  0.21142414  1
  O  O409  1  0.26629216  0.08327974  0.45994676  1
  O  O410  1  0.26646971  0.08339050  0.71011419  1
  O  O411  1  0.26775537  0.08347094  0.96035333  1
  O  O412  1  0.26459364  0.41667384  0.21155222  1
  O  O413  1  0.26506027  0.41645969  0.45948138  1
  O  O414  1  0.26524126  0.41704757  0.71228266  1
  O  O415  1  0.26658947  0.41661917  0.95987724  1
  O  O416  1  0.26431649  0.75003492  0.21118126  1
  O  O417  1  0.26326296  0.75045109  0.46147430  1
  O  O418  1  0.26601261  0.74976813  0.71237030  1
  O  O419  1  0.26479608  0.74978539  0.95958889  1
  O  O420  1  0.76704683  0.08375903  0.21114102  1
  O  O421  1  0.76641836  0.08271066  0.46164609  1
  O  O422  1  0.76657640  0.08357162  0.71189552  1
  O  O423  1  0.76786760  0.08346425  0.96013516  1
  O  O424  1  0.76878195  0.41659967  0.21089685  1
  O  O425  1  0.76569966  0.41750171  0.46132924  1
  O  O426  1  0.76667063  0.41682115  0.71237494  1
  O  O427  1  0.76810208  0.41617767  0.96051893  1
  O  O428  1  0.76922482  0.74993474  0.21123944  1
  O  O429  1  0.76892241  0.74966020  0.46050095  1
  O  O430  1  0.76762253  0.74939969  0.71320002  1
  O  O431  1  0.76846235  0.75031753  0.96028284  1
  O  O432  1  0.01476674  0.08326058  0.16254560  1
  O  O433  1  0.01872128  0.08322977  0.41481219  1
  O  O434  1  0.01562782  0.08286352  0.66705515  1
  O  O435  1  0.01418556  0.08384383  0.91371620  1
  O  O436  1  0.01392167  0.41702420  0.16313607  1
  O  O437  1  0.01745160  0.41566570  0.41291057  1
  O  O438  1  0.01533648  0.41736607  0.66619115  1
  O  O439  1  0.01527723  0.41639768  0.91290372  1
  O  O440  1  0.01445702  0.75019148  0.16375696  1
  O  O441  1  0.01676619  0.75041083  0.41283111  1
  O  O442  1  0.01654832  0.75024788  0.66378724  1
  O  O443  1  0.01595084  0.74935515  0.91300476  1
  O  O444  1  0.51495614  0.08338410  0.16281484  1
  O  O445  1  0.51439309  0.08337230  0.41598619  1
  O  O446  1  0.51743634  0.08344512  0.66222512  1
  O  O447  1  0.51818066  0.08300172  0.91447561  1
  O  O448  1  0.51533163  0.41681117  0.16290071  1
  O  O449  1  0.51583026  0.41657189  0.41574091  1
  O  O450  1  0.51902897  0.41680266  0.66426307  1
  O  O451  1  0.51857062  0.41731284  0.91430842  1
  O  O452  1  0.51612045  0.74991989  0.16536959  1
  O  O453  1  0.51545921  0.74996286  0.41613418  1
  O  O454  1  0.51585332  0.75002908  0.66466045  1
  O  O455  1  0.51718759  0.74953755  0.91224910  1
  O  O456  1  0.48490275  0.25004358  0.08401050  1
  O  O457  1  0.48084900  0.24969653  0.33541071  1
  O  O458  1  0.48602370  0.25004629  0.58760654  1
  O  O459  1  0.48663371  0.25008717  0.83675702  1
  O  O460  1  0.48401890  0.58365522  0.08444996  1
  O  O461  1  0.48271722  0.58355653  0.33795106  1
  O  O462  1  0.48610039  0.58322011  0.58718871  1
  O  O463  1  0.48386532  0.58327222  0.83530725  1
  O  O464  1  0.48353679  0.91626903  0.08482626  1
  O  O465  1  0.48096834  0.91679685  0.33626200  1
  O  O466  1  0.48383528  0.91674680  0.58517033  1
  O  O467  1  0.48287103  0.91673191  0.83543255  1
  O  O468  1  0.98162854  0.25037978  0.08741001  1
  O  O469  1  0.98309072  0.24988281  0.33409715  1
  O  O470  1  0.98434538  0.24971345  0.58733569  1
  O  O471  1  0.98164627  0.25083191  0.83563299  1
  O  O472  1  0.98174214  0.58312472  0.08530121  1
  O  O473  1  0.98451489  0.58370139  0.33631995  1
  O  O474  1  0.98419819  0.58344632  0.58407964  1
  O  O475  1  0.98243313  0.58328728  0.83734302  1
  O  O476  1  0.98305504  0.91613141  0.08655232  1
  O  O477  1  0.98379810  0.91682153  0.33650546  1
  O  O478  1  0.98294718  0.91608917  0.58530022  1
  O  O479  1  0.98437219  0.91612775  0.83754958  1
  O  O480  1  0.08513443  0.31534430  0.07690227  1
  O  O481  1  0.08710032  0.31470777  0.32648705  1
  O  O482  1  0.08765480  0.31499935  0.57834700  1
  O  O483  1  0.08580543  0.31607523  0.82747154  1
  O  O484  1  0.08567076  0.64813477  0.07597547  1
  O  O485  1  0.08796344  0.64860229  0.32820788  1
  O  O486  1  0.08763519  0.64976650  0.57782320  1
  O  O487  1  0.08624771  0.64793724  0.82821935  1
  O  O488  1  0.08667925  0.98153998  0.07639814  1
  O  O489  1  0.08751869  0.98172373  0.32725819  1
  O  O490  1  0.08705113  0.98064988  0.57710988  1
  O  O491  1  0.08777739  0.98100740  0.82825302  1
  O  O492  1  0.58901340  0.31504471  0.07683835  1
  O  O493  1  0.58484873  0.31468959  0.32689463  1
  O  O494  1  0.58944823  0.31528863  0.57867044  1
  O  O495  1  0.59048363  0.31505465  0.82845586  1
  O  O496  1  0.58790211  0.64860085  0.07741583  1
  O  O497  1  0.58642085  0.64869346  0.32750907  1
  O  O498  1  0.58992911  0.64769042  0.57734612  1
  O  O499  1  0.58793186  0.64846815  0.82703444  1
  O  O500  1  0.58722237  0.98150700  0.07713987  1
  O  O501  1  0.58491523  0.98166703  0.32727407  1
  O  O502  1  0.58755377  0.98233291  0.57746753  1
  O  O503  1  0.58694022  0.98159989  0.82769393  1
  O  O504  1  0.41126692  0.01836364  0.17174575  1
  O  O505  1  0.41038751  0.01821413  0.42286976  1
  O  O506  1  0.41376417  0.01846950  0.67249755  1
  O  O507  1  0.41389807  0.01765560  0.92245577  1
  O  O508  1  0.41173355  0.35183406  0.17177583  1
  O  O509  1  0.41205254  0.35145685  0.42248013  1
  O  O510  1  0.41537775  0.35167198  0.67383474  1
  O  O511  1  0.41425713  0.35280902  0.92311345  1
  O  O512  1  0.41232573  0.68474810  0.17240429  1
  O  O513  1  0.41163230  0.68486123  0.42288457  1
  O  O514  1  0.41212536  0.68454869  0.67350996  1
  O  O515  1  0.41353098  0.68436251  0.92162880  1
  O  O516  1  0.91171520  0.01780075  0.17131229  1
  O  O517  1  0.91465082  0.01874683  0.42236902  1
  O  O518  1  0.91223245  0.01657129  0.67274758  1
  O  O519  1  0.91007810  0.01988559  0.92259600  1
  O  O520  1  0.91033675  0.35177325  0.17207450  1
  O  O521  1  0.91384402  0.35046007  0.42159327  1
  O  O522  1  0.91144286  0.35203714  0.67352182  1
  O  O523  1  0.91147234  0.35139193  0.92225885  1
  O  O524  1  0.91106942  0.68478307  0.17183014  1
  O  O525  1  0.91295344  0.68596192  0.42332456  1
  O  O526  1  0.91259371  0.68577480  0.67319385  1
  O  O527  1  0.91209230  0.68415669  0.92220076  1
  O  O528  1  0.16028350  0.01832187  0.20333344  1
  O  O529  1  0.16247855  0.01743662  0.45204038  1
  O  O530  1  0.16242816  0.01932415  0.70279301  1
  O  O531  1  0.16404740  0.01763727  0.95227998  1
  O  O532  1  0.16154800  0.35021947  0.20272218  1
  O  O533  1  0.16061078  0.35270187  0.45194073  1
  O  O534  1  0.16221279  0.35046862  0.70374062  1
  O  O535  1  0.16195356  0.35266470  0.95162699  1
  O  O536  1  0.16042742  0.68606524  0.20286776  1
  O  O537  1  0.15973797  0.68503677  0.45318234  1
  O  O538  1  0.16201129  0.68496750  0.70242384  1
  O  O539  1  0.16089699  0.68448052  0.95175777  1
  O  O540  1  0.66367326  0.01806521  0.20276715  1
  O  O541  1  0.66287310  0.01768704  0.45246924  1
  O  O542  1  0.66267609  0.01900278  0.70162697  1
  O  O543  1  0.66396299  0.01868818  0.95149026  1
  O  O544  1  0.66505131  0.35150330  0.20239109  1
  O  O545  1  0.66200978  0.35307890  0.45234979  1
  O  O546  1  0.66302487  0.35170140  0.70315453  1
  O  O547  1  0.66389687  0.35128629  0.95240505  1
  O  O548  1  0.66549554  0.68505641  0.20220208  1
  O  O549  1  0.66506254  0.68417522  0.45231044  1
  O  O550  1  0.66396785  0.68425586  0.70363012  1
  O  O551  1  0.66427886  0.68550488  0.95159988  1
  O  O552  1  0.33724004  0.31581981  0.04657868  1
  O  O553  1  0.33556169  0.31494779  0.29861570  1
  O  O554  1  0.33819015  0.31407040  0.54767734  1
  O  O555  1  0.33623677  0.31525786  0.79805942  1
  O  O556  1  0.33595374  0.64741150  0.04689453  1
  O  O557  1  0.33725942  0.64852786  0.29853081  1
  O  O558  1  0.33600584  0.64832864  0.54765601  1
  O  O559  1  0.33774220  0.64950255  0.79787777  1
  O  O560  1  0.33592353  0.98229430  0.04663483  1
  O  O561  1  0.33578473  0.98114469  0.29820648  1
  O  O562  1  0.33522950  0.98291154  0.54693049  1
  O  O563  1  0.33919592  0.98018530  0.79804180  1
  O  O564  1  0.83790885  0.31479796  0.04700465  1
  O  O565  1  0.83910326  0.31623120  0.29745713  1
  O  O566  1  0.83860879  0.31500546  0.54700777  1
  O  O567  1  0.83656008  0.31507051  0.79799443  1
  O  O568  1  0.83985422  0.64851250  0.04642907  1
  O  O569  1  0.83951096  0.64817591  0.29676794  1
  O  O570  1  0.83650770  0.64934874  0.54779599  1
  O  O571  1  0.83757254  0.64807613  0.79813440  1
  O  O572  1  0.83874475  0.98192341  0.04739345  1
  O  O573  1  0.84024982  0.98085575  0.29841207  1
  O  O574  1  0.84029309  0.98033523  0.54798192  1
  O  O575  1  0.83892358  0.98189389  0.79609767  1
  O  O576  1  0.41137487  0.14840745  0.17172050  1
  O  O577  1  0.41048495  0.14843853  0.42282082  1
  O  O578  1  0.41412290  0.14855793  0.67294755  1
  O  O579  1  0.41397396  0.14772867  0.92302412  1
  O  O580  1  0.41170640  0.48188153  0.17172596  1
  O  O581  1  0.41224628  0.48192899  0.42298536  1
  O  O582  1  0.41512519  0.48171742  0.67336288  1
  O  O583  1  0.41437725  0.48285391  0.92261368  1
  O  O584  1  0.41212800  0.81476834  0.17247372  1
  O  O585  1  0.41154570  0.81521307  0.42257416  1
  O  O586  1  0.41153682  0.81451838  0.67327684  1
  O  O587  1  0.41350712  0.81464004  0.92168250  1
  O  O588  1  0.91124568  0.14814051  0.17143518  1
  O  O589  1  0.91514900  0.14883547  0.42235439  1
  O  O590  1  0.91102634  0.14662819  0.67368174  1
  O  O591  1  0.91089387  0.15006560  0.92200872  1
  O  O592  1  0.91041104  0.48202672  0.17175048  1
  O  O593  1  0.91398173  0.48061191  0.42268277  1
  O  O594  1  0.91120060  0.48192428  0.67325778  1
  O  O595  1  0.91152945  0.48146047  0.92214781  1
  O  O596  1  0.91084436  0.81508203  0.17196376  1
  O  O597  1  0.91327559  0.81590918  0.42225670  1
  O  O598  1  0.91286590  0.81572179  0.67241000  1
  O  O599  1  0.91221020  0.81407794  0.92287160  1
  O  O600  1  0.08519130  0.18539567  0.07660240  1
  O  O601  1  0.08689944  0.18462168  0.32673582  1
  O  O602  1  0.08798047  0.18492477  0.57848825  1
  O  O603  1  0.08586524  0.18613362  0.82697452  1
  O  O604  1  0.08567529  0.51823929  0.07579094  1
  O  O605  1  0.08763899  0.51811564  0.32793229  1
  O  O606  1  0.08871014  0.51976475  0.57720330  1
  O  O607  1  0.08581185  0.51780694  0.82817634  1
  O  O608  1  0.08715280  0.85172080  0.07690731  1
  O  O609  1  0.08734262  0.85155556  0.32739770  1
  O  O610  1  0.08677358  0.85071968  0.57762533  1
  O  O611  1  0.08768231  0.85066553  0.82874811  1
  O  O612  1  0.58904370  0.18512079  0.07678778  1
  O  O613  1  0.58478617  0.18463885  0.32715897  1
  O  O614  1  0.58945334  0.18488363  0.57848323  1
  O  O615  1  0.59025428  0.18476639  0.82827598  1
  O  O616  1  0.58783300  0.51853669  0.07734167  1
  O  O617  1  0.58637806  0.51859186  0.32766770  1
  O  O618  1  0.58962256  0.51752240  0.57818014  1
  O  O619  1  0.58815254  0.51844832  0.82752438  1
  O  O620  1  0.58742523  0.85141786  0.07726942  1
  O  O621  1  0.58498672  0.85157767  0.32710269  1
  O  O622  1  0.58767073  0.85207791  0.57720930  1
  O  O623  1  0.58670823  0.85141108  0.82728686  1
  O  O624  1  0.33731144  0.18524337  0.04669010  1
  O  O625  1  0.33585364  0.18505620  0.29817251  1
  O  O626  1  0.33752374  0.18374590  0.54678841  1
  O  O627  1  0.33652703  0.18529830  0.79771015  1
  O  O628  1  0.33562103  0.51706649  0.04632976  1
  O  O629  1  0.33756183  0.51854188  0.29838424  1
  O  O630  1  0.33558806  0.51824709  0.54804988  1
  O  O631  1  0.33888124  0.51955648  0.79834296  1
  O  O632  1  0.33632613  0.85186342  0.04702677  1
  O  O633  1  0.33469433  0.85127628  0.29891298  1
  O  O634  1  0.33599744  0.85277368  0.54738064  1
  O  O635  1  0.33783821  0.85013530  0.79781886  1
  O  O636  1  0.83746460  0.18470257  0.04713925  1
  O  O637  1  0.84008765  0.18619795  0.29832796  1
  O  O638  1  0.83824834  0.18482975  0.54736161  1
  O  O639  1  0.83661278  0.18509567  0.79776918  1
  O  O640  1  0.83971810  0.51825543  0.04644968  1
  O  O641  1  0.83907342  0.51793725  0.29689322  1
  O  O642  1  0.83633253  0.51927831  0.54824270  1
  O  O643  1  0.83730550  0.51814296  0.79797609  1
  O  O644  1  0.83900910  0.85177991  0.04728819  1
  O  O645  1  0.83998513  0.85079784  0.29740071  1
  O  O646  1  0.83982389  0.85027538  0.54702057  1
  O  O647  1  0.83909974  0.85170674  0.79648270  1
  O  O648  1  0.16080556  0.14876917  0.20291085  1
  O  O649  1  0.16202471  0.14739600  0.45173063  1
  O  O650  1  0.16302222  0.14959290  0.70319041  1
  O  O651  1  0.16348716  0.14771956  0.95233130  1
  O  O652  1  0.16066611  0.48048056  0.20249415  1
  O  O653  1  0.16157005  0.48278101  0.45226986  1
  O  O654  1  0.16123846  0.48080477  0.70342156  1
  O  O655  1  0.16264870  0.48253953  0.95134208  1
  O  O656  1  0.16119803  0.81631218  0.20339456  1
  O  O657  1  0.15934309  0.81514829  0.45330535  1
  O  O658  1  0.16227285  0.81489496  0.70245986  1
  O  O659  1  0.16067801  0.81456135  0.95214678  1
  O  O660  1  0.66315619  0.14829151  0.20303170  1
  O  O661  1  0.66288100  0.14789592  0.45243378  1
  O  O662  1  0.66297624  0.14915269  0.70278860  1
  O  O663  1  0.66388448  0.14865728  0.95221590  1
  O  O664  1  0.66510390  0.48169741  0.20222326  1
  O  O665  1  0.66243901  0.48344122  0.45348871  1
  O  O666  1  0.66294179  0.48196311  0.70328339  1
  O  O667  1  0.66422017  0.48114583  0.95182071  1
  O  O668  1  0.66561067  0.81526182  0.20223022  1
  O  O669  1  0.66509008  0.81429170  0.45159483  1
  O  O670  1  0.66425399  0.81437903  0.70240252  1
  O  O671  1  0.66444725  0.81541972  0.95150404  1
