# generated using pymatgen
data_Na2MnFe(PO4)2
_symmetry_space_group_name_H-M   'P 1'
_cell_length_a   21.08754585
_cell_length_b   18.94041113
_cell_length_c   20.04645267
_cell_angle_alpha   89.99957270
_cell_angle_beta   89.99836855
_cell_angle_gamma   89.99987940
_symmetry_Int_Tables_number   1
_chemical_formula_structural   Na2MnFe(PO4)2
_chemical_formula_sum   'Na96 Mn48 Fe48 P96 O384'
_cell_volume   8006.68927119
_cell_formula_units_Z   48
loop_
 _symmetry_equiv_pos_site_id
 _symmetry_equiv_pos_as_xyz
  1  'x, y, z'
loop_
 _atom_site_type_symbol
 _atom_site_label
 _atom_site_symmetry_multiplicity
 _atom_site_fract_x
 _atom_site_fract_y
 _atom_site_fract_z
 _atom_site_occupancy
  Na  Na0  1  -0.00068035  -0.00005282  -0.00075123  1
  Na  Na1  1  -0.00129192  -0.00037858  0.25020282  1
  Na  Na2  1  -0.00048556  -0.00068058  0.50009617  1
  Na  Na3  1  0.00179737  0.00071905  0.75013293  1
  Na  Na4  1  0.00037170  0.33342611  0.00106433  1
  Na  Na5  1  -0.00069478  0.33367135  0.25121874  1
  Na  Na6  1  0.00085312  0.33412994  0.49933447  1
  Na  Na7  1  0.00037104  0.33318787  0.74866043  1
  Na  Na8  1  0.00149196  0.66628862  -0.00103735  1
  Na  Na9  1  0.00131679  0.66668918  0.25037848  1
  Na  Na10  1  -0.00243677  0.66553628  0.50102949  1
  Na  Na11  1  0.00022850  0.66686242  0.75042459  1
  Na  Na12  1  0.49651951  -0.00132113  -0.00065614  1
  Na  Na13  1  0.49758710  -0.00052172  0.24990639  1
  Na  Na14  1  0.49714301  -0.00092751  0.50113074  1
  Na  Na15  1  0.49906834  0.00034110  0.74982751  1
  Na  Na16  1  0.49870119  0.33327881  0.00144285  1
  Na  Na17  1  0.50084789  0.33397110  0.24880449  1
  Na  Na18  1  0.50089777  0.33387131  0.49955554  1
  Na  Na19  1  0.49837494  0.33304111  0.75031341  1
  Na  Na20  1  0.49874562  0.66630820  0.00000439  1
  Na  Na21  1  0.50030186  0.66687913  0.25025495  1
  Na  Na22  1  0.49907951  0.66658161  0.49914309  1
  Na  Na23  1  0.49760823  0.66642904  0.74997495  1
  Na  Na24  1  0.25070619  -0.00026759  0.12471647  1
  Na  Na25  1  0.25241845  0.00025363  0.37498888  1
  Na  Na26  1  0.25172964  -0.00009711  0.62410617  1
  Na  Na27  1  0.25166061  0.00023107  0.87527953  1
  Na  Na28  1  0.25175039  0.33468968  0.12546978  1
  Na  Na29  1  0.24923719  0.33323894  0.37492919  1
  Na  Na30  1  0.24870034  0.33268975  0.62489574  1
  Na  Na31  1  0.25100252  0.33377519  0.87513784  1
  Na  Na32  1  0.24938165  0.66541405  0.12484097  1
  Na  Na33  1  0.25335367  0.66727126  0.37465792  1
  Na  Na34  1  0.25215362  0.66664259  0.62421797  1
  Na  Na35  1  0.25047870  0.66628860  0.87558231  1
  Na  Na36  1  0.75243902  0.00114474  0.12553809  1
  Na  Na37  1  0.75171841  0.00082843  0.37600296  1
  Na  Na38  1  0.74861741  -0.00065665  0.62379384  1
  Na  Na39  1  0.75044025  0.00001233  0.87457563  1
  Na  Na40  1  0.74873813  0.33358237  0.12439673  1
  Na  Na41  1  0.74934140  0.33425492  0.37429845  1
  Na  Na42  1  0.75035335  0.33405301  0.62558992  1
  Na  Na43  1  0.75069555  0.33374284  0.87581414  1
  Na  Na44  1  0.74936492  0.66702556  0.12587769  1
  Na  Na45  1  0.74898790  0.66631455  0.37443786  1
  Na  Na46  1  0.74956826  0.66699059  0.62373372  1
  Na  Na47  1  0.75102188  0.66786015  0.87632287  1
  Na  Na48  1  -0.00170994  0.16657044  -0.00036231  1
  Na  Na49  1  0.00064075  0.16609400  0.25078213  1
  Na  Na50  1  0.00137738  0.16540372  0.49900571  1
  Na  Na51  1  -0.00115174  0.16671467  0.75062740  1
  Na  Na52  1  0.00159558  0.50039384  0.00077330  1
  Na  Na53  1  -0.00120174  0.50125126  0.25028056  1
  Na  Na54  1  -0.00030360  0.50039389  0.50037667  1
  Na  Na55  1  0.00315092  0.49943916  0.74922390  1
  Na  Na56  1  0.00213734  0.83217982  -0.00108631  1
  Na  Na57  1  -0.00054285  0.83306970  0.25040072  1
  Na  Na58  1  -0.00173701  0.83353167  0.50165028  1
  Na  Na59  1  -0.00003903  0.83367673  0.74911460  1
  Na  Na60  1  0.49837065  0.16701343  0.00053432  1
  Na  Na61  1  0.49986795  0.16663477  0.24914385  1
  Na  Na62  1  0.49934836  0.16676310  0.50014292  1
  Na  Na63  1  0.49800081  0.16656591  0.75009368  1
  Na  Na64  1  0.49755731  0.50083358  0.00129760  1
  Na  Na65  1  0.50000996  0.49982683  0.24952735  1
  Na  Na66  1  0.49891967  0.50043370  0.49935101  1
  Na  Na67  1  0.49770246  0.50069671  0.75046533  1
  Na  Na68  1  0.49878412  0.83301131  -0.00077837  1
  Na  Na69  1  0.49848130  0.83349313  0.25022942  1
  Na  Na70  1  0.49914808  0.83309519  0.50050115  1
  Na  Na71  1  0.49856572  0.83376825  0.74954799  1
  Na  Na72  1  0.24953620  0.16714824  0.12468885  1
  Na  Na73  1  0.25142959  0.16605592  0.37530081  1
  Na  Na74  1  0.24984475  0.16654453  0.62432922  1
  Na  Na75  1  0.25237450  0.16505384  0.87574425  1
  Na  Na76  1  0.25085571  0.49990323  0.12560677  1
  Na  Na77  1  0.25022831  0.50088597  0.37491511  1
  Na  Na78  1  0.25109171  0.50008772  0.62472919  1
  Na  Na79  1  0.24951702  0.50079469  0.87442974  1
  Na  Na80  1  0.25110933  0.83294268  0.12463274  1
  Na  Na81  1  0.25295586  0.83268731  0.37447029  1
  Na  Na82  1  0.25276839  0.83312414  0.62414958  1
  Na  Na83  1  0.25145830  0.83313045  0.87569585  1
  Na  Na84  1  0.75032412  0.16698958  0.12426706  1
  Na  Na85  1  0.74933702  0.16676144  0.37582261  1
  Na  Na86  1  0.74906231  0.16694175  0.62489398  1
  Na  Na87  1  0.75315928  0.16525656  0.87477908  1
  Na  Na88  1  0.75076063  0.50002275  0.12580164  1
  Na  Na89  1  0.75021323  0.50023069  0.37391066  1
  Na  Na90  1  0.75067109  0.50001161  0.62448428  1
  Na  Na91  1  0.75015945  0.50057973  0.87609708  1
  Na  Na92  1  0.74797470  0.83358398  0.12587955  1
  Na  Na93  1  0.75026840  0.83217223  0.37513661  1
  Na  Na94  1  0.74860123  0.83309364  0.62366778  1
  Na  Na95  1  0.74872534  0.83301198  0.87564398  1
  Mn  Mn96  1  0.89194637  0.91682266  0.87635800  1
  Mn  Mn97  1  0.60703477  0.08342149  0.87284302  1
  Mn  Mn98  1  0.14270284  0.25026777  0.24779011  1
  Mn  Mn99  1  0.85852844  0.41706337  0.75323227  1
  Mn  Mn100  1  0.60793894  0.08246678  0.12267616  1
  Mn  Mn101  1  0.14235349  0.24904439  0.74796405  1
  Mn  Mn102  1  0.64147575  0.91658103  0.49746923  1
  Mn  Mn103  1  0.10850162  0.75069769  0.62265733  1
  Mn  Mn104  1  0.60658335  0.41671798  0.87323351  1
  Mn  Mn105  1  0.85774237  0.08381477  0.50314489  1
  Mn  Mn106  1  0.89212794  0.25055934  0.12812709  1
  Mn  Mn107  1  0.60771380  0.41714404  0.62319006  1
  Mn  Mn108  1  0.85814624  0.75041465  0.00273404  1
  Mn  Mn109  1  0.35744861  0.41633033  0.75273976  1
  Mn  Mn110  1  0.89261485  0.24943999  0.62670813  1
  Mn  Mn111  1  0.89245070  0.91552336  0.12723520  1
  Mn  Mn112  1  0.14327636  0.58363873  0.49735948  1
  Mn  Mn113  1  0.14365468  0.91633220  0.49751481  1
  Mn  Mn114  1  0.64139871  0.91743400  0.99823948  1
  Mn  Mn115  1  0.89191848  0.58338149  0.62788769  1
  Mn  Mn116  1  0.64178886  0.91723017  0.24816175  1
  Mn  Mn117  1  0.85768021  0.74994409  0.25241098  1
  Mn  Mn118  1  0.10824338  0.41589678  0.62210130  1
  Mn  Mn119  1  0.64242077  0.24951261  0.99712973  1
  Mn  Mn120  1  0.14253850  0.91577069  0.24811797  1
  Mn  Mn121  1  0.64180876  0.58349467  0.99854930  1
  Mn  Mn122  1  0.10797986  0.08265644  0.37268487  1
  Mn  Mn123  1  0.64130576  0.58397602  0.74820297  1
  Mn  Mn124  1  0.89326194  0.58262709  0.87701514  1
  Mn  Mn125  1  0.10813542  0.74941943  0.37352958  1
  Mn  Mn126  1  0.35803175  0.41633030  0.50153811  1
  Mn  Mn127  1  0.10805096  0.41662729  0.12343362  1
  Mn  Mn128  1  0.64202919  0.24948829  0.74868767  1
  Mn  Mn129  1  0.64176360  0.58294922  0.49777937  1
  Mn  Mn130  1  0.14286949  0.91656469  0.99795253  1
  Mn  Mn131  1  0.14254454  0.25046410  0.99763616  1
  Mn  Mn132  1  0.85862247  0.41703027  0.00250787  1
  Mn  Mn133  1  0.35762169  0.74956815  0.00303544  1
  Mn  Mn134  1  0.10870422  0.74969395  0.87149539  1
  Mn  Mn135  1  0.89209315  0.91711564  0.62796470  1
  Mn  Mn136  1  0.60681000  0.08328946  0.37242477  1
  Mn  Mn137  1  0.60669825  0.74982776  0.87237161  1
  Mn  Mn138  1  0.10795356  0.08378279  0.87256297  1
  Mn  Mn139  1  0.35780831  0.08370723  0.25233350  1
  Mn  Mn140  1  0.89187818  0.25049413  0.37752183  1
  Mn  Mn141  1  0.64147482  0.25078667  0.49774934  1
  Mn  Mn142  1  0.39245403  0.25024898  0.12780465  1
  Mn  Mn143  1  0.39153179  0.25020679  0.62728833  1
  Fe  Fe144  1  0.60652537  0.08309762  0.62405097  1
  Fe  Fe145  1  0.60635927  0.75004455  0.62367460  1
  Fe  Fe146  1  0.39228880  0.58376407  0.12743690  1
  Fe  Fe147  1  0.64244113  0.25022665  0.24887578  1
  Fe  Fe148  1  0.39172414  0.25016918  0.87737861  1
  Fe  Fe149  1  0.35726040  0.08378472  0.00215552  1
  Fe  Fe150  1  0.39140054  0.58292005  0.87743432  1
  Fe  Fe151  1  0.35702710  0.41650525  0.00182498  1
  Fe  Fe152  1  0.39268849  0.58356125  0.62678415  1
  Fe  Fe153  1  0.35786872  0.41701903  0.25259124  1
  Fe  Fe154  1  0.10841479  0.08310133  0.62363931  1
  Fe  Fe155  1  0.85778238  0.08290506  0.00201568  1
  Fe  Fe156  1  0.60604922  0.74986709  0.12405679  1
  Fe  Fe157  1  0.64236968  0.58279595  0.24785415  1
  Fe  Fe158  1  0.14324088  0.58275736  0.99870724  1
  Fe  Fe159  1  0.85759716  0.08395507  0.25149108  1
  Fe  Fe160  1  0.35751234  0.08370439  0.50202144  1
  Fe  Fe161  1  0.39232468  0.91691564  0.87634662  1
  Fe  Fe162  1  0.10696117  0.08270786  0.12353409  1
  Fe  Fe163  1  0.39256588  0.91675562  0.37682366  1
  Fe  Fe164  1  0.35756193  0.75036102  0.75144616  1
  Fe  Fe165  1  0.89362454  0.58376548  0.12689465  1
  Fe  Fe166  1  0.89240114  0.58396356  0.37617433  1
  Fe  Fe167  1  0.35784442  0.74918432  0.25155012  1
  Fe  Fe168  1  0.14298879  0.24980611  0.49788224  1
  Fe  Fe169  1  0.85635137  0.75054838  0.75109995  1
  Fe  Fe170  1  0.14416156  0.91635764  0.74833686  1
  Fe  Fe171  1  0.85714187  0.41707368  0.50100779  1
  Fe  Fe172  1  0.60646014  0.74972868  0.37335614  1
  Fe  Fe173  1  0.14413626  0.58444003  0.74797028  1
  Fe  Fe174  1  0.35902589  0.75013835  0.50190141  1
  Fe  Fe175  1  0.14329520  0.58349088  0.24881137  1
  Fe  Fe176  1  0.35745168  0.08287912  0.75162134  1
  Fe  Fe177  1  0.39354533  0.58292862  0.37596651  1
  Fe  Fe178  1  0.39307459  0.25040770  0.37645301  1
  Fe  Fe179  1  0.85714080  0.08243021  0.75096275  1
  Fe  Fe180  1  0.10826680  0.75027807  0.12411435  1
  Fe  Fe181  1  0.89280103  0.25065014  0.87613786  1
  Fe  Fe182  1  0.60756091  0.41698751  0.37266656  1
  Fe  Fe183  1  0.60660283  0.41751755  0.12315820  1
  Fe  Fe184  1  0.85652238  0.74950305  0.50166199  1
  Fe  Fe185  1  0.39240326  0.91589154  0.12698954  1
  Fe  Fe186  1  0.64178103  0.91664987  0.74844631  1
  Fe  Fe187  1  0.10684113  0.41746429  0.37312321  1
  Fe  Fe188  1  0.10828721  0.41610732  0.87365760  1
  Fe  Fe189  1  0.89217719  0.91561882  0.37682372  1
  Fe  Fe190  1  0.85646353  0.41660570  0.25185453  1
  Fe  Fe191  1  0.39300067  0.91640861  0.62755105  1
  P  P192  1  0.05355044  0.24904941  0.11040614  1
  P  P193  1  0.05473985  0.25083554  0.36121864  1
  P  P194  1  0.05458857  0.24832871  0.60889736  1
  P  P195  1  0.05239608  0.25072189  0.86013717  1
  P  P196  1  0.05500432  0.58416207  0.11108259  1
  P  P197  1  0.05310974  0.58288650  0.35997728  1
  P  P198  1  0.05523717  0.58402196  0.61092828  1
  P  P199  1  0.05626744  0.58202431  0.86035345  1
  P  P200  1  0.05374532  0.91648939  0.11013361  1
  P  P201  1  0.05215296  0.91584029  0.36047991  1
  P  P202  1  0.05547967  0.91761799  0.61120261  1
  P  P203  1  0.05455123  0.91675882  0.85876236  1
  P  P204  1  0.55526370  0.25068110  0.11132073  1
  P  P205  1  0.55256830  0.25071526  0.35915225  1
  P  P206  1  0.55294022  0.24920429  0.61041767  1
  P  P207  1  0.55098034  0.24989034  0.86046879  1
  P  P208  1  0.55287354  0.58351012  0.11166749  1
  P  P209  1  0.55308642  0.58319763  0.35979500  1
  P  P210  1  0.55170659  0.58444068  0.60998652  1
  P  P211  1  0.55084611  0.58320648  0.86052674  1
  P  P212  1  0.55150875  0.91571040  0.11014027  1
  P  P213  1  0.55140526  0.91618124  0.36036998  1
  P  P214  1  0.55342604  0.91653311  0.61165200  1
  P  P215  1  0.55195997  0.91687008  0.85933446  1
  P  P216  1  0.44546701  0.08256927  0.13877215  1
  P  P217  1  0.44560012  0.08391191  0.39059098  1
  P  P218  1  0.44545283  0.08270181  0.63946867  1
  P  P219  1  0.44413349  0.08325688  0.88933781  1
  P  P220  1  0.44533474  0.41767026  0.13963628  1
  P  P221  1  0.44701699  0.41651318  0.38819890  1
  P  P222  1  0.44635392  0.41741544  0.63989107  1
  P  P223  1  0.44513451  0.41662227  0.89131688  1
  P  P224  1  0.44647361  0.74963668  0.14019852  1
  P  P225  1  0.44589591  0.74957640  0.38891394  1
  P  P226  1  0.44572708  0.75001199  0.63924619  1
  P  P227  1  0.44427198  0.75015028  0.88876178  1
  P  P228  1  0.94620436  0.08305568  0.13974521  1
  P  P229  1  0.94495149  0.08254407  0.38899605  1
  P  P230  1  0.94793279  0.08325237  0.64072887  1
  P  P231  1  0.94460287  0.08373454  0.88894825  1
  P  P232  1  0.94621805  0.41787540  0.14128476  1
  P  P233  1  0.94557519  0.41805362  0.38913494  1
  P  P234  1  0.94582041  0.41652509  0.63874682  1
  P  P235  1  0.94890055  0.41621304  0.89024760  1
  P  P236  1  0.94851575  0.74885162  0.14001026  1
  P  P237  1  0.94600652  0.74942773  0.39084525  1
  P  P238  1  0.94499497  0.75007128  0.64000533  1
  P  P239  1  0.94579385  0.75017821  0.88845453  1
  P  P240  1  0.19627085  0.08286726  0.23428146  1
  P  P241  1  0.19718592  0.08345467  0.48590311  1
  P  P242  1  0.19801734  0.08220463  0.73460953  1
  P  P243  1  0.19677421  0.08326014  0.98620330  1
  P  P244  1  0.19709607  0.41796030  0.23670819  1
  P  P245  1  0.19612754  0.41624965  0.48399763  1
  P  P246  1  0.19563358  0.41724367  0.73610224  1
  P  P247  1  0.19744088  0.41752521  0.98494428  1
  P  P248  1  0.19794675  0.74887642  0.23497152  1
  P  P249  1  0.19951926  0.75016153  0.48474299  1
  P  P250  1  0.19888235  0.75033719  0.73474052  1
  P  P251  1  0.19561597  0.74902826  0.98625725  1
  P  P252  1  0.69782408  0.08406047  0.23533423  1
  P  P253  1  0.69476448  0.08334910  0.48612079  1
  P  P254  1  0.69688959  0.08248593  0.73456652  1
  P  P255  1  0.69795827  0.08319847  0.98460716  1
  P  P256  1  0.69520935  0.41704510  0.23556001  1
  P  P257  1  0.69685210  0.41729978  0.48390188  1
  P  P258  1  0.69687814  0.41700452  0.73548741  1
  P  P259  1  0.69554967  0.41727388  0.98621010  1
  P  P260  1  0.69402918  0.74925163  0.23606117  1
  P  P261  1  0.69493685  0.74957399  0.48520715  1
  P  P262  1  0.69628903  0.75061852  0.73425536  1
  P  P263  1  0.69461854  0.75013086  0.98656177  1
  P  P264  1  0.30458384  0.25033301  0.01416784  1
  P  P265  1  0.30422883  0.25103183  0.26598155  1
  P  P266  1  0.30350674  0.24975407  0.51350851  1
  P  P267  1  0.30360012  0.24878413  0.76565637  1
  P  P268  1  0.30409426  0.58229059  0.01494439  1
  P  P269  1  0.30476990  0.58340115  0.26425454  1
  P  P270  1  0.30634180  0.58372856  0.51391192  1
  P  P271  1  0.30441846  0.58429344  0.76420811  1
  P  P272  1  0.30561280  0.91726082  0.01451323  1
  P  P273  1  0.30541421  0.91542558  0.26426412  1
  P  P274  1  0.30670053  0.91667647  0.51415749  1
  P  P275  1  0.30449165  0.91658850  0.76409505  1
  P  P276  1  0.80522053  0.24954237  0.01385737  1
  P  P277  1  0.80203966  0.25059014  0.26483893  1
  P  P278  1  0.80294146  0.25156016  0.51503441  1
  P  P279  1  0.80409139  0.24911821  0.76540022  1
  P  P280  1  0.80439485  0.58376207  0.01645319  1
  P  P281  1  0.80392686  0.58294031  0.26398414  1
  P  P282  1  0.80453727  0.58328388  0.51320518  1
  P  P283  1  0.80279086  0.58484955  0.76543140  1
  P  P284  1  0.80319102  0.91707571  0.01524013  1
  P  P285  1  0.80374314  0.91707945  0.26580272  1
  P  P286  1  0.80443346  0.91542064  0.51383002  1
  P  P287  1  0.80136901  0.91610790  0.76430637  1
  O  O288  1  0.05671815  0.24982110  0.18719390  1
  O  O289  1  0.05911033  0.24998158  0.43794187  1
  O  O290  1  0.05728103  0.24914516  0.68572329  1
  O  O291  1  0.05614646  0.24989705  0.93684625  1
  O  O292  1  0.05964920  0.58351573  0.18777744  1
  O  O293  1  0.05697990  0.58343389  0.43667798  1
  O  O294  1  0.06030404  0.58460520  0.68762976  1
  O  O295  1  0.06003213  0.58301712  0.93719490  1
  O  O296  1  0.05636069  0.91649181  0.18689253  1
  O  O297  1  0.05656300  0.91593919  0.43716999  1
  O  O298  1  0.06054305  0.91665461  0.68786482  1
  O  O299  1  0.05791002  0.91661167  0.93555466  1
  O  O300  1  0.55957190  0.24981556  0.18800731  1
  O  O301  1  0.55596932  0.25030774  0.43588852  1
  O  O302  1  0.55593721  0.24952175  0.68718562  1
  O  O303  1  0.55526447  0.24962556  0.93717480  1
  O  O304  1  0.55775573  0.58308652  0.18844220  1
  O  O305  1  0.55622516  0.58297413  0.43603038  1
  O  O306  1  0.55503554  0.58395541  0.68683868  1
  O  O307  1  0.55524031  0.58339837  0.93711571  1
  O  O308  1  0.55546662  0.91688650  0.18683902  1
  O  O309  1  0.55508853  0.91669940  0.43704163  1
  O  O310  1  0.55804944  0.91671597  0.68834460  1
  O  O311  1  0.55578936  0.91682744  0.93599490  1
  O  O312  1  0.44141952  0.08358097  0.06209753  1
  O  O313  1  0.44315836  0.08390033  0.31364193  1
  O  O314  1  0.44101164  0.08367167  0.56281389  1
  O  O315  1  0.44070253  0.08322203  0.81249243  1
  O  O316  1  0.44047678  0.41697117  0.06305537  1
  O  O317  1  0.44250205  0.41647943  0.31146773  1
  O  O318  1  0.44366146  0.41641963  0.56317923  1
  O  O319  1  0.44256620  0.41665871  0.81434306  1
  O  O320  1  0.44330134  0.74922358  0.06388726  1
  O  O321  1  0.44169872  0.74956656  0.31220549  1
  O  O322  1  0.44218711  0.75005147  0.56251063  1
  O  O323  1  0.44072341  0.75014697  0.81174331  1
  O  O324  1  0.94160586  0.08314561  0.06301600  1
  O  O325  1  0.94060074  0.08370920  0.31222485  1
  O  O326  1  0.94381151  0.08281067  0.56398202  1
  O  O327  1  0.94026450  0.08243994  0.81220717  1
  O  O328  1  0.94371448  0.41705193  0.06445564  1
  O  O329  1  0.94049276  0.41701992  0.31248085  1
  O  O330  1  0.94120428  0.41690641  0.56203564  1
  O  O331  1  0.94531789  0.41709300  0.81350453  1
  O  O332  1  0.94494411  0.74933935  0.06331265  1
  O  O333  1  0.94335597  0.74944339  0.31405084  1
  O  O334  1  0.94022632  0.74984236  0.56328279  1
  O  O335  1  0.94073891  0.75063013  0.81182803  1
  O  O336  1  0.19145883  0.08323559  0.06280847  1
  O  O337  1  0.19337234  0.08267911  0.31107903  1
  O  O338  1  0.19260849  0.08284225  0.56253900  1
  O  O339  1  0.19430628  0.08289686  0.81133912  1
  O  O340  1  0.19382197  0.41677508  0.06169975  1
  O  O341  1  0.19179969  0.41762736  0.31322433  1
  O  O342  1  0.19342133  0.41692397  0.56088413  1
  O  O343  1  0.19210805  0.41630120  0.81280952  1
  O  O344  1  0.19157226  0.74978040  0.06312599  1
  O  O345  1  0.19437968  0.74968665  0.31165210  1
  O  O346  1  0.19499066  0.75017309  0.56134234  1
  O  O347  1  0.19536925  0.75021923  0.81151155  1
  O  O348  1  0.69367877  0.08324412  0.06129323  1
  O  O349  1  0.69367986  0.08320244  0.31204039  1
  O  O350  1  0.68978657  0.08295966  0.56281257  1
  O  O351  1  0.69325595  0.08306499  0.81128819  1
  O  O352  1  0.69073575  0.41763676  0.06293907  1
  O  O353  1  0.69065475  0.41733444  0.31230093  1
  O  O354  1  0.69296114  0.41744316  0.56065527  1
  O  O355  1  0.69314911  0.41714542  0.81226322  1
  O  O356  1  0.68956435  0.74996151  0.06328748  1
  O  O357  1  0.68962414  0.74985457  0.31283392  1
  O  O358  1  0.68972689  0.74974192  0.56186383  1
  O  O359  1  0.69269222  0.74984289  0.81105344  1
  O  O360  1  0.30716285  0.25059327  0.18890846  1
  O  O361  1  0.30864284  0.25049207  0.43695313  1
  O  O362  1  0.30617229  0.24989532  0.68881105  1
  O  O363  1  0.30812300  0.25010933  0.93752495  1
  O  O364  1  0.30888248  0.58328123  0.18751835  1
  O  O365  1  0.31059504  0.58304021  0.43712991  1
  O  O366  1  0.30898310  0.58347183  0.68749349  1
  O  O367  1  0.30824100  0.58312532  0.93815862  1
  O  O368  1  0.30904597  0.91604533  0.18747306  1
  O  O369  1  0.31031832  0.91650856  0.43727490  1
  O  O370  1  0.30881695  0.91654190  0.68733483  1
  O  O371  1  0.30915893  0.91657953  0.93765937  1
  O  O372  1  0.80553238  0.25062734  0.18813379  1
  O  O373  1  0.80592868  0.25070694  0.43823971  1
  O  O374  1  0.80682662  0.25010775  0.68861682  1
  O  O375  1  0.80953744  0.25062231  0.93714390  1
  O  O376  1  0.80904124  0.58406507  0.18744365  1
  O  O377  1  0.80824609  0.58352536  0.43636720  1
  O  O378  1  0.80567230  0.58384658  0.68862717  1
  O  O379  1  0.80797056  0.58367308  0.93968040  1
  O  O380  1  0.80679487  0.91603862  0.18899551  1
  O  O381  1  0.80869626  0.91586134  0.43712059  1
  O  O382  1  0.80491978  0.91627510  0.68760032  1
  O  O383  1  0.80621739  0.91593693  0.93850950  1
  O  O384  1  0.23482375  0.25079449  0.03919627  1
  O  O385  1  0.23453806  0.24990792  0.29063993  1
  O  O386  1  0.23323261  0.24991205  0.53739322  1
  O  O387  1  0.23401753  0.24907719  0.79111411  1
  O  O388  1  0.23377682  0.58268924  0.03880673  1
  O  O389  1  0.23451148  0.58380072  0.28839291  1
  O  O390  1  0.23624740  0.58303415  0.53787327  1
  O  O391  1  0.23410935  0.58384625  0.78801386  1
  O  O392  1  0.23557400  0.91649180  0.03878762  1
  O  O393  1  0.23552916  0.91634265  0.28896939  1
  O  O394  1  0.23668936  0.91646030  0.53837094  1
  O  O395  1  0.23429553  0.91663992  0.78845661  1
  O  O396  1  0.73522728  0.24998149  0.03806280  1
  O  O397  1  0.73203867  0.25067027  0.28975050  1
  O  O398  1  0.73336866  0.25104747  0.54034550  1
  O  O399  1  0.73444650  0.24952558  0.79094844  1
  O  O400  1  0.73449966  0.58366443  0.04095327  1
  O  O401  1  0.73332190  0.58303637  0.28724315  1
  O  O402  1  0.73477646  0.58332109  0.53792769  1
  O  O403  1  0.73328199  0.58437695  0.79115789  1
  O  O404  1  0.73363400  0.91743487  0.04079532  1
  O  O405  1  0.73396957  0.91641998  0.29089480  1
  O  O406  1  0.73431856  0.91612113  0.53769027  1
  O  O407  1  0.73142048  0.91637336  0.78941896  1
  O  O408  1  0.26615571  0.08339788  0.20955541  1
  O  O409  1  0.26752925  0.08300770  0.46210323  1
  O  O410  1  0.26813276  0.08291111  0.71015841  1
  O  O411  1  0.26718903  0.08306918  0.96289442  1
  O  O412  1  0.26751481  0.41759384  0.21314836  1
  O  O413  1  0.26589491  0.41697661  0.45913010  1
  O  O414  1  0.26555999  0.41670830  0.71119356  1
  O  O415  1  0.26749016  0.41719377  0.96048146  1
  O  O416  1  0.26799858  0.74883278  0.21030871  1
  O  O417  1  0.26974643  0.75032899  0.46091614  1
  O  O418  1  0.26888057  0.75025604  0.70998269  1
  O  O419  1  0.26545508  0.74949964  0.96215004  1
  O  O420  1  0.76794990  0.08396783  0.21094637  1
  O  O421  1  0.76500372  0.08354437  0.46281013  1
  O  O422  1  0.76700684  0.08287766  0.70987751  1
  O  O423  1  0.76803917  0.08286030  0.96049762  1
  O  O424  1  0.76569005  0.41717840  0.21201671  1
  O  O425  1  0.76694953  0.41728303  0.45956421  1
  O  O426  1  0.76666732  0.41702481  0.71075396  1
  O  O427  1  0.76574601  0.41724390  0.96258858  1
  O  O428  1  0.76426197  0.75000808  0.21237248  1
  O  O429  1  0.76545467  0.74931763  0.46202435  1
  O  O430  1  0.76621983  0.75031308  0.70943594  1
  O  O431  1  0.76480267  0.75018367  0.96308744  1
  O  O432  1  0.01648610  0.08281272  0.16361776  1
  O  O433  1  0.01504962  0.08247781  0.41299876  1
  O  O434  1  0.01802351  0.08353087  0.66495417  1
  O  O435  1  0.01479823  0.08305458  0.91284081  1
  O  O436  1  0.01592956  0.41729670  0.16638820  1
  O  O437  1  0.01600846  0.41763421  0.41262969  1
  O  O438  1  0.01599742  0.41639788  0.66235915  1
  O  O439  1  0.01870846  0.41647104  0.91545785  1
  O  O440  1  0.01846852  0.74970927  0.16490985  1
  O  O441  1  0.01562750  0.74922818  0.41650723  1
  O  O442  1  0.01528275  0.75034225  0.66339045  1
  O  O443  1  0.01610428  0.74959035  0.91182297  1
  O  O444  1  0.51528309  0.08292351  0.16344426  1
  O  O445  1  0.51517768  0.08321011  0.41606772  1
  O  O446  1  0.51573580  0.08304325  0.66344499  1
  O  O447  1  0.51404188  0.08299906  0.91415590  1
  O  O448  1  0.51583444  0.41714573  0.16285697  1
  O  O449  1  0.51726446  0.41702631  0.41227932  1
  O  O450  1  0.51575711  0.41707483  0.66574670  1
  O  O451  1  0.51461168  0.41686905  0.91695435  1
  O  O452  1  0.51647103  0.74980780  0.16533769  1
  O  O453  1  0.51623555  0.74947684  0.41303149  1
  O  O454  1  0.51583889  0.75037280  0.66381876  1
  O  O455  1  0.51409566  0.74985339  0.91346476  1
  O  O456  1  0.48492243  0.25047157  0.08764201  1
  O  O457  1  0.48256957  0.25034182  0.33439209  1
  O  O458  1  0.48330157  0.24992903  0.58507924  1
  O  O459  1  0.48085874  0.24990942  0.83631131  1
  O  O460  1  0.48249634  0.58363210  0.08809531  1
  O  O461  1  0.48286141  0.58325048  0.33498802  1
  O  O462  1  0.48179607  0.58407440  0.58504500  1
  O  O463  1  0.48061884  0.58330229  0.83657541  1
  O  O464  1  0.48150186  0.91556979  0.08559176  1
  O  O465  1  0.48127048  0.91657111  0.33598441  1
  O  O466  1  0.48304010  0.91607125  0.58798766  1
  O  O467  1  0.48176952  0.91706200  0.83522144  1
  O  O468  1  0.98386176  0.24989444  0.08545485  1
  O  O469  1  0.98463890  0.25047571  0.33713806  1
  O  O470  1  0.98499620  0.24923183  0.58345349  1
  O  O471  1  0.98252606  0.25031917  0.83518142  1
  O  O472  1  0.98468020  0.58323778  0.08723198  1
  O  O473  1  0.98291235  0.58379076  0.33583545  1
  O  O474  1  0.98499992  0.58347399  0.58762639  1
  O  O475  1  0.98629082  0.58310843  0.83594363  1
  O  O476  1  0.98431258  0.91592882  0.08417278  1
  O  O477  1  0.98204024  0.91585543  0.33629871  1
  O  O478  1  0.98523389  0.91699007  0.58780633  1
  O  O479  1  0.98469103  0.91705917  0.83422004  1
  O  O480  1  0.08795333  0.31413722  0.07814087  1
  O  O481  1  0.08788767  0.31628978  0.32845489  1
  O  O482  1  0.08949737  0.31298124  0.57635399  1
  O  O483  1  0.08634201  0.31578076  0.82780406  1
  O  O484  1  0.08817181  0.64933631  0.07788270  1
  O  O485  1  0.08756927  0.64760079  0.32713424  1
  O  O486  1  0.08825348  0.64907402  0.57719142  1
  O  O487  1  0.09063252  0.64663781  0.82687079  1
  O  O488  1  0.08759894  0.98185899  0.07779068  1
  O  O489  1  0.08596239  0.98068283  0.32744271  1
  O  O490  1  0.08839628  0.98306404  0.57819381  1
  O  O491  1  0.08898305  0.98166811  0.82647893  1
  O  O492  1  0.58821965  0.31614363  0.07863862  1
  O  O493  1  0.58669636  0.31570471  0.32668436  1
  O  O494  1  0.58726883  0.31423909  0.57802229  1
  O  O495  1  0.58471245  0.31493261  0.82780538  1
  O  O496  1  0.58596100  0.64872445  0.07859248  1
  O  O497  1  0.58696836  0.64832238  0.32698223  1
  O  O498  1  0.58541750  0.64960461  0.57762935  1
  O  O499  1  0.58439201  0.64819339  0.82730796  1
  O  O500  1  0.58509564  0.98074638  0.07688357  1
  O  O501  1  0.58508417  0.98115637  0.32726012  1
  O  O502  1  0.58629163  0.98171962  0.57820361  1
  O  O503  1  0.58592961  0.98177707  0.82649478  1
  O  O504  1  0.41182217  0.01737643  0.17126108  1
  O  O505  1  0.41085842  0.01907322  0.42261489  1
  O  O506  1  0.41223400  0.01736851  0.67243882  1
  O  O507  1  0.41013819  0.01814105  0.92186144  1
  O  O508  1  0.41187622  0.35277351  0.17341419  1
  O  O509  1  0.41390823  0.35135850  0.42157981  1
  O  O510  1  0.41173215  0.35264778  0.67244924  1
  O  O511  1  0.41087598  0.35147464  0.92337428  1
  O  O512  1  0.41249387  0.68468430  0.17337108  1
  O  O513  1  0.41257686  0.68441306  0.42197203  1
  O  O514  1  0.41207127  0.68493613  0.67214644  1
  O  O515  1  0.41035177  0.68524152  0.92154003  1
  O  O516  1  0.91239973  0.01816438  0.17278236  1
  O  O517  1  0.91146272  0.01736651  0.42165039  1
  O  O518  1  0.91394690  0.01839189  0.67385100  1
  O  O519  1  0.91071649  0.01902157  0.92254964  1
  O  O520  1  0.91151614  0.35317049  0.17393355  1
  O  O521  1  0.91204369  0.35325907  0.42294930  1
  O  O522  1  0.91263088  0.35132345  0.67176783  1
  O  O523  1  0.91478007  0.35112297  0.92243257  1
  O  O524  1  0.91490070  0.68374101  0.17279510  1
  O  O525  1  0.91151216  0.68425373  0.42283160  1
  O  O526  1  0.91156904  0.68518831  0.67344766  1
  O  O527  1  0.91243199  0.68522535  0.92182340  1
  O  O528  1  0.16244114  0.01771374  0.20178118  1
  O  O529  1  0.16393396  0.01845180  0.45224964  1
  O  O530  1  0.16458361  0.01704721  0.70178909  1
  O  O531  1  0.16363123  0.01837326  0.95253117  1
  O  O532  1  0.16394494  0.35297030  0.20295183  1
  O  O533  1  0.16210640  0.35105785  0.45199438  1
  O  O534  1  0.16180098  0.35222099  0.70317238  1
  O  O535  1  0.16331564  0.35273794  0.95183463  1
  O  O536  1  0.16376276  0.68385222  0.20263284  1
  O  O537  1  0.16608087  0.68503949  0.45174461  1
  O  O538  1  0.16502130  0.68535392  0.70204269  1
  O  O539  1  0.16243073  0.68359489  0.95362216  1
  O  O540  1  0.66421683  0.01886180  0.20230934  1
  O  O541  1  0.66168446  0.01832891  0.45245469  1
  O  O542  1  0.66292763  0.01738661  0.70203129  1
  O  O543  1  0.66386548  0.01830131  0.95194592  1
  O  O544  1  0.66189795  0.35199272  0.20248102  1
  O  O545  1  0.66275886  0.35230659  0.45121400  1
  O  O546  1  0.66296672  0.35178035  0.70314653  1
  O  O547  1  0.66223022  0.35216851  0.95304933  1
  O  O548  1  0.66093021  0.68384341  0.20308185  1
  O  O549  1  0.66152675  0.68475184  0.45177847  1
  O  O550  1  0.66202695  0.68575674  0.70132742  1
  O  O551  1  0.66138352  0.68507134  0.95306114  1
  O  O552  1  0.33848962  0.31547377  0.04688473  1
  O  O553  1  0.33796086  0.31626374  0.29821789  1
  O  O554  1  0.33663646  0.31479550  0.54716831  1
  O  O555  1  0.33813311  0.31366205  0.79824269  1
  O  O556  1  0.33772859  0.64707539  0.04845503  1
  O  O557  1  0.33862954  0.64838420  0.29715081  1
  O  O558  1  0.33957873  0.64902944  0.54681802  1
  O  O559  1  0.33752741  0.64947209  0.79727744  1
  O  O560  1  0.33899364  0.98246669  0.04725111  1
  O  O561  1  0.33975978  0.98012722  0.29736339  1
  O  O562  1  0.34020775  0.98181498  0.54711740  1
  O  O563  1  0.33796410  0.98171819  0.79708945  1
  O  O564  1  0.83887639  0.31435286  0.04742788  1
  O  O565  1  0.83592508  0.31579116  0.29732384  1
  O  O566  1  0.83692183  0.31691791  0.54677737  1
  O  O567  1  0.83876319  0.31380115  0.79833138  1
  O  O568  1  0.83844387  0.64874884  0.04920642  1
  O  O569  1  0.83718338  0.64776808  0.29801753  1
  O  O570  1  0.83823850  0.64836991  0.54619819  1
  O  O571  1  0.83677073  0.65026971  0.79711983  1
  O  O572  1  0.83778803  0.98219982  0.04689419  1
  O  O573  1  0.83768999  0.98235236  0.29771747  1
  O  O574  1  0.83822853  0.98023969  0.54721040  1
  O  O575  1  0.83560829  0.98113797  0.79664579  1
  O  O576  1  0.41170494  0.14754106  0.17211630  1
  O  O577  1  0.41175496  0.14932653  0.42270722  1
  O  O578  1  0.41156542  0.14732486  0.67298096  1
  O  O579  1  0.41034236  0.14830180  0.92228269  1
  O  O580  1  0.41221988  0.48271966  0.17302850  1
  O  O581  1  0.41332824  0.48149465  0.42106643  1
  O  O582  1  0.41217752  0.48274426  0.67170938  1
  O  O583  1  0.41057851  0.48164965  0.92332751  1
  O  O584  1  0.41227955  0.81463594  0.17282373  1
  O  O585  1  0.41257573  0.81459288  0.42229417  1
  O  O586  1  0.41176358  0.81490966  0.67232988  1
  O  O587  1  0.41089652  0.81548373  0.92120127  1
  O  O588  1  0.91283935  0.14811616  0.17322729  1
  O  O589  1  0.91171388  0.14772993  0.42240680  1
  O  O590  1  0.91372191  0.14819791  0.67304626  1
  O  O591  1  0.91157043  0.14921381  0.92164263  1
  O  O592  1  0.91213542  0.48313786  0.17316992  1
  O  O593  1  0.91250083  0.48341433  0.42209156  1
  O  O594  1  0.91261099  0.48142715  0.67245180  1
  O  O595  1  0.91487999  0.48118968  0.92309566  1
  O  O596  1  0.91402292  0.81355152  0.17273557  1
  O  O597  1  0.91162890  0.81444178  0.42312445  1
  O  O598  1  0.91135812  0.81504852  0.67322341  1
  O  O599  1  0.91295272  0.81540988  0.92206762  1
  O  O600  1  0.08716391  0.18378352  0.07795746  1
  O  O601  1  0.08834590  0.18589777  0.32802874  1
  O  O602  1  0.08858106  0.18288611  0.57705997  1
  O  O603  1  0.08634870  0.18566596  0.82729232  1
  O  O604  1  0.08888805  0.51929034  0.07767192  1
  O  O605  1  0.08662974  0.51776949  0.32697222  1
  O  O606  1  0.08873730  0.51899562  0.57783859  1
  O  O607  1  0.08946544  0.51651775  0.82805095  1
  O  O608  1  0.08841479  0.85140168  0.07825887  1
  O  O609  1  0.08588470  0.85068600  0.32777971  1
  O  O610  1  0.08898863  0.85278649  0.57744126  1
  O  O611  1  0.08866009  0.85177873  0.82600583  1
  O  O612  1  0.58844345  0.18569119  0.07775453  1
  O  O613  1  0.58672174  0.18571727  0.32644160  1
  O  O614  1  0.58660148  0.18389517  0.57813547  1
  O  O615  1  0.58465811  0.18486435  0.82756521  1
  O  O616  1  0.58598033  0.51846592  0.07819482  1
  O  O617  1  0.58703277  0.51831067  0.32648545  1
  O  O618  1  0.58577286  0.51949446  0.57738560  1
  O  O619  1  0.58437658  0.51820744  0.82752849  1
  O  O620  1  0.58522264  0.85047320  0.07791830  1
  O  O621  1  0.58500057  0.85110673  0.32782777  1
  O  O622  1  0.58672005  0.85143680  0.57838322  1
  O  O623  1  0.58564364  0.85183007  0.82638891  1
  O  O624  1  0.33822216  0.18516617  0.04711623  1
  O  O625  1  0.33894919  0.18627616  0.29818227  1
  O  O626  1  0.33674164  0.18463061  0.54677607  1
  O  O627  1  0.33781285  0.18357204  0.79734509  1
  O  O628  1  0.33746088  0.51719891  0.04789771  1
  O  O629  1  0.33830122  0.51846729  0.29766864  1
  O  O630  1  0.34014194  0.51895663  0.54729110  1
  O  O631  1  0.33783116  0.51934713  0.79789408  1
  O  O632  1  0.33950568  0.85246138  0.04764483  1
  O  O633  1  0.33878482  0.84998001  0.29673920  1
  O  O634  1  0.34058288  0.85169934  0.54708875  1
  O  O635  1  0.33800982  0.85157268  0.79724737  1
  O  O636  1  0.83843479  0.18401860  0.04642009  1
  O  O637  1  0.83606507  0.18565502  0.29749389  1
  O  O638  1  0.83728835  0.18660066  0.54756295  1
  O  O639  1  0.83819355  0.18365680  0.79688991  1
  O  O640  1  0.83866927  0.51882418  0.04897148  1
  O  O641  1  0.83716861  0.51779670  0.29715615  1
  O  O642  1  0.83827114  0.51806790  0.54592475  1
  O  O643  1  0.83743538  0.51997803  0.79796569  1
  O  O644  1  0.83705645  0.85204033  0.04827147  1
  O  O645  1  0.83828804  0.85212587  0.29829140  1
  O  O646  1  0.83741712  0.85003359  0.54674722  1
  O  O647  1  0.83513359  0.85099062  0.79700626  1
  O  O648  1  0.16186186  0.14773747  0.20191299  1
  O  O649  1  0.16392568  0.14853799  0.45274372  1
  O  O650  1  0.16370049  0.14699566  0.70176672  1
  O  O651  1  0.16388063  0.14840220  0.95253944  1
  O  O652  1  0.16408982  0.48310662  0.20330529  1
  O  O653  1  0.16163267  0.48108227  0.45139415  1
  O  O654  1  0.16240125  0.48261233  0.70349342  1
  O  O655  1  0.16366055  0.48267801  0.95256526  1
  O  O656  1  0.16402368  0.81383107  0.20191453  1
  O  O657  1  0.16583240  0.81503621  0.45163561  1
  O  O658  1  0.16523252  0.81549700  0.70212691  1
  O  O659  1  0.16189096  0.81381336  0.95287502  1
  O  O660  1  0.66408710  0.14909204  0.20279555  1
  O  O661  1  0.66146716  0.14845605  0.45298013  1
  O  O662  1  0.66261883  0.14742485  0.70191892  1
  O  O663  1  0.66447061  0.14825290  0.95149203  1
  O  O664  1  0.66177244  0.48220545  0.20222199  1
  O  O665  1  0.66290461  0.48208235  0.45095180  1
  O  O666  1  0.66297376  0.48208950  0.70274569  1
  O  O667  1  0.66218345  0.48230565  0.95296921  1
  O  O668  1  0.66004634  0.81397774  0.20275310  1
  O  O669  1  0.66166770  0.81459106  0.45161681  1
  O  O670  1  0.66221848  0.81574832  0.70191448  1
  O  O671  1  0.66122998  0.81515503  0.95325905  1
