# generated using pymatgen
data_Na2MnFe(PO4)2
_symmetry_space_group_name_H-M   'P 1'
_cell_length_a   21.07942028
_cell_length_b   18.93152201
_cell_length_c   20.03877119
_cell_angle_alpha   90.00019010
_cell_angle_beta   90.00376066
_cell_angle_gamma   90.00158186
_symmetry_Int_Tables_number   1
_chemical_formula_structural   Na2MnFe(PO4)2
_chemical_formula_sum   'Na96 Mn48 Fe48 P96 O384'
_cell_volume   7996.78240665
_cell_formula_units_Z   48
loop_
 _symmetry_equiv_pos_site_id
 _symmetry_equiv_pos_as_xyz
  1  'x, y, z'
loop_
 _atom_site_type_symbol
 _atom_site_label
 _atom_site_symmetry_multiplicity
 _atom_site_fract_x
 _atom_site_fract_y
 _atom_site_fract_z
 _atom_site_occupancy
  Na  Na0  1  -0.00220581  -0.00079472  0.00064933  1
  Na  Na1  1  0.00153953  0.00103107  0.24937114  1
  Na  Na2  1  -0.00253954  -0.00041414  0.49997906  1
  Na  Na3  1  -0.00293322  0.00005234  0.74926744  1
  Na  Na4  1  0.00011303  0.33327561  0.00019216  1
  Na  Na5  1  0.00136299  0.33360887  0.24903790  1
  Na  Na6  1  -0.00214925  0.33286067  0.50022271  1
  Na  Na7  1  -0.00275327  0.33313611  0.75068175  1
  Na  Na8  1  0.00005369  0.66717170  0.00023563  1
  Na  Na9  1  0.00068171  0.66724917  0.24921817  1
  Na  Na10  1  -0.00227009  0.66599805  0.50032388  1
  Na  Na11  1  -0.00153755  0.66677849  0.74935058  1
  Na  Na12  1  0.50068676  -0.00022401  0.00004659  1
  Na  Na13  1  0.50059699  0.00012539  0.25073068  1
  Na  Na14  1  0.50072277  0.00041293  0.50000775  1
  Na  Na15  1  0.49995809  -0.00023458  0.74951299  1
  Na  Na16  1  0.50036742  0.33334599  -0.00146752  1
  Na  Na17  1  0.49962504  0.33302643  0.25026437  1
  Na  Na18  1  0.49868858  0.33236838  0.50071107  1
  Na  Na19  1  0.50038478  0.33312962  0.75033575  1
  Na  Na20  1  0.50111840  0.66658381  -0.00070116  1
  Na  Na21  1  0.49982408  0.66561200  0.25094332  1
  Na  Na22  1  0.50241074  0.66663567  0.50105661  1
  Na  Na23  1  0.50205096  0.66630662  0.75030739  1
  Na  Na24  1  0.24991702  0.00015836  0.12405760  1
  Na  Na25  1  0.25074254  0.00058946  0.37507290  1
  Na  Na26  1  0.25205997  0.00062648  0.62565478  1
  Na  Na27  1  0.25188249  0.00090703  0.87626346  1
  Na  Na28  1  0.24891972  0.33264993  0.12546503  1
  Na  Na29  1  0.25093921  0.33311203  0.37527863  1
  Na  Na30  1  0.25106940  0.33351170  0.62407871  1
  Na  Na31  1  0.25163809  0.33396873  0.87433360  1
  Na  Na32  1  0.25009275  0.66654067  0.12511732  1
  Na  Na33  1  0.25076391  0.66662356  0.37430112  1
  Na  Na34  1  0.25056786  0.66639192  0.62449395  1
  Na  Na35  1  0.24981534  0.66631155  0.87549915  1
  Na  Na36  1  0.75021073  0.00029264  0.12547453  1
  Na  Na37  1  0.74770612  -0.00065736  0.37412089  1
  Na  Na38  1  0.74992229  0.00038553  0.62470738  1
  Na  Na39  1  0.75045363  -0.00033375  0.87522577  1
  Na  Na40  1  0.74907057  0.33269095  0.12470101  1
  Na  Na41  1  0.75081551  0.33352812  0.37559535  1
  Na  Na42  1  0.75072277  0.33301212  0.62420566  1
  Na  Na43  1  0.75035664  0.33324877  0.87562072  1
  Na  Na44  1  0.74877693  0.66674279  0.12591830  1
  Na  Na45  1  0.74910000  0.66627411  0.37458897  1
  Na  Na46  1  0.75032830  0.66666370  0.62496616  1
  Na  Na47  1  0.74884845  0.66598145  0.87521206  1
  Na  Na48  1  0.00122152  0.16663812  0.00074817  1
  Na  Na49  1  0.00096360  0.16672798  0.24894290  1
  Na  Na50  1  -0.00249192  0.16793452  0.50042772  1
  Na  Na51  1  -0.00257991  0.16765676  0.74998110  1
  Na  Na52  1  -0.00109145  0.49963306  -0.00072843  1
  Na  Na53  1  0.00136370  0.49867156  0.24937754  1
  Na  Na54  1  -0.00228587  0.49976595  0.50007076  1
  Na  Na55  1  -0.00224489  0.49941681  0.75023719  1
  Na  Na56  1  -0.00197365  0.83411365  0.00094784  1
  Na  Na57  1  0.00115595  0.83302768  0.24932961  1
  Na  Na58  1  -0.00185476  0.83377248  0.50002713  1
  Na  Na59  1  -0.00311267  0.83380476  0.74902322  1
  Na  Na60  1  0.49991758  0.16679518  -0.00108693  1
  Na  Na61  1  0.49760340  0.16759992  0.25097672  1
  Na  Na62  1  0.49916412  0.16693989  0.50047042  1
  Na  Na63  1  0.50012829  0.16724983  0.74967661  1
  Na  Na64  1  0.50004885  0.49962631  -0.00120120  1
  Na  Na65  1  0.49894935  0.50002637  0.25052405  1
  Na  Na66  1  0.49966754  0.50013613  0.50089089  1
  Na  Na67  1  0.50099188  0.49930306  0.75022745  1
  Na  Na68  1  0.50217050  0.83400955  0.00019989  1
  Na  Na69  1  0.50477210  0.83212170  0.25072729  1
  Na  Na70  1  0.50204027  0.83396882  0.50026256  1
  Na  Na71  1  0.50137208  0.83416724  0.75016732  1
  Na  Na72  1  0.24938960  0.16736098  0.12508838  1
  Na  Na73  1  0.25174229  0.16642616  0.37471418  1
  Na  Na74  1  0.25350709  0.16594402  0.62472647  1
  Na  Na75  1  0.25034966  0.16716111  0.87469510  1
  Na  Na76  1  0.25130116  0.49954101  0.12571732  1
  Na  Na77  1  0.25223110  0.49939524  0.37511725  1
  Na  Na78  1  0.25025098  0.49966660  0.62405753  1
  Na  Na79  1  0.25159750  0.49862700  0.87546837  1
  Na  Na80  1  0.24787207  0.83447948  0.12393866  1
  Na  Na81  1  0.24852842  0.83415914  0.37475988  1
  Na  Na82  1  0.25015624  0.83367645  0.62528821  1
  Na  Na83  1  0.25184402  0.83246217  0.87591191  1
  Na  Na84  1  0.74985531  0.16709315  0.12582000  1
  Na  Na85  1  0.75060668  0.16666052  0.37482050  1
  Na  Na86  1  0.75032805  0.16755605  0.62459370  1
  Na  Na87  1  0.75044756  0.16711106  0.87470696  1
  Na  Na88  1  0.74804219  0.49986096  0.12502365  1
  Na  Na89  1  0.74991159  0.49875501  0.37534915  1
  Na  Na90  1  0.74898883  0.49994327  0.62460948  1
  Na  Na91  1  0.74958625  0.49907405  0.87524650  1
  Na  Na92  1  0.74875478  0.83416995  0.12533187  1
  Na  Na93  1  0.74844728  0.83378724  0.37382184  1
  Na  Na94  1  0.74989795  0.83408926  0.62491864  1
  Na  Na95  1  0.75073646  0.83368320  0.87605371  1
  Mn  Mn96  1  0.35793722  0.08417284  0.00267213  1
  Mn  Mn97  1  0.39322706  0.58308644  0.62775371  1
  Mn  Mn98  1  0.14167264  0.91714981  0.99675057  1
  Mn  Mn99  1  0.14167076  0.58292203  0.74756162  1
  Mn  Mn100  1  0.14210858  0.25004750  0.74769495  1
  Mn  Mn101  1  0.39323467  0.91631838  0.12786904  1
  Mn  Mn102  1  0.10670569  0.74951542  0.62259869  1
  Mn  Mn103  1  0.60840723  0.41635462  0.87258691  1
  Mn  Mn104  1  0.14187566  0.58325785  0.49801539  1
  Mn  Mn105  1  0.60868329  0.08323822  0.87301817  1
  Mn  Mn106  1  0.64085746  0.58295714  0.24747265  1
  Mn  Mn107  1  0.85712175  0.74950238  0.75256895  1
  Mn  Mn108  1  0.14259963  0.24978107  0.49847389  1
  Mn  Mn109  1  0.39285334  0.91664990  0.62762136  1
  Mn  Mn110  1  0.35897471  0.75033726  0.50217849  1
  Mn  Mn111  1  0.60727430  0.41610521  0.37361841  1
  Mn  Mn112  1  0.89301139  0.24970541  0.12685871  1
  Mn  Mn113  1  0.14289779  0.58353626  0.24766782  1
  Mn  Mn114  1  0.60800587  0.08417806  0.62255367  1
  Mn  Mn115  1  0.85710289  0.74969016  0.25205673  1
  Mn  Mn116  1  0.35837475  0.75003565  0.75248735  1
  Mn  Mn117  1  0.64123132  0.24970734  0.24797049  1
  Mn  Mn118  1  0.10761232  0.74993561  0.37312262  1
  Mn  Mn119  1  0.39300330  0.91611291  0.37693082  1
  Mn  Mn120  1  0.39277441  0.58416560  0.87703790  1
  Mn  Mn121  1  0.14169050  0.91708432  0.49848678  1
  Mn  Mn122  1  0.10706425  0.41665562  0.87263229  1
  Mn  Mn123  1  0.10731109  0.08393948  0.62289322  1
  Mn  Mn124  1  0.89154386  0.58282043  0.37708431  1
  Mn  Mn125  1  0.35850308  0.74948285  0.00313929  1
  Mn  Mn126  1  0.10804899  0.08372158  0.37351787  1
  Mn  Mn127  1  0.39261224  0.24956536  0.87713726  1
  Mn  Mn128  1  0.89177658  0.91729066  0.37677767  1
  Mn  Mn129  1  0.85803370  0.08362318  0.25239916  1
  Mn  Mn130  1  0.10668768  0.75050706  0.87255003  1
  Mn  Mn131  1  0.10663546  0.08297114  0.87245491  1
  Mn  Mn132  1  0.35811286  0.41610033  0.25202791  1
  Mn  Mn133  1  0.60888748  0.75042368  0.87303053  1
  Mn  Mn134  1  0.60917830  0.74954388  0.62240749  1
  Mn  Mn135  1  0.60737740  0.08397597  0.12240607  1
  Mn  Mn136  1  0.10763948  0.41642307  0.37370705  1
  Mn  Mn137  1  0.85774717  0.41653225  0.25136483  1
  Mn  Mn138  1  0.89072282  0.58348298  0.87808297  1
  Mn  Mn139  1  0.89192411  0.58343267  0.12704329  1
  Mn  Mn140  1  0.85737329  0.08404276  0.75248349  1
  Mn  Mn141  1  0.35841657  0.75132908  0.25186287  1
  Mn  Mn142  1  0.14254403  0.58246894  0.99766951  1
  Mn  Mn143  1  0.14187221  0.91688176  0.74832700  1
  Fe  Fe144  1  0.39361459  0.58331445  0.12611495  1
  Fe  Fe145  1  0.85684378  0.41650201  0.50220452  1
  Fe  Fe146  1  0.64240707  0.58312628  0.99896079  1
  Fe  Fe147  1  0.35789847  0.08335754  0.75214864  1
  Fe  Fe148  1  0.89126793  0.58272584  0.62651805  1
  Fe  Fe149  1  0.60778598  0.41578703  0.62338016  1
  Fe  Fe150  1  0.89110653  0.91721740  0.87740824  1
  Fe  Fe151  1  0.85630862  0.41670097  0.75130947  1
  Fe  Fe152  1  0.39359367  0.25043393  0.62695560  1
  Fe  Fe153  1  0.39244022  0.25041258  0.12633467  1
  Fe  Fe154  1  0.89165891  0.24955796  0.87797518  1
  Fe  Fe155  1  0.60763673  0.74901514  0.12271093  1
  Fe  Fe156  1  0.64256086  0.91723304  0.24776663  1
  Fe  Fe157  1  0.64312537  0.91709893  0.74849556  1
  Fe  Fe158  1  0.35780205  0.41635389  0.00216602  1
  Fe  Fe159  1  0.35695473  0.08287375  0.25133728  1
  Fe  Fe160  1  0.10815020  0.41684803  0.12243531  1
  Fe  Fe161  1  0.64310717  0.58261394  0.74788303  1
  Fe  Fe162  1  0.64400404  0.91726859  0.99846414  1
  Fe  Fe163  1  0.39329897  0.58339933  0.37738049  1
  Fe  Fe164  1  0.60662878  0.41646821  0.12307635  1
  Fe  Fe165  1  0.39368469  0.91644199  0.87648698  1
  Fe  Fe166  1  0.85649251  0.75012388  0.50063654  1
  Fe  Fe167  1  0.64316177  0.91712630  0.49834613  1
  Fe  Fe168  1  0.35843233  0.08314417  0.50176991  1
  Fe  Fe169  1  0.64307598  0.24970680  0.49817716  1
  Fe  Fe170  1  0.60824796  0.74997960  0.37383192  1
  Fe  Fe171  1  0.85648781  0.08327876  0.50085267  1
  Fe  Fe172  1  0.14313067  0.25045939  0.99805300  1
  Fe  Fe173  1  0.39227135  0.25002775  0.37716781  1
  Fe  Fe174  1  0.64344038  0.25018074  0.74788069  1
  Fe  Fe175  1  0.85630010  0.41661747  0.00222934  1
  Fe  Fe176  1  0.35797167  0.41644773  0.50265125  1
  Fe  Fe177  1  0.10783581  0.08328039  0.12298371  1
  Fe  Fe178  1  0.85657634  0.74985901  0.00243739  1
  Fe  Fe179  1  0.89252660  0.25003846  0.37625266  1
  Fe  Fe180  1  0.85720892  0.08361424  0.00197764  1
  Fe  Fe181  1  0.89104713  0.91679713  0.62627136  1
  Fe  Fe182  1  0.89295208  0.91667287  0.12684165  1
  Fe  Fe183  1  0.89163654  0.25036665  0.62673046  1
  Fe  Fe184  1  0.10715394  0.74990071  0.12293714  1
  Fe  Fe185  1  0.10618346  0.41662981  0.62348553  1
  Fe  Fe186  1  0.64267091  0.24967529  0.99882566  1
  Fe  Fe187  1  0.14303792  0.24943385  0.24864143  1
  Fe  Fe188  1  0.60704775  0.08364190  0.37365324  1
  Fe  Fe189  1  0.64349938  0.58304803  0.49836386  1
  Fe  Fe190  1  0.35744907  0.41664245  0.75096342  1
  Fe  Fe191  1  0.14240369  0.91736356  0.24816127  1
  P  P192  1  0.05620918  0.24998579  0.11056668  1
  P  P193  1  0.05276353  0.25000968  0.35964697  1
  P  P194  1  0.05155482  0.25116946  0.61044596  1
  P  P195  1  0.05246317  0.25009716  0.86104117  1
  P  P196  1  0.05359528  0.58311855  0.10968852  1
  P  P197  1  0.05282645  0.58297078  0.35971031  1
  P  P198  1  0.05112008  0.58187627  0.61017908  1
  P  P199  1  0.05211359  0.58326202  0.85968521  1
  P  P200  1  0.05399604  0.91694905  0.11100282  1
  P  P201  1  0.05357427  0.91711526  0.35923862  1
  P  P202  1  0.05097714  0.91699338  0.61018778  1
  P  P203  1  0.05030591  0.91686798  0.85964586  1
  P  P204  1  0.55211426  0.25062964  0.10920879  1
  P  P205  1  0.55297726  0.24921329  0.36183630  1
  P  P206  1  0.55465282  0.25085556  0.61058630  1
  P  P207  1  0.55579230  0.24969767  0.86006810  1
  P  P208  1  0.55274195  0.58276550  0.10934181  1
  P  P209  1  0.55388033  0.58326275  0.36198197  1
  P  P210  1  0.55629526  0.58166500  0.61076634  1
  P  P211  1  0.55594689  0.58315064  0.86031759  1
  P  P212  1  0.55569393  0.91632351  0.11052646  1
  P  P213  1  0.55622280  0.91734263  0.36111442  1
  P  P214  1  0.55584950  0.91717900  0.61030975  1
  P  P215  1  0.55506603  0.91717974  0.86053306  1
  P  P216  1  0.44613509  0.08433922  0.14078504  1
  P  P217  1  0.44594062  0.08350964  0.38935088  1
  P  P218  1  0.44537828  0.08427785  0.63954420  1
  P  P219  1  0.44604829  0.08242259  0.88893182  1
  P  P220  1  0.44674066  0.41637601  0.13845204  1
  P  P221  1  0.44570152  0.41636589  0.39090253  1
  P  P222  1  0.44689377  0.41574777  0.63972999  1
  P  P223  1  0.44513116  0.41664568  0.88920323  1
  P  P224  1  0.44903794  0.74940893  0.14023613  1
  P  P225  1  0.44899542  0.74979940  0.39018712  1
  P  P226  1  0.44820267  0.74989153  0.64054868  1
  P  P227  1  0.44752230  0.75114195  0.89029348  1
  P  P228  1  0.94664570  0.08282455  0.13868125  1
  P  P229  1  0.94611344  0.08446216  0.39038225  1
  P  P230  1  0.94414093  0.08379985  0.63840647  1
  P  P231  1  0.94504223  0.08374996  0.89099069  1
  P  P232  1  0.94690640  0.41642252  0.13842009  1
  P  P233  1  0.94552624  0.41550903  0.39040186  1
  P  P234  1  0.94452614  0.41655848  0.63945865  1
  P  P235  1  0.94353908  0.41561053  0.88973380  1
  P  P236  1  0.94599628  0.75073316  0.13879507  1
  P  P237  1  0.94565877  0.75016166  0.39042781  1
  P  P238  1  0.94359466  0.74968612  0.63822499  1
  P  P239  1  0.94480883  0.75080563  0.89110064  1
  P  P240  1  0.19702607  0.08352344  0.23472270  1
  P  P241  1  0.19848863  0.08381808  0.48535819  1
  P  P242  1  0.19793743  0.08348359  0.73514569  1
  P  P243  1  0.19525584  0.08470215  0.98574520  1
  P  P244  1  0.19616831  0.41585699  0.23499341  1
  P  P245  1  0.19700275  0.41635112  0.48623648  1
  P  P246  1  0.19701699  0.41629619  0.73394965  1
  P  P247  1  0.19698431  0.41566192  0.98584222  1
  P  P248  1  0.19616316  0.75099237  0.23414983  1
  P  P249  1  0.19705316  0.74990714  0.48489645  1
  P  P250  1  0.19671832  0.75009822  0.73482236  1
  P  P251  1  0.19546960  0.74970499  0.98573570  1
  P  P252  1  0.69523466  0.08328725  0.23605853  1
  P  P253  1  0.69691803  0.08405254  0.48449812  1
  P  P254  1  0.69673168  0.08376913  0.73496746  1
  P  P255  1  0.69800603  0.08352587  0.98547726  1
  P  P256  1  0.69527959  0.41596080  0.23424231  1
  P  P257  1  0.69650656  0.41595641  0.48663969  1
  P  P258  1  0.69714118  0.41587309  0.73440569  1
  P  P259  1  0.69576807  0.41623118  0.98656734  1
  P  P260  1  0.69407418  0.75061089  0.23541366  1
  P  P261  1  0.69743316  0.75000367  0.48453816  1
  P  P262  1  0.69673484  0.75031536  0.73527650  1
  P  P263  1  0.69657760  0.75009952  0.98686749  1
  P  P264  1  0.30324216  0.25094501  0.01556880  1
  P  P265  1  0.30427594  0.24915772  0.26418333  1
  P  P266  1  0.30611104  0.24990971  0.51437740  1
  P  P267  1  0.30508023  0.25036495  0.76340350  1
  P  P268  1  0.30454393  0.58221533  0.01585273  1
  P  P269  1  0.30617966  0.58367637  0.26439728  1
  P  P270  1  0.30529238  0.58282962  0.51400208  1
  P  P271  1  0.30335181  0.58214195  0.76503448  1
  P  P272  1  0.30485986  0.91670328  0.01424848  1
  P  P273  1  0.30227162  0.91752060  0.26457986  1
  P  P274  1  0.30384265  0.91739124  0.51508465  1
  P  P275  1  0.30423964  0.91749262  0.76626016  1
  P  P276  1  0.80315191  0.24975426  0.01426145  1
  P  P277  1  0.80372343  0.25031411  0.26549962  1
  P  P278  1  0.80401151  0.24962353  0.51377750  1
  P  P279  1  0.80389069  0.25118096  0.76443110  1
  P  P280  1  0.80151763  0.58309852  0.01539310  1
  P  P281  1  0.80229133  0.58280578  0.26495584  1
  P  P282  1  0.80258515  0.58313262  0.51496585  1
  P  P283  1  0.80269358  0.58203884  0.76382363  1
  P  P284  1  0.80424274  0.91707314  0.01500532  1
  P  P285  1  0.80315329  0.91670472  0.26356368  1
  P  P286  1  0.80226603  0.91708550  0.51436529  1
  P  P287  1  0.80352843  0.91692465  0.76458181  1
  O  O288  1  0.06000698  0.24991782  0.18738114  1
  O  O289  1  0.05655457  0.24995052  0.43640391  1
  O  O290  1  0.05545018  0.25048031  0.68714764  1
  O  O291  1  0.05812910  0.25043934  0.93763555  1
  O  O292  1  0.05671099  0.58293152  0.18648060  1
  O  O293  1  0.05571667  0.58293885  0.43653678  1
  O  O294  1  0.05491219  0.58247204  0.68688339  1
  O  O295  1  0.05610227  0.58295495  0.93643265  1
  O  O296  1  0.05870563  0.91722251  0.18769802  1
  O  O297  1  0.05627611  0.91723829  0.43608569  1
  O  O298  1  0.05505533  0.91717947  0.68687341  1
  O  O299  1  0.05477077  0.91690870  0.93636353  1
  O  O300  1  0.55539210  0.24990099  0.18598298  1
  O  O301  1  0.55829693  0.24954211  0.43846649  1
  O  O302  1  0.55946207  0.25030221  0.68729122  1
  O  O303  1  0.56025318  0.24958238  0.93685389  1
  O  O304  1  0.55546124  0.58260628  0.18616269  1
  O  O305  1  0.55924998  0.58278303  0.43865175  1
  O  O306  1  0.56037125  0.58239826  0.68763454  1
  O  O307  1  0.56014652  0.58300863  0.93713094  1
  O  O308  1  0.55921694  0.91743211  0.18736666  1
  O  O309  1  0.56008000  0.91745955  0.43799682  1
  O  O310  1  0.56014519  0.91728920  0.68711368  1
  O  O311  1  0.56036180  0.91749421  0.93724466  1
  O  O312  1  0.44354947  0.08349543  0.06392643  1
  O  O313  1  0.44105035  0.08290719  0.31266921  1
  O  O314  1  0.44180047  0.08321472  0.56271718  1
  O  O315  1  0.44218189  0.08327823  0.81215524  1
  O  O316  1  0.44262213  0.41608773  0.06176336  1
  O  O317  1  0.44324386  0.41605078  0.31397944  1
  O  O318  1  0.44225794  0.41650854  0.56303251  1
  O  O319  1  0.44099109  0.41655708  0.81246755  1
  O  O320  1  0.44525290  0.75047210  0.06353672  1
  O  O321  1  0.44501684  0.75053194  0.31350001  1
  O  O322  1  0.44501170  0.74999011  0.56375002  1
  O  O323  1  0.44448889  0.75041398  0.81350551  1
  O  O324  1  0.94133437  0.08357422  0.06206703  1
  O  O325  1  0.94378884  0.08367048  0.31352275  1
  O  O326  1  0.94007031  0.08358872  0.56167336  1
  O  O327  1  0.94229344  0.08404742  0.81413180  1
  O  O328  1  0.94088229  0.41650043  0.06179906  1
  O  O329  1  0.94319075  0.41632650  0.31357982  1
  O  O330  1  0.94002031  0.41658966  0.56268226  1
  O  O331  1  0.93928555  0.41645271  0.81293956  1
  O  O332  1  0.94048450  0.74991012  0.06215691  1
  O  O333  1  0.94285322  0.75018850  0.31358242  1
  O  O334  1  0.93946292  0.74985258  0.56145922  1
  O  O335  1  0.94192118  0.74974336  0.81421289  1
  O  O336  1  0.19107768  0.08344270  0.06251258  1
  O  O337  1  0.19390847  0.08355745  0.31147627  1
  O  O338  1  0.19407554  0.08401999  0.56204427  1
  O  O339  1  0.19344256  0.08359672  0.81186511  1
  O  O340  1  0.19213350  0.41665030  0.06252480  1
  O  O341  1  0.19340225  0.41661745  0.31180727  1
  O  O342  1  0.19112307  0.41645416  0.56280496  1
  O  O343  1  0.19295952  0.41616823  0.81072583  1
  O  O344  1  0.19045154  0.75006543  0.06248729  1
  O  O345  1  0.19327197  0.75006481  0.31097358  1
  O  O346  1  0.19323251  0.74959599  0.56169723  1
  O  O347  1  0.19323133  0.75012724  0.81164627  1
  O  O348  1  0.69432085  0.08376485  0.06216573  1
  O  O349  1  0.69093514  0.08417224  0.31276714  1
  O  O350  1  0.69377475  0.08447409  0.56123227  1
  O  O351  1  0.69432620  0.08351870  0.81173840  1
  O  O352  1  0.69084608  0.41607091  0.06320649  1
  O  O353  1  0.69219783  0.41588466  0.31107161  1
  O  O354  1  0.69211377  0.41563428  0.56325757  1
  O  O355  1  0.69418081  0.41578766  0.81118311  1
  O  O356  1  0.69209577  0.74977909  0.06358242  1
  O  O357  1  0.69036405  0.74948598  0.31226186  1
  O  O358  1  0.69456952  0.74999820  0.56129806  1
  O  O359  1  0.69452477  0.75051389  0.81211844  1
  O  O360  1  0.30877032  0.25029371  0.18751102  1
  O  O361  1  0.30944458  0.25001122  0.43744728  1
  O  O362  1  0.30905848  0.25043492  0.68666492  1
  O  O363  1  0.30702416  0.25017401  0.93880680  1
  O  O364  1  0.31074406  0.58367644  0.18763144  1
  O  O365  1  0.30963939  0.58369339  0.43718155  1
  O  O366  1  0.30658325  0.58285503  0.68823387  1
  O  O367  1  0.30743392  0.58327100  0.93904825  1
  O  O368  1  0.30640228  0.91654511  0.18790125  1
  O  O369  1  0.30695496  0.91664919  0.43828904  1
  O  O370  1  0.30723751  0.91662306  0.68942196  1
  O  O371  1  0.30985128  0.91635450  0.93758848  1
  O  O372  1  0.80742900  0.25013150  0.18870656  1
  O  O373  1  0.80831403  0.24994253  0.43713509  1
  O  O374  1  0.80822761  0.25036909  0.68768284  1
  O  O375  1  0.80719618  0.24968433  0.93752309  1
  O  O376  1  0.80579982  0.58294553  0.18818124  1
  O  O377  1  0.80568817  0.58274650  0.43822875  1
  O  O378  1  0.80720026  0.58266393  0.68716496  1
  O  O379  1  0.80471900  0.58310902  0.93862991  1
  O  O380  1  0.80844774  0.91694535  0.18691374  1
  O  O381  1  0.80537671  0.91701077  0.43762535  1
  O  O382  1  0.80796634  0.91707169  0.68784190  1
  O  O383  1  0.80803474  0.91699326  0.93817956  1
  O  O384  1  0.23318567  0.25030291  0.03987171  1
  O  O385  1  0.23388806  0.24957497  0.28807739  1
  O  O386  1  0.23613179  0.24982050  0.53898083  1
  O  O387  1  0.23519646  0.25042886  0.78822916  1
  O  O388  1  0.23483365  0.58276925  0.04093309  1
  O  O389  1  0.23594056  0.58320803  0.28805214  1
  O  O390  1  0.23526717  0.58298065  0.53820068  1
  O  O391  1  0.23380130  0.58224514  0.79059194  1
  O  O392  1  0.23454987  0.91722059  0.03749799  1
  O  O393  1  0.23219105  0.91754827  0.28897597  1
  O  O394  1  0.23425034  0.91736323  0.54059368  1
  O  O395  1  0.23455184  0.91692018  0.79163178  1
  O  O396  1  0.73292135  0.24988750  0.03863503  1
  O  O397  1  0.73384190  0.25021350  0.28995545  1
  O  O398  1  0.73359795  0.24995684  0.53777165  1
  O  O399  1  0.73353408  0.25024944  0.78818282  1
  O  O400  1  0.73152341  0.58313507  0.04033813  1
  O  O401  1  0.73256402  0.58252940  0.28982001  1
  O  O402  1  0.73245212  0.58317576  0.53967149  1
  O  O403  1  0.73245964  0.58215714  0.78799529  1
  O  O404  1  0.73384946  0.91713749  0.03894269  1
  O  O405  1  0.73276599  0.91651722  0.28691348  1
  O  O406  1  0.73212602  0.91742146  0.53917367  1
  O  O407  1  0.73321479  0.91698077  0.78843754  1
  O  O408  1  0.26706980  0.08358429  0.20975655  1
  O  O409  1  0.26858730  0.08390508  0.46107471  1
  O  O410  1  0.26817983  0.08351280  0.71130085  1
  O  O411  1  0.26536375  0.08458788  0.96186243  1
  O  O412  1  0.26607334  0.41613794  0.21018199  1
  O  O413  1  0.26748579  0.41596859  0.46304928  1
  O  O414  1  0.26726177  0.41633803  0.70991853  1
  O  O415  1  0.26730488  0.41595019  0.96216081  1
  O  O416  1  0.26596005  0.75061265  0.20899170  1
  O  O417  1  0.26678844  0.75024202  0.45992787  1
  O  O418  1  0.26652762  0.75008556  0.70999062  1
  O  O419  1  0.26577089  0.74925615  0.96251026  1
  O  O420  1  0.76525345  0.08384528  0.21182456  1
  O  O421  1  0.76696681  0.08348105  0.45965293  1
  O  O422  1  0.76622098  0.08410380  0.70929014  1
  O  O423  1  0.76792017  0.08325378  0.96052914  1
  O  O424  1  0.76501034  0.41610207  0.20925646  1
  O  O425  1  0.76687376  0.41595851  0.46268749  1
  O  O426  1  0.76709740  0.41614507  0.70940556  1
  O  O427  1  0.76609225  0.41622991  0.96266511  1
  O  O428  1  0.76411180  0.75037647  0.21118131  1
  O  O429  1  0.76741285  0.74992350  0.45938386  1
  O  O430  1  0.76614426  0.75029297  0.70938129  1
  O  O431  1  0.76679683  0.75022320  0.96261309  1
  O  O432  1  0.01710241  0.08355383  0.16204732  1
  O  O433  1  0.01560883  0.08382179  0.41616139  1
  O  O434  1  0.01398460  0.08410656  0.66336040  1
  O  O435  1  0.01467157  0.08330838  0.91629352  1
  O  O436  1  0.01744008  0.41603127  0.16127186  1
  O  O437  1  0.01510983  0.41618738  0.41602014  1
  O  O438  1  0.01478245  0.41633376  0.66363986  1
  O  O439  1  0.01374164  0.41624919  0.91350324  1
  O  O440  1  0.01646898  0.75042736  0.16203695  1
  O  O441  1  0.01525406  0.75006559  0.41579619  1
  O  O442  1  0.01351826  0.74979917  0.66291065  1
  O  O443  1  0.01448341  0.75051200  0.91623221  1
  O  O444  1  0.51579802  0.08398900  0.16605887  1
  O  O445  1  0.51634840  0.08335460  0.41315288  1
  O  O446  1  0.51545002  0.08388493  0.66376117  1
  O  O447  1  0.51597189  0.08309939  0.91351753  1
  O  O448  1  0.51684309  0.41652246  0.16323734  1
  O  O449  1  0.51538069  0.41615240  0.41624537  1
  O  O450  1  0.51726702  0.41594768  0.66348016  1
  O  O451  1  0.51539642  0.41641604  0.91275386  1
  O  O452  1  0.51908310  0.74908161  0.16483414  1
  O  O453  1  0.51913165  0.75045639  0.41476105  1
  O  O454  1  0.51794157  0.74983419  0.66547092  1
  O  O455  1  0.51725543  0.75059879  0.91533436  1
  O  O456  1  0.48214109  0.25002298  0.08430359  1
  O  O457  1  0.48252274  0.25004790  0.33834719  1
  O  O458  1  0.48418851  0.25013430  0.58728722  1
  O  O459  1  0.48558487  0.24997857  0.83656827  1
  O  O460  1  0.48284424  0.58300515  0.08413806  1
  O  O461  1  0.48351295  0.58275629  0.33834301  1
  O  O462  1  0.48619251  0.58281291  0.58695670  1
  O  O463  1  0.48586441  0.58306369  0.83640287  1
  O  O464  1  0.48568893  0.91712406  0.08619468  1
  O  O465  1  0.48618191  0.91662913  0.33667360  1
  O  O466  1  0.48574158  0.91727479  0.58647708  1
  O  O467  1  0.48472063  0.91698943  0.83705216  1
  O  O468  1  0.98603427  0.25003964  0.08644340  1
  O  O469  1  0.98272199  0.25009292  0.33497019  1
  O  O470  1  0.98138587  0.25090632  0.58620545  1
  O  O471  1  0.98191537  0.25002870  0.83800409  1
  O  O472  1  0.98385001  0.58315332  0.08444236  1
  O  O473  1  0.98326194  0.58285784  0.33415667  1
  O  O474  1  0.98099449  0.58226014  0.58574550  1
  O  O475  1  0.98214641  0.58316959  0.83538515  1
  O  O476  1  0.98354795  0.91677024  0.08730973  1
  O  O477  1  0.98388253  0.91716548  0.33396675  1
  O  O478  1  0.98075755  0.91676291  0.58593875  1
  O  O479  1  0.98007702  0.91715447  0.83573435  1
  O  O480  1  0.08981094  0.31501795  0.07731001  1
  O  O481  1  0.08701208  0.31488496  0.32700562  1
  O  O482  1  0.08522039  0.31635107  0.57776178  1
  O  O483  1  0.08554330  0.31509525  0.82726390  1
  O  O484  1  0.08752874  0.64840423  0.07753237  1
  O  O485  1  0.08706944  0.64807087  0.32749279  1
  O  O486  1  0.08510964  0.64682192  0.57725269  1
  O  O487  1  0.08573844  0.64844852  0.82705520  1
  O  O488  1  0.08699010  0.98215521  0.07748997  1
  O  O489  1  0.08796076  0.98219858  0.32697545  1
  O  O490  1  0.08456517  0.98216275  0.57727997  1
  O  O491  1  0.08407099  0.98190382  0.82675530  1
  O  O492  1  0.58609645  0.31571016  0.07669639  1
  O  O493  1  0.58635538  0.31412874  0.32828156  1
  O  O494  1  0.58772616  0.31594877  0.57710812  1
  O  O495  1  0.58935368  0.31469405  0.82682920  1
  O  O496  1  0.58718694  0.64774838  0.07698001  1
  O  O497  1  0.58684898  0.64842435  0.32864458  1
  O  O498  1  0.59057696  0.64630388  0.57744917  1
  O  O499  1  0.58967415  0.64815147  0.82741098  1
  O  O500  1  0.58980089  0.98104574  0.07711429  1
  O  O501  1  0.58935086  0.98274015  0.32805329  1
  O  O502  1  0.58945970  0.98212841  0.57701729  1
  O  O503  1  0.58836853  0.98205698  0.82674924  1
  O  O504  1  0.41165350  0.01951324  0.17357911  1
  O  O505  1  0.41265829  0.01847441  0.42296231  1
  O  O506  1  0.41144962  0.01956601  0.67297106  1
  O  O507  1  0.41267834  0.01727498  0.92178514  1
  O  O508  1  0.41328550  0.35122809  0.17174425  1
  O  O509  1  0.41124973  0.35141612  0.42316682  1
  O  O510  1  0.41345703  0.35058334  0.67272285  1
  O  O511  1  0.41157513  0.35169369  0.92262082  1
  O  O512  1  0.41495063  0.68434987  0.17236433  1
  O  O513  1  0.41555788  0.68460839  0.42289546  1
  O  O514  1  0.41421804  0.68478086  0.67298133  1
  O  O515  1  0.41336269  0.68602861  0.92274792  1
  O  O516  1  0.91371242  0.01759308  0.17205545  1
  O  O517  1  0.91105040  0.01974153  0.42265587  1
  O  O518  1  0.91043864  0.01866714  0.67130454  1
  O  O519  1  0.91040597  0.01875470  0.92303960  1
  O  O520  1  0.91376991  0.35142085  0.17202823  1
  O  O521  1  0.91155184  0.35012776  0.42244049  1
  O  O522  1  0.91080393  0.35151431  0.67254658  1
  O  O523  1  0.91028907  0.35030005  0.92274085  1
  O  O524  1  0.91276443  0.68574058  0.17246620  1
  O  O525  1  0.91105882  0.68524933  0.42269017  1
  O  O526  1  0.91021310  0.68428071  0.67114073  1
  O  O527  1  0.91027893  0.68593255  0.92381600  1
  O  O528  1  0.16286517  0.01859813  0.20188505  1
  O  O529  1  0.16464444  0.01878668  0.45264683  1
  O  O530  1  0.16422663  0.01839422  0.70232192  1
  O  O531  1  0.16174431  0.01979918  0.95214332  1
  O  O532  1  0.16225348  0.35059992  0.20288610  1
  O  O533  1  0.16383524  0.35120254  0.45277981  1
  O  O534  1  0.16314104  0.35131004  0.70098523  1
  O  O535  1  0.16374565  0.35040126  0.95268251  1
  O  O536  1  0.16167856  0.68606742  0.20151630  1
  O  O537  1  0.16324672  0.68473210  0.45221395  1
  O  O538  1  0.16270625  0.68492418  0.70231180  1
  O  O539  1  0.16199344  0.68465208  0.95263853  1
  O  O540  1  0.66204277  0.01796894  0.20317205  1
  O  O541  1  0.66257528  0.01914216  0.45212799  1
  O  O542  1  0.66267069  0.01866799  0.70267333  1
  O  O543  1  0.66409234  0.01837314  0.95287849  1
  O  O544  1  0.66102914  0.35101561  0.20169715  1
  O  O545  1  0.66314391  0.35098412  0.45308237  1
  O  O546  1  0.66327564  0.35074100  0.70166096  1
  O  O547  1  0.66260421  0.35113683  0.95304717  1
  O  O548  1  0.66027953  0.68562041  0.20214970  1
  O  O549  1  0.66326571  0.68489164  0.45214780  1
  O  O550  1  0.66264364  0.68501631  0.70330557  1
  O  O551  1  0.66311148  0.68510101  0.95369151  1
  O  O552  1  0.33700299  0.31609285  0.04830509  1
  O  O553  1  0.33799707  0.31392228  0.29791051  1
  O  O554  1  0.33997404  0.31497319  0.54735253  1
  O  O555  1  0.33877615  0.31553810  0.79622186  1
  O  O556  1  0.33927193  0.64682641  0.04876745  1
  O  O557  1  0.33956288  0.64878262  0.29769582  1
  O  O558  1  0.33907492  0.64766484  0.54734985  1
  O  O559  1  0.33765455  0.64718207  0.79761681  1
  O  O560  1  0.33832794  0.98177459  0.04740175  1
  O  O561  1  0.33620815  0.98267093  0.29697148  1
  O  O562  1  0.33812202  0.98263921  0.54701061  1
  O  O563  1  0.33835709  0.98290092  0.79814674  1
  O  O564  1  0.83672969  0.31481967  0.04730665  1
  O  O565  1  0.83771557  0.31534826  0.29805453  1
  O  O566  1  0.83765339  0.31445303  0.54744409  1
  O  O567  1  0.83680058  0.31647825  0.79746833  1
  O  O568  1  0.83543306  0.64818610  0.04794463  1
  O  O569  1  0.83609759  0.64798740  0.29738002  1
  O  O570  1  0.83639225  0.64828063  0.54744569  1
  O  O571  1  0.83590252  0.64706274  0.79738894  1
  O  O572  1  0.83778537  0.98220088  0.04803751  1
  O  O573  1  0.83615011  0.98176108  0.29715984  1
  O  O574  1  0.83621164  0.98216782  0.54701663  1
  O  O575  1  0.83697856  0.98193179  0.79790046  1
  O  O576  1  0.41195359  0.14965803  0.17257322  1
  O  O577  1  0.41252591  0.14857394  0.42254279  1
  O  O578  1  0.41195087  0.14966765  0.67208693  1
  O  O579  1  0.41218552  0.14745003  0.92202402  1
  O  O580  1  0.41318922  0.48145901  0.17146818  1
  O  O581  1  0.41161490  0.48152628  0.42313571  1
  O  O582  1  0.41333486  0.48058335  0.67335901  1
  O  O583  1  0.41175347  0.48160674  0.92254812  1
  O  O584  1  0.41566847  0.81460178  0.17357359  1
  O  O585  1  0.41512561  0.81485003  0.42302619  1
  O  O586  1  0.41422907  0.81501288  0.67289670  1
  O  O587  1  0.41379504  0.81632842  0.92270716  1
  O  O588  1  0.91323720  0.14774061  0.17226556  1
  O  O589  1  0.91185340  0.14973137  0.42219631  1
  O  O590  1  0.91044767  0.14906866  0.67124774  1
  O  O591  1  0.91097365  0.14891542  0.92356710  1
  O  O592  1  0.91401028  0.48149329  0.17215018  1
  O  O593  1  0.91055816  0.48010314  0.42306802  1
  O  O594  1  0.91092354  0.48166089  0.67261310  1
  O  O595  1  0.90951388  0.48035914  0.92319532  1
  O  O596  1  0.91301497  0.81597883  0.17207940  1
  O  O597  1  0.91126021  0.81522008  0.42267476  1
  O  O598  1  0.90992507  0.81484474  0.67111183  1
  O  O599  1  0.91061859  0.81605565  0.92297407  1
  O  O600  1  0.08966197  0.18481248  0.07756044  1
  O  O601  1  0.08682231  0.18495274  0.32694426  1
  O  O602  1  0.08539429  0.18621087  0.57735296  1
  O  O603  1  0.08547186  0.18498483  0.82739810  1
  O  O604  1  0.08759213  0.51791635  0.07714201  1
  O  O605  1  0.08725490  0.51792726  0.32763861  1
  O  O606  1  0.08482399  0.51660180  0.57761612  1
  O  O607  1  0.08587672  0.51808194  0.82702185  1
  O  O608  1  0.08718804  0.85183734  0.07765095  1
  O  O609  1  0.08796118  0.85216213  0.32692050  1
  O  O610  1  0.08478008  0.85195755  0.57742599  1
  O  O611  1  0.08377404  0.85173090  0.82676064  1
  O  O612  1  0.58660276  0.18583360  0.07630922  1
  O  O613  1  0.58567302  0.18403245  0.32815609  1
  O  O614  1  0.58824005  0.18607370  0.57681605  1
  O  O615  1  0.58922991  0.18478174  0.82670376  1
  O  O616  1  0.58675989  0.51771530  0.07673575  1
  O  O617  1  0.58694365  0.51817784  0.32833470  1
  O  O618  1  0.58922162  0.51622816  0.57783949  1
  O  O619  1  0.58957840  0.51814737  0.82712820  1
  O  O620  1  0.58911940  0.85092176  0.07804871  1
  O  O621  1  0.59041543  0.85247388  0.32843086  1
  O  O622  1  0.58956209  0.85220696  0.57716756  1
  O  O623  1  0.58860575  0.85217789  0.82729156  1
  O  O624  1  0.33753008  0.18625525  0.04867727  1
  O  O625  1  0.33762202  0.18385799  0.29703613  1
  O  O626  1  0.34016637  0.18488670  0.54693675  1
  O  O627  1  0.33875335  0.18520449  0.79645133  1
  O  O628  1  0.33843680  0.51673632  0.04781924  1
  O  O629  1  0.33983516  0.51860465  0.29747532  1
  O  O630  1  0.33880513  0.51746671  0.54673420  1
  O  O631  1  0.33758687  0.51684728  0.79684469  1
  O  O632  1  0.33788971  0.85164462  0.04806160  1
  O  O633  1  0.33612075  0.85257733  0.29781432  1
  O  O634  1  0.33811457  0.85243403  0.54772914  1
  O  O635  1  0.33910532  0.85273987  0.79876938  1
  O  O636  1  0.83655998  0.18461858  0.04741228  1
  O  O637  1  0.83802201  0.18546977  0.29818748  1
  O  O638  1  0.83702891  0.18432304  0.54702871  1
  O  O639  1  0.83782903  0.18651888  0.79802559  1
  O  O640  1  0.83538982  0.51791754  0.04787233  1
  O  O641  1  0.83640144  0.51774195  0.29723947  1
  O  O642  1  0.83647293  0.51811485  0.54791927  1
  O  O643  1  0.83592308  0.51688101  0.79683653  1
  O  O644  1  0.83761904  0.85197839  0.04825437  1
  O  O645  1  0.83631023  0.85170988  0.29695751  1
  O  O646  1  0.83586589  0.85194793  0.54716507  1
  O  O647  1  0.83694082  0.85199108  0.79795272  1
  O  O648  1  0.16296240  0.14866205  0.20227738  1
  O  O649  1  0.16482119  0.14885910  0.45231935  1
  O  O650  1  0.16436475  0.14856669  0.70203422  1
  O  O651  1  0.16194811  0.15013905  0.95315249  1
  O  O652  1  0.16200341  0.48070837  0.20197995  1
  O  O653  1  0.16405959  0.48141187  0.45247545  1
  O  O654  1  0.16300131  0.48124078  0.70108420  1
  O  O655  1  0.16350587  0.48049808  0.95210591  1
  O  O656  1  0.16204470  0.81628248  0.20213813  1
  O  O657  1  0.16278088  0.81508066  0.45283761  1
  O  O658  1  0.16261476  0.81523300  0.70246927  1
  O  O659  1  0.16243336  0.81490542  0.95219545  1
  O  O660  1  0.66150403  0.14814236  0.20265381  1
  O  O661  1  0.66304748  0.14919098  0.45166226  1
  O  O662  1  0.66246447  0.14893241  0.70277495  1
  O  O663  1  0.66408691  0.14854024  0.95273783  1
  O  O664  1  0.66080811  0.48088590  0.20184729  1
  O  O665  1  0.66334064  0.48117302  0.45345380  1
  O  O666  1  0.66280947  0.48071393  0.70192588  1
  O  O667  1  0.66263885  0.48141858  0.95325279  1
  O  O668  1  0.66047764  0.81576004  0.20280623  1
  O  O669  1  0.66344054  0.81511217  0.45214002  1
  O  O670  1  0.66255616  0.81544042  0.70313316  1
  O  O671  1  0.66337498  0.81544671  0.95385121  1
