# generated using pymatgen
data_Na2MnFe(PO4)2
_symmetry_space_group_name_H-M   'P 1'
_cell_length_a   21.08482770
_cell_length_b   18.93735731
_cell_length_c   20.04375323
_cell_angle_alpha   90.00027329
_cell_angle_beta   89.99892228
_cell_angle_gamma   90.00194450
_symmetry_Int_Tables_number   1
_chemical_formula_structural   Na2MnFe(PO4)2
_chemical_formula_sum   'Na96 Mn48 Fe48 P96 O384'
_cell_volume   8003.28857972
_cell_formula_units_Z   48
loop_
 _symmetry_equiv_pos_site_id
 _symmetry_equiv_pos_as_xyz
  1  'x, y, z'
loop_
 _atom_site_type_symbol
 _atom_site_label
 _atom_site_symmetry_multiplicity
 _atom_site_fract_x
 _atom_site_fract_y
 _atom_site_fract_z
 _atom_site_occupancy
  Na  Na0  1  0.00114086  0.00070173  -0.00064486  1
  Na  Na1  1  0.00155352  0.00066408  0.24933514  1
  Na  Na2  1  -0.00161182  -0.00038293  0.50048902  1
  Na  Na3  1  -0.00173160  -0.00016796  0.74990575  1
  Na  Na4  1  0.00149267  0.33328914  0.00057409  1
  Na  Na5  1  0.00179840  0.33352372  0.24878675  1
  Na  Na6  1  0.00079935  0.33251104  0.50017263  1
  Na  Na7  1  0.00236199  0.33408385  0.75003785  1
  Na  Na8  1  -0.00310825  0.66612664  0.00021527  1
  Na  Na9  1  -0.00143066  0.66636182  0.24994409  1
  Na  Na10  1  0.00039124  0.66667018  0.49974299  1
  Na  Na11  1  0.00010224  0.66721901  0.75059308  1
  Na  Na12  1  0.50062737  0.00010581  -0.00023977  1
  Na  Na13  1  0.49679874  -0.00127625  0.25086130  1
  Na  Na14  1  0.49869928  -0.00037308  0.50047987  1
  Na  Na15  1  0.50038851  -0.00009598  0.74938108  1
  Na  Na16  1  0.49867990  0.33193540  -0.00014320  1
  Na  Na17  1  0.49996954  0.33292000  0.25111903  1
  Na  Na18  1  0.50032159  0.33331820  0.49926770  1
  Na  Na19  1  0.50052822  0.33299106  0.75083276  1
  Na  Na20  1  0.50090542  0.66751411  -0.00111136  1
  Na  Na21  1  0.50085106  0.66720953  0.24939792  1
  Na  Na22  1  0.49998058  0.66656190  0.50069221  1
  Na  Na23  1  0.49877897  0.66619700  0.75037176  1
  Na  Na24  1  0.25103326  -0.00003427  0.12438472  1
  Na  Na25  1  0.25331346  0.00100634  0.37438175  1
  Na  Na26  1  0.25168344  0.00008518  0.62552284  1
  Na  Na27  1  0.24964431  -0.00078487  0.87467690  1
  Na  Na28  1  0.24827128  0.33275435  0.12455692  1
  Na  Na29  1  0.24743842  0.33249580  0.37515236  1
  Na  Na30  1  0.24903555  0.33319549  0.62577690  1
  Na  Na31  1  0.24945339  0.33321165  0.87537434  1
  Na  Na32  1  0.25168642  0.66803830  0.12625838  1
  Na  Na33  1  0.25000207  0.66690392  0.37553942  1
  Na  Na34  1  0.25003885  0.66692231  0.62423265  1
  Na  Na35  1  0.25113152  0.66788628  0.87474877  1
  Na  Na36  1  0.74913787  0.00022527  0.12505274  1
  Na  Na37  1  0.74889252  0.00012719  0.37471215  1
  Na  Na38  1  0.74985671  0.00022967  0.62549138  1
  Na  Na39  1  0.74904035  -0.00019726  0.87547548  1
  Na  Na40  1  0.75089722  0.33304580  0.12521428  1
  Na  Na41  1  0.75018392  0.33318948  0.37618395  1
  Na  Na42  1  0.74927531  0.33245795  0.62379280  1
  Na  Na43  1  0.75060201  0.33297952  0.87390273  1
  Na  Na44  1  0.74986617  0.66665868  0.12628281  1
  Na  Na45  1  0.74926367  0.66641188  0.37434276  1
  Na  Na46  1  0.75002674  0.66670513  0.62421458  1
  Na  Na47  1  0.75069524  0.66679282  0.87493959  1
  Na  Na48  1  0.00044814  0.16582423  -0.00006159  1
  Na  Na49  1  0.00050861  0.16589303  0.24948186  1
  Na  Na50  1  -0.00307204  0.16733329  0.50142742  1
  Na  Na51  1  -0.00121370  0.16603657  0.74955480  1
  Na  Na52  1  0.00037298  0.49925557  -0.00004236  1
  Na  Na53  1  0.00058230  0.49976883  0.24987934  1
  Na  Na54  1  0.00207039  0.49943409  0.49961207  1
  Na  Na55  1  0.00039225  0.50022269  0.74997099  1
  Na  Na56  1  -0.00064451  0.83400630  0.00038831  1
  Na  Na57  1  0.00109790  0.83317811  0.24871229  1
  Na  Na58  1  0.00249443  0.83226985  0.49972363  1
  Na  Na59  1  -0.00018462  0.83384526  0.75060228  1
  Na  Na60  1  0.49998569  0.16672643  0.00003433  1
  Na  Na61  1  0.49935557  0.16695538  0.25066408  1
  Na  Na62  1  0.50030216  0.16639119  0.49920769  1
  Na  Na63  1  0.49923828  0.16748193  0.74961453  1
  Na  Na64  1  0.50169724  0.49935194  -0.00027466  1
  Na  Na65  1  0.49846235  0.50119189  0.25050502  1
  Na  Na66  1  0.50142895  0.49932753  0.49993446  1
  Na  Na67  1  0.50128851  0.49976230  0.75066995  1
  Na  Na68  1  0.49930694  0.83383882  -0.00138599  1
  Na  Na69  1  0.50020856  0.83292811  0.25037863  1
  Na  Na70  1  0.49820503  0.83393449  0.50143545  1
  Na  Na71  1  0.49875521  0.83395971  0.75014120  1
  Na  Na72  1  0.25043026  0.16662202  0.12366722  1
  Na  Na73  1  0.25111846  0.16644035  0.37474552  1
  Na  Na74  1  0.25170379  0.16615373  0.62648789  1
  Na  Na75  1  0.24885960  0.16716220  0.87516922  1
  Na  Na76  1  0.24896684  0.49999075  0.12593156  1
  Na  Na77  1  0.24899287  0.49940320  0.37546865  1
  Na  Na78  1  0.24658607  0.50072895  0.62463362  1
  Na  Na79  1  0.24850808  0.49985475  0.87513393  1
  Na  Na80  1  0.25056561  0.83414278  0.12565738  1
  Na  Na81  1  0.25107578  0.83347307  0.37486292  1
  Na  Na82  1  0.25255533  0.83273993  0.62404897  1
  Na  Na83  1  0.25284594  0.83312202  0.87419167  1
  Na  Na84  1  0.74964573  0.16662792  0.12586446  1
  Na  Na85  1  0.75011961  0.16656478  0.37511744  1
  Na  Na86  1  0.75198650  0.16546860  0.62506919  1
  Na  Na87  1  0.74984210  0.16651284  0.87406092  1
  Na  Na88  1  0.75124555  0.49994931  0.12554895  1
  Na  Na89  1  0.75104041  0.50018519  0.37575564  1
  Na  Na90  1  0.74935704  0.50107500  0.62397125  1
  Na  Na91  1  0.75035085  0.50025243  0.87373900  1
  Na  Na92  1  0.74881612  0.83359724  0.12506345  1
  Na  Na93  1  0.74679772  0.83380016  0.37448620  1
  Na  Na94  1  0.74724975  0.83458859  0.62455626  1
  Na  Na95  1  0.75071249  0.83299103  0.87622601  1
  Mn  Mn96  1  0.85830388  0.41628966  0.75132093  1
  Mn  Mn97  1  0.10700972  0.08296910  0.62252169  1
  Mn  Mn98  1  0.14335983  0.91710234  0.49785019  1
  Mn  Mn99  1  0.60764965  0.08426976  0.62238098  1
  Mn  Mn100  1  0.89129176  0.91573568  0.62698024  1
  Mn  Mn101  1  0.39172439  0.25032643  0.37777090  1
  Mn  Mn102  1  0.64203485  0.58273651  0.24812587  1
  Mn  Mn103  1  0.64063237  0.91692062  0.24763811  1
  Mn  Mn104  1  0.85834295  0.08307329  0.25231265  1
  Mn  Mn105  1  0.35739196  0.41707595  0.75192499  1
  Mn  Mn106  1  0.89208302  0.91656672  0.37740835  1
  Mn  Mn107  1  0.14336272  0.91764198  0.24804497  1
  Mn  Mn108  1  0.60874333  0.41588777  0.87315964  1
  Mn  Mn109  1  0.14253842  0.91648124  0.74792019  1
  Mn  Mn110  1  0.14172948  0.58372874  0.74755140  1
  Mn  Mn111  1  0.85715446  0.75057489  0.25255751  1
  Mn  Mn112  1  0.10772580  0.75004176  0.12205172  1
  Mn  Mn113  1  0.14243066  0.24926628  0.99716190  1
  Mn  Mn114  1  0.60784812  0.75069746  0.87279852  1
  Mn  Mn115  1  0.60709089  0.74934855  0.62273114  1
  Mn  Mn116  1  0.10822818  0.08333818  0.37346374  1
  Mn  Mn117  1  0.64234396  0.25034979  0.24803573  1
  Mn  Mn118  1  0.39274487  0.58305908  0.12699377  1
  Mn  Mn119  1  0.85753306  0.75106283  0.50162585  1
  Mn  Mn120  1  0.60775244  0.41713274  0.37254819  1
  Mn  Mn121  1  0.35799989  0.08342553  0.75306392  1
  Mn  Mn122  1  0.35675994  0.41632439  0.25218705  1
  Mn  Mn123  1  0.60689796  0.08316159  0.12267411  1
  Mn  Mn124  1  0.85826242  0.75102929  0.75148752  1
  Mn  Mn125  1  0.39199909  0.58294766  0.87785085  1
  Mn  Mn126  1  0.14191847  0.24915217  0.49811091  1
  Mn  Mn127  1  0.89197092  0.58347801  0.87765682  1
  Mn  Mn128  1  0.14186841  0.58323083  0.24771609  1
  Mn  Mn129  1  0.85896498  0.41624925  0.25275473  1
  Mn  Mn130  1  0.35795880  0.08287777  0.00179227  1
  Mn  Mn131  1  0.89232710  0.91672961  0.12672659  1
  Mn  Mn132  1  0.64217879  0.24942641  0.74705569  1
  Mn  Mn133  1  0.89260683  0.24992450  0.12661654  1
  Mn  Mn134  1  0.10763096  0.75053663  0.87331401  1
  Mn  Mn135  1  0.85809253  0.41647654  0.50252022  1
  Mn  Mn136  1  0.35691634  0.41656214  0.50289174  1
  Mn  Mn137  1  0.35870503  0.75006922  0.25283741  1
  Mn  Mn138  1  0.64245916  0.58374107  0.74735552  1
  Mn  Mn139  1  0.60818781  0.41677306  0.12230037  1
  Mn  Mn140  1  0.14182963  0.58494517  0.99802523  1
  Mn  Mn141  1  0.39195313  0.58216611  0.62708295  1
  Mn  Mn142  1  0.89264623  0.24974045  0.87743800  1
  Mn  Mn143  1  0.35764058  0.41762373  0.00264277  1
  Fe  Fe144  1  0.89203872  0.91699572  0.87736115  1
  Fe  Fe145  1  0.39309129  0.91597649  0.37753304  1
  Fe  Fe146  1  0.89346066  0.58319825  0.37695817  1
  Fe  Fe147  1  0.10776228  0.74999201  0.37338267  1
  Fe  Fe148  1  0.85634232  0.08270672  0.50079516  1
  Fe  Fe149  1  0.64250716  0.25013889  0.99870146  1
  Fe  Fe150  1  0.64270443  0.58366424  0.49785888  1
  Fe  Fe151  1  0.60714410  0.75010478  0.12270514  1
  Fe  Fe152  1  0.10692384  0.41689078  0.12290776  1
  Fe  Fe153  1  0.60615742  0.75011608  0.37431331  1
  Fe  Fe154  1  0.85664793  0.08335963  0.00136760  1
  Fe  Fe155  1  0.60771587  0.41637389  0.62334702  1
  Fe  Fe156  1  0.89206150  0.58310582  0.12625120  1
  Fe  Fe157  1  0.89249398  0.25062497  0.62669805  1
  Fe  Fe158  1  0.39231420  0.58372521  0.37741065  1
  Fe  Fe159  1  0.89349308  0.58336518  0.62545434  1
  Fe  Fe160  1  0.10723466  0.41618379  0.87330963  1
  Fe  Fe161  1  0.64303583  0.24965592  0.49834747  1
  Fe  Fe162  1  0.10827414  0.74995810  0.62320300  1
  Fe  Fe163  1  0.35846196  0.08368940  0.50214574  1
  Fe  Fe164  1  0.85792799  0.41641808  0.00115130  1
  Fe  Fe165  1  0.10656124  0.08326412  0.87295122  1
  Fe  Fe166  1  0.35720708  0.74960177  0.50175026  1
  Fe  Fe167  1  0.10700925  0.41690065  0.62323311  1
  Fe  Fe168  1  0.64124341  0.91685754  0.49844629  1
  Fe  Fe169  1  0.89320328  0.25017388  0.37657434  1
  Fe  Fe170  1  0.39295526  0.91694798  0.12595549  1
  Fe  Fe171  1  0.35726050  0.08422301  0.25139282  1
  Fe  Fe172  1  0.14211497  0.58418153  0.49784569  1
  Fe  Fe173  1  0.39248639  0.24993209  0.12696001  1
  Fe  Fe174  1  0.60772193  0.08348573  0.87389651  1
  Fe  Fe175  1  0.10683507  0.41641854  0.37321834  1
  Fe  Fe176  1  0.39299517  0.25055414  0.62667211  1
  Fe  Fe177  1  0.64238900  0.91695430  0.99806424  1
  Fe  Fe178  1  0.14226735  0.24885907  0.24834073  1
  Fe  Fe179  1  0.35781183  0.75004026  0.00184512  1
  Fe  Fe180  1  0.35730760  0.74954354  0.75132321  1
  Fe  Fe181  1  0.60652919  0.08275969  0.37367072  1
  Fe  Fe182  1  0.85640939  0.75023793  0.00219230  1
  Fe  Fe183  1  0.64279613  0.91657288  0.74893085  1
  Fe  Fe184  1  0.14340889  0.91633171  0.99790831  1
  Fe  Fe185  1  0.39280123  0.24970596  0.87656703  1
  Fe  Fe186  1  0.64370403  0.58288078  0.99891710  1
  Fe  Fe187  1  0.39340809  0.91749594  0.87699459  1
  Fe  Fe188  1  0.14277350  0.24943112  0.74824244  1
  Fe  Fe189  1  0.39317639  0.91714795  0.62699917  1
  Fe  Fe190  1  0.10836635  0.08307789  0.12270949  1
  Fe  Fe191  1  0.85682774  0.08258568  0.75232354  1
  P  P192  1  0.05518630  0.24934071  0.11113685  1
  P  P193  1  0.05289097  0.24988146  0.35963618  1
  P  P194  1  0.05311225  0.25003422  0.61159019  1
  P  P195  1  0.05412476  0.24921527  0.85921185  1
  P  P196  1  0.05181717  0.58303102  0.10999484  1
  P  P197  1  0.05372439  0.58351740  0.36116362  1
  P  P198  1  0.05342574  0.58377699  0.60954317  1
  P  P199  1  0.05317566  0.58322243  0.86035011  1
  P  P200  1  0.05479294  0.91762735  0.10904590  1
  P  P201  1  0.05375213  0.91636482  0.35987434  1
  P  P202  1  0.05331076  0.91605145  0.61000175  1
  P  P203  1  0.05313918  0.91744421  0.86122581  1
  P  P204  1  0.55253633  0.24990520  0.10968698  1
  P  P205  1  0.55455898  0.24904691  0.36147595  1
  P  P206  1  0.55284860  0.25075168  0.60912974  1
  P  P207  1  0.55401650  0.24889177  0.86126931  1
  P  P208  1  0.55414426  0.58408006  0.10912200  1
  P  P209  1  0.55293059  0.58454288  0.36137044  1
  P  P210  1  0.55388500  0.58236005  0.60946121  1
  P  P211  1  0.55508875  0.58342811  0.86128875  1
  P  P212  1  0.55247307  0.91600786  0.10918534  1
  P  P213  1  0.55299740  0.91651607  0.36201612  1
  P  P214  1  0.55378960  0.91681900  0.61100733  1
  P  P215  1  0.55440935  0.91773486  0.86055168  1
  P  P216  1  0.44564963  0.08329428  0.14009393  1
  P  P217  1  0.44563314  0.08283668  0.38948074  1
  P  P218  1  0.44547727  0.08401659  0.63870574  1
  P  P219  1  0.44792180  0.08329853  0.89001941  1
  P  P220  1  0.44686256  0.41571119  0.14039256  1
  P  P221  1  0.44598297  0.41751396  0.39024013  1
  P  P222  1  0.44806893  0.41569493  0.64005606  1
  P  P223  1  0.44671510  0.41575432  0.89009589  1
  P  P224  1  0.44675021  0.75087900  0.13848168  1
  P  P225  1  0.44677067  0.74976159  0.39101079  1
  P  P226  1  0.44451602  0.75018709  0.63954634  1
  P  P227  1  0.44466800  0.75093583  0.88901503  1
  P  P228  1  0.94691198  0.08313549  0.13839698  1
  P  P229  1  0.94640918  0.08409306  0.39073840  1
  P  P230  1  0.94353485  0.08350530  0.63933505  1
  P  P231  1  0.94546016  0.08250688  0.88945412  1
  P  P232  1  0.94630405  0.41704571  0.13851148  1
  P  P233  1  0.94802011  0.41615481  0.38990446  1
  P  P234  1  0.94797147  0.41705056  0.63942329  1
  P  P235  1  0.94752203  0.41612288  0.89036185  1
  P  P236  1  0.94481615  0.74959304  0.13878139  1
  P  P237  1  0.94800267  0.74974474  0.38972518  1
  P  P238  1  0.94835582  0.74919487  0.63950890  1
  P  P239  1  0.94542608  0.75142937  0.89091469  1
  P  P240  1  0.19755352  0.08410056  0.23421034  1
  P  P241  1  0.19901755  0.08312855  0.48526758  1
  P  P242  1  0.19521970  0.08366808  0.73639918  1
  P  P243  1  0.19530352  0.08198338  0.98489660  1
  P  P244  1  0.19384251  0.41549753  0.23567318  1
  P  P245  1  0.19387795  0.41711323  0.48575169  1
  P  P246  1  0.19429390  0.41565267  0.73566482  1
  P  P247  1  0.19467662  0.41708954  0.98559157  1
  P  P248  1  0.19590748  0.75028931  0.23614220  1
  P  P249  1  0.19621485  0.74986099  0.48543555  1
  P  P250  1  0.19749926  0.75053941  0.73417050  1
  P  P251  1  0.19841040  0.75147408  0.98495450  1
  P  P252  1  0.69518892  0.08337077  0.23603393  1
  P  P253  1  0.69637194  0.08341142  0.48468336  1
  P  P254  1  0.69624554  0.08217031  0.73631151  1
  P  P255  1  0.69661549  0.08373736  0.98482112  1
  P  P256  1  0.69738708  0.41666295  0.23496697  1
  P  P257  1  0.69540212  0.41675484  0.48631098  1
  P  P258  1  0.69646402  0.41642356  0.73351197  1
  P  P259  1  0.69869583  0.41652689  0.98511835  1
  P  P260  1  0.69381156  0.74997267  0.23554778  1
  P  P261  1  0.69536769  0.74987461  0.48432411  1
  P  P262  1  0.69672403  0.75119444  0.73491574  1
  P  P263  1  0.69623521  0.74978069  0.98664154  1
  P  P264  1  0.30551956  0.24988111  0.01422661  1
  P  P265  1  0.30288968  0.24948677  0.26373119  1
  P  P266  1  0.30366384  0.24951243  0.51617170  1
  P  P267  1  0.30388420  0.25042279  0.76486812  1
  P  P268  1  0.30278437  0.58441138  0.01563967  1
  P  P269  1  0.30388473  0.58328492  0.26623760  1
  P  P270  1  0.30275063  0.58377580  0.51385407  1
  P  P271  1  0.30298626  0.58364641  0.76492663  1
  P  P272  1  0.30457294  0.91622832  0.01418318  1
  P  P273  1  0.30626377  0.91774473  0.26423295  1
  P  P274  1  0.30624439  0.91661109  0.51423077  1
  P  P275  1  0.30576767  0.91602346  0.76427207  1
  P  P276  1  0.80230693  0.24936492  0.01449783  1
  P  P277  1  0.80448054  0.24987548  0.26612572  1
  P  P278  1  0.80420504  0.24909317  0.51401073  1
  P  P279  1  0.80483029  0.24936920  0.76347651  1
  P  P280  1  0.80304900  0.58325576  0.01544498  1
  P  P281  1  0.80538501  0.58325955  0.26510386  1
  P  P282  1  0.80436804  0.58384517  0.51392724  1
  P  P283  1  0.80514425  0.58356454  0.76318867  1
  P  P284  1  0.80282775  0.91735005  0.01390476  1
  P  P285  1  0.80255568  0.91669563  0.26515596  1
  P  P286  1  0.80098587  0.91716052  0.51452376  1
  P  P287  1  0.80272111  0.91711659  0.76594382  1
  O  O288  1  0.05862878  0.24874753  0.18760758  1
  O  O289  1  0.05614295  0.24871789  0.43644213  1
  O  O290  1  0.05797191  0.24904072  0.68808129  1
  O  O291  1  0.05670597  0.24904100  0.93657622  1
  O  O292  1  0.05556078  0.58384702  0.18670348  1
  O  O293  1  0.05819926  0.58396612  0.43786650  1
  O  O294  1  0.05637380  0.58417405  0.68626561  1
  O  O295  1  0.05601118  0.58407989  0.93711936  1
  O  O296  1  0.05811672  0.91719755  0.18581542  1
  O  O297  1  0.05701019  0.91703705  0.43664720  1
  O  O298  1  0.05644355  0.91696412  0.68674643  1
  O  O299  1  0.05838607  0.91650678  0.93781675  1
  O  O300  1  0.55651776  0.25011951  0.18642185  1
  O  O301  1  0.55919219  0.24960104  0.43816239  1
  O  O302  1  0.55635554  0.24976816  0.68595306  1
  O  O303  1  0.55909416  0.24962452  0.93787684  1
  O  O304  1  0.55655788  0.58314025  0.18597590  1
  O  O305  1  0.55806249  0.58351255  0.43797838  1
  O  O306  1  0.55681087  0.58347741  0.68630134  1
  O  O307  1  0.56016642  0.58338070  0.93797728  1
  O  O308  1  0.55532470  0.91660840  0.18602336  1
  O  O309  1  0.55736697  0.91693128  0.43869696  1
  O  O310  1  0.55867327  0.91681478  0.68766803  1
  O  O311  1  0.55931169  0.91688443  0.93725436  1
  O  O312  1  0.44338269  0.08327567  0.06369184  1
  O  O313  1  0.44118372  0.08397001  0.31276115  1
  O  O314  1  0.44207654  0.08385967  0.56222438  1
  O  O315  1  0.44453422  0.08333403  0.81282023  1
  O  O316  1  0.44389146  0.41635690  0.06364081  1
  O  O317  1  0.44255183  0.41684150  0.31349750  1
  O  O318  1  0.44384180  0.41650120  0.56341304  1
  O  O319  1  0.44345001  0.41665637  0.81332048  1
  O  O320  1  0.44208328  0.75034113  0.06182928  1
  O  O321  1  0.44415427  0.74954242  0.31414122  1
  O  O322  1  0.44069123  0.74931913  0.56278619  1
  O  O323  1  0.44075319  0.74973646  0.81224214  1
  O  O324  1  0.94123640  0.08314110  0.06176140  1
  O  O325  1  0.94407704  0.08304170  0.31390524  1
  O  O326  1  0.93906804  0.08252128  0.56257260  1
  O  O327  1  0.94061783  0.08273040  0.81276861  1
  O  O328  1  0.94123468  0.41619508  0.06179987  1
  O  O329  1  0.94502524  0.41626089  0.31320753  1
  O  O330  1  0.94448287  0.41647318  0.56267207  1
  O  O331  1  0.94363796  0.41616259  0.81372046  1
  O  O332  1  0.93996056  0.75049086  0.06203993  1
  O  O333  1  0.94396339  0.75064621  0.31305986  1
  O  O334  1  0.94419696  0.75022480  0.56286594  1
  O  O335  1  0.94295594  0.75100954  0.81409571  1
  O  O336  1  0.19169778  0.08295247  0.06171234  1
  O  O337  1  0.19402569  0.08352050  0.31094405  1
  O  O338  1  0.19431475  0.08301107  0.56193216  1
  O  O339  1  0.19087428  0.08298934  0.81292407  1
  O  O340  1  0.19030496  0.41709155  0.06237303  1
  O  O341  1  0.18983060  0.41635953  0.31251526  1
  O  O342  1  0.18971068  0.41642998  0.56261630  1
  O  O343  1  0.19047519  0.41638138  0.81250272  1
  O  O344  1  0.19441626  0.75083250  0.06167092  1
  O  O345  1  0.19125614  0.75005750  0.31287736  1
  O  O346  1  0.19157557  0.75016360  0.56215354  1
  O  O347  1  0.19332738  0.75083714  0.81085732  1
  O  O348  1  0.69312983  0.08373483  0.06156996  1
  O  O349  1  0.69034389  0.08302703  0.31270473  1
  O  O350  1  0.69332269  0.08344459  0.56156344  1
  O  O351  1  0.69148175  0.08331327  0.81290291  1
  O  O352  1  0.69517047  0.41635627  0.06181160  1
  O  O353  1  0.69366757  0.41692560  0.31176110  1
  O  O354  1  0.69148307  0.41672601  0.56300447  1
  O  O355  1  0.69355870  0.41623311  0.81034977  1
  O  O356  1  0.69175398  0.75016028  0.06333153  1
  O  O357  1  0.68919704  0.75002637  0.31226608  1
  O  O358  1  0.69266002  0.74980794  0.56112868  1
  O  O359  1  0.69394691  0.75026557  0.81170966  1
  O  O360  1  0.30760871  0.25033666  0.18704004  1
  O  O361  1  0.30644414  0.25041100  0.43936819  1
  O  O362  1  0.30902989  0.25045375  0.68822920  1
  O  O363  1  0.30974263  0.24973821  0.93756751  1
  O  O364  1  0.30750036  0.58342544  0.18946276  1
  O  O365  1  0.30785690  0.58308010  0.43723875  1
  O  O366  1  0.30594815  0.58249648  0.68812216  1
  O  O367  1  0.30575393  0.58337392  0.93885899  1
  O  O368  1  0.30985666  0.91646512  0.18746469  1
  O  O369  1  0.30976932  0.91657651  0.43733615  1
  O  O370  1  0.30978959  0.91724544  0.68751439  1
  O  O371  1  0.30922927  0.91729204  0.93743831  1
  O  O372  1  0.80790870  0.24991240  0.18932787  1
  O  O373  1  0.80904087  0.25038027  0.43738825  1
  O  O374  1  0.80903498  0.25044391  0.68669254  1
  O  O375  1  0.80591203  0.24938299  0.93778440  1
  O  O376  1  0.80956412  0.58309104  0.18832417  1
  O  O377  1  0.80990864  0.58348332  0.43724773  1
  O  O378  1  0.80981227  0.58355990  0.68644135  1
  O  O379  1  0.80617189  0.58325848  0.93862698  1
  O  O380  1  0.80637764  0.91664829  0.18840621  1
  O  O381  1  0.80514685  0.91625124  0.43792185  1
  O  O382  1  0.80596037  0.91634085  0.68913208  1
  O  O383  1  0.80747480  0.91719393  0.93726252  1
  O  O384  1  0.23497722  0.24973083  0.03765598  1
  O  O385  1  0.23268695  0.24937785  0.28787678  1
  O  O386  1  0.23391352  0.24966997  0.54123771  1
  O  O387  1  0.23352084  0.24999688  0.78828750  1
  O  O388  1  0.23328919  0.58452390  0.04134865  1
  O  O389  1  0.23396799  0.58320426  0.29057857  1
  O  O390  1  0.23236256  0.58399196  0.53743079  1
  O  O391  1  0.23336003  0.58383640  0.79018177  1
  O  O392  1  0.23427003  0.91685146  0.03803658  1
  O  O393  1  0.23630932  0.91723562  0.28877506  1
  O  O394  1  0.23628490  0.91657359  0.53886475  1
  O  O395  1  0.23574604  0.91657595  0.78833452  1
  O  O396  1  0.73235540  0.24951751  0.03958561  1
  O  O397  1  0.73466986  0.25006423  0.29074804  1
  O  O398  1  0.73371621  0.24921843  0.53762204  1
  O  O399  1  0.73478373  0.24952907  0.78751656  1
  O  O400  1  0.73305945  0.58338209  0.04044400  1
  O  O401  1  0.73521673  0.58310761  0.28886439  1
  O  O402  1  0.73373703  0.58392809  0.53663319  1
  O  O403  1  0.73511069  0.58348928  0.78724417  1
  O  O404  1  0.73242442  0.91731419  0.03783203  1
  O  O405  1  0.73264876  0.91677383  0.28946381  1
  O  O406  1  0.73085010  0.91724353  0.53892619  1
  O  O407  1  0.73277672  0.91651125  0.79077295  1
  O  O408  1  0.26757249  0.08357667  0.20951151  1
  O  O409  1  0.26913559  0.08344072  0.46121781  1
  O  O410  1  0.26561642  0.08317505  0.71258346  1
  O  O411  1  0.26513744  0.08295351  0.96055677  1
  O  O412  1  0.26389879  0.41638329  0.21150705  1
  O  O413  1  0.26397780  0.41597029  0.46178900  1
  O  O414  1  0.26427234  0.41678168  0.71118638  1
  O  O415  1  0.26469615  0.41649599  0.96167898  1
  O  O416  1  0.26614380  0.75073892  0.21261189  1
  O  O417  1  0.26669186  0.75029096  0.46194792  1
  O  O418  1  0.26767511  0.75011681  0.71011700  1
  O  O419  1  0.26838647  0.75099335  0.96038528  1
  O  O420  1  0.76525762  0.08340353  0.21211861  1
  O  O421  1  0.76644552  0.08336684  0.45997772  1
  O  O422  1  0.76648239  0.08258956  0.71242697  1
  O  O423  1  0.76668447  0.08337911  0.96009411  1
  O  O424  1  0.76715993  0.41648305  0.21043493  1
  O  O425  1  0.76549005  0.41684856  0.46190045  1
  O  O426  1  0.76612680  0.41654629  0.70836304  1
  O  O427  1  0.76864285  0.41656850  0.95987195  1
  O  O428  1  0.76401141  0.75030562  0.21199115  1
  O  O429  1  0.76503221  0.74996277  0.45887672  1
  O  O430  1  0.76618609  0.75116001  0.70917296  1
  O  O431  1  0.76658147  0.74989384  0.96262195  1
  O  O432  1  0.01740074  0.08308467  0.16156013  1
  O  O433  1  0.01596383  0.08362797  0.41650291  1
  O  O434  1  0.01373790  0.08285089  0.66305489  1
  O  O435  1  0.01593210  0.08340376  0.91275585  1
  O  O436  1  0.01666035  0.41671572  0.16213291  1
  O  O437  1  0.01796341  0.41609874  0.41492516  1
  O  O438  1  0.01796856  0.41735162  0.66420027  1
  O  O439  1  0.01773688  0.41586905  0.91446654  1
  O  O440  1  0.01496513  0.75011207  0.16250622  1
  O  O441  1  0.01812768  0.74962319  0.41408423  1
  O  O442  1  0.01833869  0.74988064  0.66432024  1
  O  O443  1  0.01512005  0.75037103  0.91620661  1
  O  O444  1  0.51526287  0.08302751  0.16610962  1
  O  O445  1  0.51595531  0.08295492  0.41346390  1
  O  O446  1  0.51537668  0.08402431  0.66367464  1
  O  O447  1  0.51775605  0.08316301  0.91483394  1
  O  O448  1  0.51642068  0.41658776  0.16597646  1
  O  O449  1  0.51585697  0.41678941  0.41475522  1
  O  O450  1  0.51805975  0.41621335  0.66468144  1
  O  O451  1  0.51648906  0.41560970  0.91505744  1
  O  O452  1  0.51696965  0.75034721  0.16255130  1
  O  O453  1  0.51659746  0.75025211  0.41624853  1
  O  O454  1  0.51455551  0.74970829  0.66390199  1
  O  O455  1  0.51482427  0.75084885  0.91292776  1
  O  O456  1  0.48237312  0.24929145  0.08564481  1
  O  O457  1  0.48441774  0.24988302  0.33766515  1
  O  O458  1  0.48283669  0.24992333  0.58454880  1
  O  O459  1  0.48365945  0.24959769  0.83750738  1
  O  O460  1  0.48455805  0.58351841  0.08361248  1
  O  O461  1  0.48261593  0.58430684  0.33757275  1
  O  O462  1  0.48405997  0.58277699  0.58466474  1
  O  O463  1  0.48491298  0.58328170  0.83767008  1
  O  O464  1  0.48252877  0.91682025  0.08431932  1
  O  O465  1  0.48273252  0.91601667  0.33784969  1
  O  O466  1  0.48329650  0.91688522  0.58781878  1
  O  O467  1  0.48396799  0.91711812  0.83712979  1
  O  O468  1  0.98540922  0.24951902  0.08590874  1
  O  O469  1  0.98295939  0.24978391  0.33467163  1
  O  O470  1  0.98271562  0.25006482  0.58778069  1
  O  O471  1  0.98449443  0.24966992  0.83432346  1
  O  O472  1  0.98184088  0.58292279  0.08526336  1
  O  O473  1  0.98345251  0.58320804  0.33705593  1
  O  O474  1  0.98346111  0.58313978  0.58439241  1
  O  O475  1  0.98354767  0.58358273  0.83504381  1
  O  O476  1  0.98488579  0.91727126  0.08451531  1
  O  O477  1  0.98417046  0.91693788  0.33436058  1
  O  O478  1  0.98354492  0.91593437  0.58492163  1
  O  O479  1  0.98275516  0.91711754  0.83760595  1
  O  O480  1  0.08897680  0.31466115  0.07856220  1
  O  O481  1  0.08704256  0.31501110  0.32758520  1
  O  O482  1  0.08641659  0.31517873  0.57861302  1
  O  O483  1  0.08873283  0.31418607  0.82760280  1
  O  O484  1  0.08549331  0.64815515  0.07699357  1
  O  O485  1  0.08703904  0.64845657  0.32767963  1
  O  O486  1  0.08731283  0.64890160  0.57677649  1
  O  O487  1  0.08740603  0.64824318  0.82786213  1
  O  O488  1  0.08883998  0.98263320  0.07654857  1
  O  O489  1  0.08816622  0.98147391  0.32758423  1
  O  O490  1  0.08722738  0.98108941  0.57709647  1
  O  O491  1  0.08623378  0.98261607  0.82792705  1
  O  O492  1  0.58625604  0.31489550  0.07656000  1
  O  O493  1  0.58824770  0.31394533  0.32812429  1
  O  O494  1  0.58672757  0.31589557  0.57688976  1
  O  O495  1  0.58776062  0.31361146  0.82770244  1
  O  O496  1  0.58817520  0.64937497  0.07717219  1
  O  O497  1  0.58602981  0.64986549  0.32847586  1
  O  O498  1  0.58824866  0.64719468  0.57668979  1
  O  O499  1  0.58814706  0.64865719  0.82791474  1
  O  O500  1  0.58696014  0.98085379  0.07665854  1
  O  O501  1  0.58594280  0.98165700  0.32842997  1
  O  O502  1  0.58698020  0.98179896  0.57733514  1
  O  O503  1  0.58748856  0.98299451  0.82750152  1
  O  O504  1  0.41117492  0.01818047  0.17228528  1
  O  O505  1  0.41234558  0.01761331  0.42236584  1
  O  O506  1  0.41179368  0.01893543  0.67181802  1
  O  O507  1  0.41391933  0.01820520  0.92219661  1
  O  O508  1  0.41303303  0.35025241  0.17253260  1
  O  O509  1  0.41179519  0.35257117  0.42287590  1
  O  O510  1  0.41444073  0.35037835  0.67255047  1
  O  O511  1  0.41249998  0.35070258  0.92206920  1
  O  O512  1  0.41313597  0.68604082  0.17208683  1
  O  O513  1  0.41253300  0.68482417  0.42360202  1
  O  O514  1  0.41052462  0.68535680  0.67272792  1
  O  O515  1  0.41096874  0.68628337  0.92281978  1
  O  O516  1  0.91378144  0.01819178  0.17211792  1
  O  O517  1  0.91146065  0.01939145  0.42326348  1
  O  O518  1  0.90973655  0.01866744  0.67289590  1
  O  O519  1  0.91237208  0.01747057  0.92303538  1
  O  O520  1  0.91323217  0.35197064  0.17209187  1
  O  O521  1  0.91411894  0.35099951  0.42239490  1
  O  O522  1  0.91425207  0.35206699  0.67236231  1
  O  O523  1  0.91365336  0.35122597  0.92344901  1
  O  O524  1  0.91169124  0.68421406  0.17150697  1
  O  O525  1  0.91415209  0.68472052  0.42226614  1
  O  O526  1  0.91484935  0.68384342  0.67182266  1
  O  O527  1  0.91041270  0.68668606  0.92311302  1
  O  O528  1  0.16345429  0.01919475  0.20126720  1
  O  O529  1  0.16570384  0.01811666  0.45195892  1
  O  O530  1  0.16187998  0.01880336  0.70273950  1
  O  O531  1  0.16183601  0.01675221  0.95221949  1
  O  O532  1  0.16061535  0.35018707  0.20298592  1
  O  O533  1  0.15969468  0.35236583  0.45261510  1
  O  O534  1  0.16114597  0.35017123  0.70299169  1
  O  O535  1  0.16082753  0.35194344  0.95247014  1
  O  O536  1  0.16285697  0.68512371  0.20270790  1
  O  O537  1  0.16283786  0.68480856  0.45212359  1
  O  O538  1  0.16343445  0.68559009  0.70138060  1
  O  O539  1  0.16431796  0.68658014  0.95212543  1
  O  O540  1  0.66165621  0.01843748  0.20262391  1
  O  O541  1  0.66210489  0.01845747  0.45219083  1
  O  O542  1  0.66308521  0.01679474  0.70352942  1
  O  O543  1  0.66233651  0.01877748  0.95223990  1
  O  O544  1  0.66339733  0.35164587  0.20240984  1
  O  O545  1  0.66206536  0.35145241  0.45350841  1
  O  O546  1  0.66212103  0.35138672  0.70119770  1
  O  O547  1  0.66474735  0.35135977  0.95251400  1
  O  O548  1  0.66061904  0.68482457  0.20230790  1
  O  O549  1  0.66114669  0.68476736  0.45192875  1
  O  O550  1  0.66241858  0.68635293  0.70223012  1
  O  O551  1  0.66320488  0.68460287  0.95338480  1
  O  O552  1  0.33860545  0.31481637  0.04789154  1
  O  O553  1  0.33608540  0.31432416  0.29764642  1
  O  O554  1  0.33786778  0.31448664  0.54900767  1
  O  O555  1  0.33713022  0.31536678  0.79829517  1
  O  O556  1  0.33722884  0.64961286  0.04737064  1
  O  O557  1  0.33795798  0.64837501  0.29887257  1
  O  O558  1  0.33629661  0.64877210  0.54683282  1
  O  O559  1  0.33730112  0.64883622  0.79668189  1
  O  O560  1  0.33833856  0.98094403  0.04765045  1
  O  O561  1  0.33969321  0.98325414  0.29644180  1
  O  O562  1  0.34002874  0.98164431  0.54715070  1
  O  O563  1  0.33970930  0.98082979  0.79804816  1
  O  O564  1  0.83651010  0.31438287  0.04694844  1
  O  O565  1  0.83873016  0.31477164  0.29883562  1
  O  O566  1  0.83764996  0.31399800  0.54794177  1
  O  O567  1  0.83836458  0.31426628  0.79685082  1
  O  O568  1  0.83707935  0.64824532  0.04809784  1
  O  O569  1  0.83880348  0.64839222  0.29820672  1
  O  O570  1  0.83756312  0.64886624  0.54739334  1
  O  O571  1  0.83837463  0.64868439  0.79642709  1
  O  O572  1  0.83601163  0.98263055  0.04702661  1
  O  O573  1  0.83653122  0.98167291  0.29772474  1
  O  O574  1  0.83484658  0.98216830  0.54705231  1
  O  O575  1  0.83652157  0.98235223  0.79840955  1
  O  O576  1  0.41139418  0.14847143  0.17271759  1
  O  O577  1  0.41201350  0.14761874  0.42313820  1
  O  O578  1  0.41176455  0.14925016  0.67161281  1
  O  O579  1  0.41381346  0.14815557  0.92219360  1
  O  O580  1  0.41210647  0.48055444  0.17260371  1
  O  O581  1  0.41246910  0.48275230  0.42290436  1
  O  O582  1  0.41398541  0.48059032  0.67304382  1
  O  O583  1  0.41288245  0.48085468  0.92297990  1
  O  O584  1  0.41367722  0.81615394  0.17162447  1
  O  O585  1  0.41232055  0.81470952  0.42317599  1
  O  O586  1  0.41119537  0.81556708  0.67214914  1
  O  O587  1  0.41132467  0.81637429  0.92157730  1
  O  O588  1  0.91378784  0.14817027  0.17189222  1
  O  O589  1  0.91219706  0.14946446  0.42240616  1
  O  O590  1  0.91040332  0.14887603  0.67216793  1
  O  O591  1  0.91185734  0.14739912  0.92298731  1
  O  O592  1  0.91324939  0.48221312  0.17166154  1
  O  O593  1  0.91406260  0.48115903  0.42258662  1
  O  O594  1  0.91417760  0.48230242  0.67159381  1
  O  O595  1  0.91370499  0.48111037  0.92326845  1
  O  O596  1  0.91137683  0.81459332  0.17221204  1
  O  O597  1  0.91441752  0.81479787  0.42299446  1
  O  O598  1  0.91405668  0.81402796  0.67248847  1
  O  O599  1  0.91152729  0.81672493  0.92314730  1
  O  O600  1  0.08900263  0.18437908  0.07778152  1
  O  O601  1  0.08717962  0.18500193  0.32674777  1
  O  O602  1  0.08607759  0.18507639  0.57746352  1
  O  O603  1  0.08810217  0.18409084  0.82708406  1
  O  O604  1  0.08592218  0.51804261  0.07778478  1
  O  O605  1  0.08697384  0.51815578  0.32837202  1
  O  O606  1  0.08786564  0.51883195  0.57726429  1
  O  O607  1  0.08705419  0.51790207  0.82838643  1
  O  O608  1  0.08896323  0.85262954  0.07625743  1
  O  O609  1  0.08774037  0.85113523  0.32775841  1
  O  O610  1  0.08770484  0.85099320  0.57807123  1
  O  O611  1  0.08657742  0.85245882  0.82764011  1
  O  O612  1  0.58665881  0.18503606  0.07689437  1
  O  O613  1  0.58734469  0.18357202  0.32850475  1
  O  O614  1  0.58731256  0.18594805  0.57632914  1
  O  O615  1  0.58677988  0.18351574  0.82790128  1
  O  O616  1  0.58895535  0.51930276  0.07666919  1
  O  O617  1  0.58637115  0.51969889  0.32751147  1
  O  O618  1  0.58795542  0.51721819  0.57734973  1
  O  O619  1  0.58858772  0.51838732  0.82817369  1
  O  O620  1  0.58641404  0.85100712  0.07661105  1
  O  O621  1  0.58634745  0.85135346  0.32904293  1
  O  O622  1  0.58697130  0.85188585  0.57743299  1
  O  O623  1  0.58794084  0.85290434  0.82688238  1
  O  O624  1  0.33876682  0.18491551  0.04747338  1
  O  O625  1  0.33653809  0.18431872  0.29653370  1
  O  O626  1  0.33806386  0.18449253  0.54817218  1
  O  O627  1  0.33751126  0.18535183  0.79840076  1
  O  O628  1  0.33678897  0.51929635  0.04822883  1
  O  O629  1  0.33787896  0.51832123  0.29888070  1
  O  O630  1  0.33553085  0.51863305  0.54779464  1
  O  O631  1  0.33695143  0.51868154  0.79779932  1
  O  O632  1  0.33787469  0.85102770  0.04732222  1
  O  O633  1  0.34033868  0.85308515  0.29784419  1
  O  O634  1  0.33997134  0.85140405  0.54684580  1
  O  O635  1  0.33925512  0.85079840  0.79671761  1
  O  O636  1  0.83608507  0.18413392  0.04712983  1
  O  O637  1  0.83854420  0.18485323  0.29859309  1
  O  O638  1  0.83740137  0.18386698  0.54683552  1
  O  O639  1  0.83817597  0.18408993  0.79621057  1
  O  O640  1  0.83711500  0.51809344  0.04781230  1
  O  O641  1  0.83923628  0.51843635  0.29836942  1
  O  O642  1  0.83755045  0.51884741  0.54766791  1
  O  O643  1  0.83851812  0.51845338  0.79641821  1
  O  O644  1  0.83608740  0.85233092  0.04729062  1
  O  O645  1  0.83621143  0.85165482  0.29808879  1
  O  O646  1  0.83457417  0.85208451  0.54780246  1
  O  O647  1  0.83724989  0.85245203  0.79865449  1
  O  O648  1  0.16357113  0.14908810  0.20156505  1
  O  O649  1  0.16515907  0.14810797  0.45240945  1
  O  O650  1  0.16229054  0.14899890  0.70320504  1
  O  O651  1  0.16088743  0.14679866  0.95175536  1
  O  O652  1  0.15980493  0.48033475  0.20239602  1
  O  O653  1  0.16087939  0.48258335  0.45294062  1
  O  O654  1  0.15991953  0.48030183  0.70251638  1
  O  O655  1  0.16118251  0.48204283  0.95245712  1
  O  O656  1  0.16244493  0.81523078  0.20298535  1
  O  O657  1  0.16284528  0.81481632  0.45192945  1
  O  O658  1  0.16402750  0.81554492  0.70096596  1
  O  O659  1  0.16484791  0.81663749  0.95209176  1
  O  O660  1  0.66184386  0.14847099  0.20287882  1
  O  O661  1  0.66243276  0.14848684  0.45222748  1
  O  O662  1  0.66278185  0.14687774  0.70231858  1
  O  O663  1  0.66288398  0.14881971  0.95194937  1
  O  O664  1  0.66352859  0.48170444  0.20234511  1
  O  O665  1  0.66194288  0.48196227  0.45322745  1
  O  O666  1  0.66195894  0.48131178  0.70130079  1
  O  O667  1  0.66480811  0.48170685  0.95267561  1
  O  O668  1  0.66001836  0.81478182  0.20211868  1
  O  O669  1  0.66086561  0.81498521  0.45231077  1
  O  O670  1  0.66230729  0.81645010  0.70330735  1
  O  O671  1  0.66284516  0.81485051  0.95328803  1
