# generated using pymatgen
data_Na2MnFe(PO4)2
_symmetry_space_group_name_H-M   'P 1'
_cell_length_a   21.07615211
_cell_length_b   18.92657539
_cell_length_c   20.03563313
_cell_angle_alpha   90.00031254
_cell_angle_beta   90.00150031
_cell_angle_gamma   90.00200765
_symmetry_Int_Tables_number   1
_chemical_formula_structural   Na2MnFe(PO4)2
_chemical_formula_sum   'Na96 Mn48 Fe48 P96 O384'
_cell_volume   7992.20166310
_cell_formula_units_Z   48
loop_
 _symmetry_equiv_pos_site_id
 _symmetry_equiv_pos_as_xyz
  1  'x, y, z'
loop_
 _atom_site_type_symbol
 _atom_site_label
 _atom_site_symmetry_multiplicity
 _atom_site_fract_x
 _atom_site_fract_y
 _atom_site_fract_z
 _atom_site_occupancy
  Na  Na0  1  0.00016264  0.00022675  -0.00087542  1
  Na  Na1  1  -0.00098639  -0.00065489  0.24995905  1
  Na  Na2  1  0.00159001  0.00086345  0.50081550  1
  Na  Na3  1  -0.00014701  -0.00025276  0.75031901  1
  Na  Na4  1  0.00322789  0.33459469  -0.00057207  1
  Na  Na5  1  0.00059591  0.33302135  0.25115725  1
  Na  Na6  1  0.00144452  0.33364367  0.49999308  1
  Na  Na7  1  0.00269882  0.33379805  0.75016887  1
  Na  Na8  1  0.00224441  0.66754069  0.00070466  1
  Na  Na9  1  -0.00145160  0.66628167  0.25123347  1
  Na  Na10  1  0.00042896  0.66720383  0.49921298  1
  Na  Na11  1  0.00187888  0.66689136  0.74865045  1
  Na  Na12  1  0.50002538  -0.00008510  -0.00042510  1
  Na  Na13  1  0.49815537  -0.00083237  0.25114382  1
  Na  Na14  1  0.49919483  0.00059863  0.49949359  1
  Na  Na15  1  0.49858271  -0.00015729  0.75022844  1
  Na  Na16  1  0.50040474  0.33355955  -0.00008268  1
  Na  Na17  1  0.49820613  0.33323924  0.24896408  1
  Na  Na18  1  0.49828246  0.33321971  0.50069138  1
  Na  Na19  1  0.49924626  0.33329703  0.75005496  1
  Na  Na20  1  0.49928144  0.66688330  -0.00086295  1
  Na  Na21  1  0.49903418  0.66672038  0.25036714  1
  Na  Na22  1  0.49842389  0.66643998  0.49963997  1
  Na  Na23  1  0.49830603  0.66652820  0.75039296  1
  Na  Na24  1  0.25097536  -0.00008957  0.12521475  1
  Na  Na25  1  0.25204115  0.00080249  0.37542031  1
  Na  Na26  1  0.25088974  0.00019767  0.62388371  1
  Na  Na27  1  0.25170655  0.00100834  0.87593559  1
  Na  Na28  1  0.24972558  0.33380192  0.12518694  1
  Na  Na29  1  0.25155242  0.33413152  0.37562822  1
  Na  Na30  1  0.24901772  0.33304689  0.62454681  1
  Na  Na31  1  0.24886992  0.33381787  0.87525634  1
  Na  Na32  1  0.25133818  0.66747391  0.12504789  1
  Na  Na33  1  0.25186394  0.66694911  0.37466189  1
  Na  Na34  1  0.25103397  0.66723274  0.62483480  1
  Na  Na35  1  0.25030765  0.66719300  0.87463395  1
  Na  Na36  1  0.74998077  -0.00042973  0.12589916  1
  Na  Na37  1  0.75042684  -0.00015148  0.37472447  1
  Na  Na38  1  0.74864798  -0.00068909  0.62371634  1
  Na  Na39  1  0.75113571  0.00058027  0.87490118  1
  Na  Na40  1  0.74908336  0.33314010  0.12487289  1
  Na  Na41  1  0.75004741  0.33372086  0.37562157  1
  Na  Na42  1  0.74992176  0.33348404  0.62436526  1
  Na  Na43  1  0.74879646  0.33254314  0.87513804  1
  Na  Na44  1  0.74934059  0.66689900  0.12583031  1
  Na  Na45  1  0.75005811  0.66717150  0.37438138  1
  Na  Na46  1  0.74932586  0.66657935  0.62446195  1
  Na  Na47  1  0.74859280  0.66634278  0.87535645  1
  Na  Na48  1  0.00268046  0.16624843  -0.00127664  1
  Na  Na49  1  0.00266078  0.16589494  0.25056420  1
  Na  Na50  1  0.00287711  0.16628325  0.50095376  1
  Na  Na51  1  0.00179783  0.16678255  0.75072251  1
  Na  Na52  1  0.00183472  0.49933483  -0.00017993  1
  Na  Na53  1  -0.00122024  0.50065210  0.25128455  1
  Na  Na54  1  0.00149820  0.49956770  0.49911212  1
  Na  Na55  1  0.00162950  0.49943706  0.75003364  1
  Na  Na56  1  0.00022149  0.83294474  0.00038038  1
  Na  Na57  1  -0.00231909  0.83368426  0.25081185  1
  Na  Na58  1  -0.00213557  0.83379325  0.49950462  1
  Na  Na59  1  0.00234880  0.83155006  0.74884786  1
  Na  Na60  1  0.50121002  0.16650034  -0.00042456  1
  Na  Na61  1  0.49858970  0.16730688  0.24997449  1
  Na  Na62  1  0.49857179  0.16705051  0.50018063  1
  Na  Na63  1  0.50135103  0.16601666  0.75008110  1
  Na  Na64  1  0.49868637  0.49985510  -0.00055080  1
  Na  Na65  1  0.49647625  0.50134034  0.25035060  1
  Na  Na66  1  0.49746352  0.50027450  0.49948917  1
  Na  Na67  1  0.49685782  0.50058679  0.75053902  1
  Na  Na68  1  0.50030331  0.83250240  -0.00026010  1
  Na  Na69  1  0.49951456  0.83310484  0.25003114  1
  Na  Na70  1  0.49970421  0.83277320  0.50015670  1
  Na  Na71  1  0.49767947  0.83384821  0.74989073  1
  Na  Na72  1  0.24910736  0.16647379  0.12572650  1
  Na  Na73  1  0.25044897  0.16578574  0.37503435  1
  Na  Na74  1  0.24857566  0.16700759  0.62364433  1
  Na  Na75  1  0.24782633  0.16716496  0.87585657  1
  Na  Na76  1  0.25247013  0.49933776  0.12530953  1
  Na  Na77  1  0.25324080  0.49945124  0.37495718  1
  Na  Na78  1  0.25112716  0.49970499  0.62495460  1
  Na  Na79  1  0.25033385  0.49978131  0.87482121  1
  Na  Na80  1  0.25063919  0.83282784  0.12446289  1
  Na  Na81  1  0.25277941  0.83162235  0.37544398  1
  Na  Na82  1  0.25093316  0.83325616  0.62467400  1
  Na  Na83  1  0.25137804  0.83229011  0.87542782  1
  Na  Na84  1  0.74796294  0.16762022  0.12503757  1
  Na  Na85  1  0.74887314  0.16696056  0.37590585  1
  Na  Na86  1  0.74895298  0.16704956  0.62432854  1
  Na  Na87  1  0.74923354  0.16686719  0.87489988  1
  Na  Na88  1  0.75007630  0.50008520  0.12539939  1
  Na  Na89  1  0.75138720  0.49972887  0.37488286  1
  Na  Na90  1  0.74986389  0.50056165  0.62428753  1
  Na  Na91  1  0.75054870  0.49951043  0.87477906  1
  Na  Na92  1  0.75022252  0.83285787  0.12616243  1
  Na  Na93  1  0.75051572  0.83291355  0.37378641  1
  Na  Na94  1  0.74894611  0.83330577  0.62402941  1
  Na  Na95  1  0.74906190  0.83361923  0.87560772  1
  Mn  Mn96  1  0.60695828  0.41698972  0.62325994  1
  Mn  Mn97  1  0.60692988  0.74996099  0.62258916  1
  Mn  Mn98  1  0.64140335  0.25039138  0.49736524  1
  Mn  Mn99  1  0.35758539  0.08399015  0.00280313  1
  Mn  Mn100  1  0.85852016  0.08423911  0.25224004  1
  Mn  Mn101  1  0.14198015  0.91639443  0.99800374  1
  Mn  Mn102  1  0.85847438  0.74992703  0.75201755  1
  Mn  Mn103  1  0.14294239  0.25022505  0.24775535  1
  Mn  Mn104  1  0.60752268  0.41685163  0.87247335  1
  Mn  Mn105  1  0.89299114  0.25040496  0.87676527  1
  Mn  Mn106  1  0.85776270  0.08351646  0.00262276  1
  Mn  Mn107  1  0.60695508  0.75009526  0.87282452  1
  Mn  Mn108  1  0.89213466  0.91571417  0.87688225  1
  Mn  Mn109  1  0.60645388  0.08349484  0.37269961  1
  Mn  Mn110  1  0.10741905  0.75074408  0.37285509  1
  Mn  Mn111  1  0.60638282  0.41696700  0.37259709  1
  Mn  Mn112  1  0.89279422  0.24982093  0.12698726  1
  Mn  Mn113  1  0.89253383  0.24925617  0.37709772  1
  Mn  Mn114  1  0.89224651  0.58335643  0.12691092  1
  Mn  Mn115  1  0.39232644  0.91609189  0.12747231  1
  Mn  Mn116  1  0.10833147  0.08258635  0.87185114  1
  Mn  Mn117  1  0.14244361  0.91588992  0.24823247  1
  Mn  Mn118  1  0.64169415  0.91730898  0.74761848  1
  Mn  Mn119  1  0.85822541  0.41658994  0.00223183  1
  Mn  Mn120  1  0.14280422  0.91617730  0.49704225  1
  Mn  Mn121  1  0.85772992  0.74979620  0.00217379  1
  Mn  Mn122  1  0.64182929  0.58255488  0.24800662  1
  Mn  Mn123  1  0.89362534  0.25011945  0.62740766  1
  Mn  Mn124  1  0.60759335  0.08257260  0.12324629  1
  Mn  Mn125  1  0.60797786  0.08291834  0.87232511  1
  Mn  Mn126  1  0.89239708  0.91700712  0.62711358  1
  Mn  Mn127  1  0.39158880  0.24946574  0.87711470  1
  Mn  Mn128  1  0.64233478  0.91707385  0.24805903  1
  Mn  Mn129  1  0.39180358  0.25022852  0.12710521  1
  Mn  Mn130  1  0.39153582  0.25001118  0.62814258  1
  Mn  Mn131  1  0.64193051  0.58255183  0.74705656  1
  Mn  Mn132  1  0.60727977  0.41762474  0.12308628  1
  Mn  Mn133  1  0.39226643  0.91649235  0.62731359  1
  Mn  Mn134  1  0.14271100  0.58315744  0.99861833  1
  Mn  Mn135  1  0.89302127  0.58288376  0.62645371  1
  Mn  Mn136  1  0.85784901  0.41726208  0.50271050  1
  Mn  Mn137  1  0.39129839  0.58371437  0.87782286  1
  Mn  Mn138  1  0.14292018  0.58330737  0.74697139  1
  Mn  Mn139  1  0.89274817  0.58358204  0.87697799  1
  Mn  Mn140  1  0.14322890  0.91740508  0.74778024  1
  Mn  Mn141  1  0.14315044  0.58367999  0.24809835  1
  Mn  Mn142  1  0.85794852  0.08300146  0.50256443  1
  Mn  Mn143  1  0.10835599  0.41694263  0.37271092  1
  Fe  Fe144  1  0.85793672  0.41649544  0.25113569  1
  Fe  Fe145  1  0.14312658  0.24960771  0.74799043  1
  Fe  Fe146  1  0.64303451  0.25012268  0.74830973  1
  Fe  Fe147  1  0.35673051  0.08355808  0.50220135  1
  Fe  Fe148  1  0.39256887  0.91655327  0.37701297  1
  Fe  Fe149  1  0.35761085  0.41634806  0.25191892  1
  Fe  Fe150  1  0.60632180  0.74983169  0.37371611  1
  Fe  Fe151  1  0.60718184  0.08323191  0.62331526  1
  Fe  Fe152  1  0.35769726  0.74976552  0.50200938  1
  Fe  Fe153  1  0.85825151  0.41606385  0.75141799  1
  Fe  Fe154  1  0.10739567  0.75017626  0.12422392  1
  Fe  Fe155  1  0.35616663  0.41591012  0.75195591  1
  Fe  Fe156  1  0.10796203  0.08244487  0.37345849  1
  Fe  Fe157  1  0.10796957  0.08274198  0.12388500  1
  Fe  Fe158  1  0.64174398  0.58323599  0.99870822  1
  Fe  Fe159  1  0.64183938  0.25051277  0.24893934  1
  Fe  Fe160  1  0.14407801  0.58322122  0.49828324  1
  Fe  Fe161  1  0.10844368  0.41766731  0.87275438  1
  Fe  Fe162  1  0.35687707  0.41651668  0.50224759  1
  Fe  Fe163  1  0.89242066  0.91687800  0.37718497  1
  Fe  Fe164  1  0.14372472  0.25036192  0.49808789  1
  Fe  Fe165  1  0.35740309  0.08370716  0.75130426  1
  Fe  Fe166  1  0.89258330  0.91673935  0.12613058  1
  Fe  Fe167  1  0.60709558  0.74970892  0.12353779  1
  Fe  Fe168  1  0.39186891  0.24984183  0.37681727  1
  Fe  Fe169  1  0.14264029  0.25041883  0.99900424  1
  Fe  Fe170  1  0.35723424  0.08319815  0.25209187  1
  Fe  Fe171  1  0.10838403  0.08294652  0.62345065  1
  Fe  Fe172  1  0.10847924  0.41712936  0.62276284  1
  Fe  Fe173  1  0.64162384  0.58391662  0.49799606  1
  Fe  Fe174  1  0.39268317  0.58380149  0.12635836  1
  Fe  Fe175  1  0.10847892  0.74974631  0.87340860  1
  Fe  Fe176  1  0.64258356  0.91663710  0.99846620  1
  Fe  Fe177  1  0.35667387  0.41674890  0.00171570  1
  Fe  Fe178  1  0.85724919  0.74938362  0.25172922  1
  Fe  Fe179  1  0.64220092  0.25009831  0.99818116  1
  Fe  Fe180  1  0.10829111  0.41692095  0.12398697  1
  Fe  Fe181  1  0.85739529  0.08407159  0.75062055  1
  Fe  Fe182  1  0.10844298  0.74978978  0.62206497  1
  Fe  Fe183  1  0.35823559  0.75023092  0.25185348  1
  Fe  Fe184  1  0.85618427  0.74987901  0.50121706  1
  Fe  Fe185  1  0.39237206  0.58368470  0.37753114  1
  Fe  Fe186  1  0.64225612  0.91592205  0.49756284  1
  Fe  Fe187  1  0.35716788  0.74960308  0.00242850  1
  Fe  Fe188  1  0.39196285  0.58328138  0.62649989  1
  Fe  Fe189  1  0.89224084  0.58381291  0.37731954  1
  Fe  Fe190  1  0.39215860  0.91693748  0.87698687  1
  Fe  Fe191  1  0.35672340  0.75048425  0.75198791  1
  P  P192  1  0.05453981  0.25014316  0.10974051  1
  P  P193  1  0.05558147  0.24916146  0.36153847  1
  P  P194  1  0.05667466  0.25016198  0.61077274  1
  P  P195  1  0.05634964  0.25108882  0.86039088  1
  P  P196  1  0.05366660  0.58346612  0.11097318  1
  P  P197  1  0.05375587  0.58380698  0.36134663  1
  P  P198  1  0.05505508  0.58306345  0.60861160  1
  P  P199  1  0.05456938  0.58373290  0.85988843  1
  P  P200  1  0.05229021  0.91618103  0.11056073  1
  P  P201  1  0.05213105  0.91716957  0.36017927  1
  P  P202  1  0.05425515  0.91652069  0.60980702  1
  P  P203  1  0.05365341  0.91524647  0.85953446  1
  P  P204  1  0.55467299  0.25021268  0.11043880  1
  P  P205  1  0.55141259  0.25045703  0.35943584  1
  P  P206  1  0.55409001  0.24945534  0.61128408  1
  P  P207  1  0.55486857  0.25008758  0.85996642  1
  P  P208  1  0.55214388  0.58407431  0.10959965  1
  P  P209  1  0.55252924  0.58410026  0.36127141  1
  P  P210  1  0.55167719  0.58305562  0.60919086  1
  P  P211  1  0.55366037  0.58329044  0.86066190  1
  P  P212  1  0.55377575  0.91564283  0.10963528  1
  P  P213  1  0.55289965  0.91563518  0.36138190  1
  P  P214  1  0.55368049  0.91754399  0.60915371  1
  P  P215  1  0.55257886  0.91645591  0.86077277  1
  P  P216  1  0.44597393  0.08326284  0.14096458  1
  P  P217  1  0.44388371  0.08357605  0.38952774  1
  P  P218  1  0.44602765  0.08345585  0.63969741  1
  P  P219  1  0.44511551  0.08306064  0.88898358  1
  P  P220  1  0.44445787  0.41770162  0.13907167  1
  P  P221  1  0.44384936  0.41630022  0.38949459  1
  P  P222  1  0.44402183  0.41742017  0.63982290  1
  P  P223  1  0.44408601  0.41603835  0.88968729  1
  P  P224  1  0.44624193  0.74906075  0.13941202  1
  P  P225  1  0.44541095  0.75018573  0.38951599  1
  P  P226  1  0.44447845  0.74898095  0.63955940  1
  P  P227  1  0.44390801  0.75101992  0.88956259  1
  P  P228  1  0.94850958  0.08321448  0.13967160  1
  P  P229  1  0.94819265  0.08281651  0.39052840  1
  P  P230  1  0.94833025  0.08370548  0.64069277  1
  P  P231  1  0.94559370  0.08353827  0.88861807  1
  P  P232  1  0.94830104  0.41637646  0.14061014  1
  P  P233  1  0.94534246  0.41708046  0.38912342  1
  P  P234  1  0.94858099  0.41665685  0.64036855  1
  P  P235  1  0.94759710  0.41666521  0.88887809  1
  P  P236  1  0.94711743  0.75045431  0.14069781  1
  P  P237  1  0.94419233  0.75000210  0.38943202  1
  P  P238  1  0.94722208  0.74960798  0.63807963  1
  P  P239  1  0.94863849  0.74945730  0.89009184  1
  P  P240  1  0.19656283  0.08246691  0.23602856  1
  P  P241  1  0.19609577  0.08373212  0.48543105  1
  P  P242  1  0.19810635  0.08366611  0.73422329  1
  P  P243  1  0.19504380  0.08368373  0.98660597  1
  P  P244  1  0.19812739  0.41723355  0.23502243  1
  P  P245  1  0.19698869  0.41731574  0.48616725  1
  P  P246  1  0.19630979  0.41612828  0.73531185  1
  P  P247  1  0.19597486  0.41657274  0.98597097  1
  P  P248  1  0.19808596  0.75004099  0.23483237  1
  P  P249  1  0.19727101  0.74889885  0.48568451  1
  P  P250  1  0.19663151  0.75040761  0.73516263  1
  P  P251  1  0.19622592  0.74972419  0.98588640  1
  P  P252  1  0.69656421  0.08422307  0.23549239  1
  P  P253  1  0.69493808  0.08228498  0.48576674  1
  P  P254  1  0.69713456  0.08416603  0.73403810  1
  P  P255  1  0.69617433  0.08275258  0.98527539  1
  P  P256  1  0.69756385  0.41618946  0.23542194  1
  P  P257  1  0.69580737  0.41796729  0.48481129  1
  P  P258  1  0.69808845  0.41573405  0.73476843  1
  P  P259  1  0.69615312  0.41713579  0.98515636  1
  P  P260  1  0.69544064  0.74975797  0.23603137  1
  P  P261  1  0.69592064  0.75001919  0.48397602  1
  P  P262  1  0.69658763  0.75004262  0.73465265  1
  P  P263  1  0.69473624  0.75003543  0.98676153  1
  P  P264  1  0.30177340  0.25082697  0.01512321  1
  P  P265  1  0.30397376  0.24995769  0.26562595  1
  P  P266  1  0.30373775  0.24991019  0.51376798  1
  P  P267  1  0.30170820  0.24962225  0.76494220  1
  P  P268  1  0.30399620  0.58338778  0.01559400  1
  P  P269  1  0.30596741  0.58378482  0.26424481  1
  P  P270  1  0.30458761  0.58346849  0.51434575  1
  P  P271  1  0.30454805  0.58334818  0.76360700  1
  P  P272  1  0.30439024  0.91591561  0.01418370  1
  P  P273  1  0.30427061  0.91618636  0.26569638  1
  P  P274  1  0.30505826  0.91651991  0.51358687  1
  P  P275  1  0.30425218  0.91711933  0.76551476  1
  P  P276  1  0.80214082  0.25005856  0.01487748  1
  P  P277  1  0.80206840  0.25077707  0.26509402  1
  P  P278  1  0.80351636  0.24994920  0.51528719  1
  P  P279  1  0.80290267  0.24991699  0.76444601  1
  P  P280  1  0.80167900  0.58344173  0.01506751  1
  P  P281  1  0.80423937  0.58327467  0.26534175  1
  P  P282  1  0.80280908  0.58474393  0.51362105  1
  P  P283  1  0.80368956  0.58247805  0.76471328  1
  P  P284  1  0.80260870  0.91638604  0.01587208  1
  P  P285  1  0.80575755  0.91610197  0.26431786  1
  P  P286  1  0.80321991  0.91556994  0.51343213  1
  P  P287  1  0.80313467  0.91754949  0.76456065  1
  O  O288  1  0.05708335  0.25017659  0.18664951  1
  O  O289  1  0.05988669  0.25032727  0.43833737  1
  O  O290  1  0.06027903  0.24992803  0.68768114  1
  O  O291  1  0.06011086  0.25052454  0.93719442  1
  O  O292  1  0.05621523  0.58340308  0.18776425  1
  O  O293  1  0.05957754  0.58358659  0.43792012  1
  O  O294  1  0.05781606  0.58314051  0.68544659  1
  O  O295  1  0.05725066  0.58346067  0.93667989  1
  O  O296  1  0.05568255  0.91619082  0.18726596  1
  O  O297  1  0.05641742  0.91639157  0.43685141  1
  O  O298  1  0.05734194  0.91628442  0.68656090  1
  O  O299  1  0.05649614  0.91623361  0.93634505  1
  O  O300  1  0.55883393  0.25046632  0.18725292  1
  O  O301  1  0.55537836  0.25057763  0.43621426  1
  O  O302  1  0.55873022  0.25014123  0.68803436  1
  O  O303  1  0.55924241  0.25018810  0.93681175  1
  O  O304  1  0.55561586  0.58318797  0.18640986  1
  O  O305  1  0.55754749  0.58342492  0.43791715  1
  O  O306  1  0.55554397  0.58294457  0.68598808  1
  O  O307  1  0.55823684  0.58298180  0.93742645  1
  O  O308  1  0.55663927  0.91653450  0.18650990  1
  O  O309  1  0.55764633  0.91612325  0.43803803  1
  O  O310  1  0.55625485  0.91683400  0.68603772  1
  O  O311  1  0.55784135  0.91660710  0.93740367  1
  O  O312  1  0.44324229  0.08352734  0.06409429  1
  O  O313  1  0.44032636  0.08349030  0.31268980  1
  O  O314  1  0.44085227  0.08399237  0.56299722  1
  O  O315  1  0.44082085  0.08410830  0.81219767  1
  O  O316  1  0.44064394  0.41633598  0.06226737  1
  O  O317  1  0.44063001  0.41625606  0.31260213  1
  O  O318  1  0.44008711  0.41630484  0.56296846  1
  O  O319  1  0.43944005  0.41564833  0.81286998  1
  O  O320  1  0.44163388  0.74975053  0.06270870  1
  O  O321  1  0.44170446  0.75027624  0.31273253  1
  O  O322  1  0.44088948  0.74974000  0.56270445  1
  O  O323  1  0.43994961  0.75025240  0.81271970  1
  O  O324  1  0.94475474  0.08408223  0.06293400  1
  O  O325  1  0.94435754  0.08368000  0.31378300  1
  O  O326  1  0.94411648  0.08390190  0.56396177  1
  O  O327  1  0.94087838  0.08397228  0.81187829  1
  O  O328  1  0.94455781  0.41646163  0.06380286  1
  O  O329  1  0.94099816  0.41637813  0.31234689  1
  O  O330  1  0.94409040  0.41656193  0.56362271  1
  O  O331  1  0.94219874  0.41613991  0.81221937  1
  O  O332  1  0.94375989  0.74967391  0.06392011  1
  O  O333  1  0.94047011  0.74957248  0.31262640  1
  O  O334  1  0.94125985  0.74975069  0.56151857  1
  O  O335  1  0.94477450  0.74930659  0.81333619  1
  O  O336  1  0.19110270  0.08244360  0.06344220  1
  O  O337  1  0.19181624  0.08206567  0.31273949  1
  O  O338  1  0.19157334  0.08267319  0.56214225  1
  O  O339  1  0.19446708  0.08277401  0.81099554  1
  O  O340  1  0.19161348  0.41746097  0.06273088  1
  O  O341  1  0.19426100  0.41746062  0.31175336  1
  O  O342  1  0.19277858  0.41738610  0.56288189  1
  O  O343  1  0.19213924  0.41736937  0.81207944  1
  O  O344  1  0.19099281  0.75011918  0.06257182  1
  O  O345  1  0.19367738  0.75003063  0.31154006  1
  O  O346  1  0.19245593  0.74990557  0.56240291  1
  O  O347  1  0.19211538  0.75007812  0.81190065  1
  O  O348  1  0.69336513  0.08265095  0.06204494  1
  O  O349  1  0.69305803  0.08327958  0.31227980  1
  O  O350  1  0.69082544  0.08297544  0.56252071  1
  O  O351  1  0.69371674  0.08319287  0.81082390  1
  O  O352  1  0.69320115  0.41739257  0.06194830  1
  O  O353  1  0.69338377  0.41698745  0.31208854  1
  O  O354  1  0.69241553  0.41756997  0.56157800  1
  O  O355  1  0.69409937  0.41647648  0.81144954  1
  O  O356  1  0.69120890  0.74982975  0.06359364  1
  O  O357  1  0.69018218  0.74992961  0.31267038  1
  O  O358  1  0.69247846  0.74980576  0.56073319  1
  O  O359  1  0.69299522  0.75011784  0.81145712  1
  O  O360  1  0.30628011  0.24989365  0.18877007  1
  O  O361  1  0.30784926  0.24978730  0.43709876  1
  O  O362  1  0.30504699  0.24965115  0.68819346  1
  O  O363  1  0.30518580  0.25003468  0.93843568  1
  O  O364  1  0.30928196  0.58412522  0.18743936  1
  O  O365  1  0.30868702  0.58374703  0.43753546  1
  O  O366  1  0.30772435  0.58346394  0.68678091  1
  O  O367  1  0.30580693  0.58355097  0.93872336  1
  O  O368  1  0.30667278  0.91609772  0.18883623  1
  O  O369  1  0.30880057  0.91625683  0.43683438  1
  O  O370  1  0.30662692  0.91709294  0.68861698  1
  O  O371  1  0.30815683  0.91659276  0.93743760  1
  O  O372  1  0.80601871  0.24998050  0.18837638  1
  O  O373  1  0.80706719  0.24972324  0.43851740  1
  O  O374  1  0.80671171  0.25015369  0.68774821  1
  O  O375  1  0.80669657  0.24997659  0.93821377  1
  O  O376  1  0.80701779  0.58350952  0.18850122  1
  O  O377  1  0.80778762  0.58384453  0.43696610  1
  O  O378  1  0.80696929  0.58328828  0.68788023  1
  O  O379  1  0.80589404  0.58360828  0.93836974  1
  O  O380  1  0.80997399  0.91686255  0.18750752  1
  O  O381  1  0.80818903  0.91682082  0.43673070  1
  O  O382  1  0.80616275  0.91653972  0.68770478  1
  O  O383  1  0.80656989  0.91626242  0.93910335  1
  O  O384  1  0.23191946  0.25040448  0.04028486  1
  O  O385  1  0.23436014  0.25020117  0.29116453  1
  O  O386  1  0.23347259  0.25008679  0.53786750  1
  O  O387  1  0.23178899  0.24991735  0.78995132  1
  O  O388  1  0.23457448  0.58340484  0.04155997  1
  O  O389  1  0.23605474  0.58340672  0.28918318  1
  O  O390  1  0.23437908  0.58340835  0.53857750  1
  O  O391  1  0.23478474  0.58334206  0.78873963  1
  O  O392  1  0.23453629  0.91631086  0.03892697  1
  O  O393  1  0.23471696  0.91591758  0.29147985  1
  O  O394  1  0.23516951  0.91671470  0.53821557  1
  O  O395  1  0.23471440  0.91694837  0.79126142  1
  O  O396  1  0.73184870  0.25024177  0.03868420  1
  O  O397  1  0.73203478  0.25052712  0.28999231  1
  O  O398  1  0.73357799  0.25027514  0.53961248  1
  O  O399  1  0.73286626  0.24978766  0.78925534  1
  O  O400  1  0.73166905  0.58348041  0.03976113  1
  O  O401  1  0.73438211  0.58333569  0.29032059  1
  O  O402  1  0.73243177  0.58426096  0.53734177  1
  O  O403  1  0.73393068  0.58273788  0.78975470  1
  O  O404  1  0.73252601  0.91625205  0.04026881  1
  O  O405  1  0.73551100  0.91671513  0.28814446  1
  O  O406  1  0.73285202  0.91561220  0.53701311  1
  O  O407  1  0.73350224  0.91738530  0.78999059  1
  O  O408  1  0.26702031  0.08304869  0.21254354  1
  O  O409  1  0.26660339  0.08329955  0.46209989  1
  O  O410  1  0.26813563  0.08346008  0.70949506  1
  O  O411  1  0.26500322  0.08385949  0.96224282  1
  O  O412  1  0.26835499  0.41669316  0.21106866  1
  O  O413  1  0.26729689  0.41702592  0.46218142  1
  O  O414  1  0.26666213  0.41641134  0.71143008  1
  O  O415  1  0.26630067  0.41722428  0.96202957  1
  O  O416  1  0.26838915  0.75021625  0.21109704  1
  O  O417  1  0.26769969  0.74916051  0.46224894  1
  O  O418  1  0.26710482  0.75045945  0.71169562  1
  O  O419  1  0.26670256  0.74927476  0.96267033  1
  O  O420  1  0.76627897  0.08378380  0.21038766  1
  O  O421  1  0.76500011  0.08286000  0.46149179  1
  O  O422  1  0.76714740  0.08370570  0.70911254  1
  O  O423  1  0.76578114  0.08331379  0.95972439  1
  O  O424  1  0.76763802  0.41677154  0.21079052  1
  O  O425  1  0.76568880  0.41721984  0.46022022  1
  O  O426  1  0.76811339  0.41627035  0.70996747  1
  O  O427  1  0.76583572  0.41646690  0.95976732  1
  O  O428  1  0.76611357  0.74951385  0.21315378  1
  O  O429  1  0.76597208  0.75020355  0.45931566  1
  O  O430  1  0.76631092  0.74996663  0.70964148  1
  O  O431  1  0.76458371  0.75014646  0.96170600  1
  O  O432  1  0.01855168  0.08287252  0.16449153  1
  O  O433  1  0.01825981  0.08306362  0.41511879  1
  O  O434  1  0.01862302  0.08343387  0.66465252  1
  O  O435  1  0.01584696  0.08330508  0.91211024  1
  O  O436  1  0.01841428  0.41671493  0.16525072  1
  O  O437  1  0.01551816  0.41683652  0.41302932  1
  O  O438  1  0.01896314  0.41668814  0.66389281  1
  O  O439  1  0.01810133  0.41713306  0.91205684  1
  O  O440  1  0.01716200  0.74981427  0.16570376  1
  O  O441  1  0.01435894  0.75038096  0.41356345  1
  O  O442  1  0.01791886  0.74930146  0.66080217  1
  O  O443  1  0.01862639  0.74992568  0.91475950  1
  O  O444  1  0.51557421  0.08304652  0.16629017  1
  O  O445  1  0.51392760  0.08373811  0.41390162  1
  O  O446  1  0.51641914  0.08294671  0.66313728  1
  O  O447  1  0.51513287  0.08332756  0.91314201  1
  O  O448  1  0.51440687  0.41739180  0.16371926  1
  O  O449  1  0.51374148  0.41667516  0.41433518  1
  O  O450  1  0.51399875  0.41691848  0.66424199  1
  O  O451  1  0.51427211  0.41640715  0.91323037  1
  O  O452  1  0.51654266  0.74984330  0.16339169  1
  O  O453  1  0.51563116  0.74979338  0.41388823  1
  O  O454  1  0.51442256  0.75006646  0.66408053  1
  O  O455  1  0.51398773  0.74990026  0.91352826  1
  O  O456  1  0.48453124  0.25000960  0.08633575  1
  O  O457  1  0.48121409  0.25019265  0.33543938  1
  O  O458  1  0.48389646  0.24995530  0.58743596  1
  O  O459  1  0.48468639  0.24983270  0.83623039  1
  O  O460  1  0.48213690  0.58357817  0.08481115  1
  O  O461  1  0.48203793  0.58393345  0.33796915  1
  O  O462  1  0.48152228  0.58324643  0.58499632  1
  O  O463  1  0.48348842  0.58364518  0.83709591  1
  O  O464  1  0.48402547  0.91615774  0.08463338  1
  O  O465  1  0.48252319  0.91616139  0.33765595  1
  O  O466  1  0.48390045  0.91691747  0.58417445  1
  O  O467  1  0.48227092  0.91665259  0.83705267  1
  O  O468  1  0.98504787  0.25033398  0.08372744  1
  O  O469  1  0.98563675  0.24934384  0.33713364  1
  O  O470  1  0.98665854  0.25029344  0.58627347  1
  O  O471  1  0.98632190  0.25033950  0.83605523  1
  O  O472  1  0.98422257  0.58346548  0.08487869  1
  O  O473  1  0.98317108  0.58391742  0.33856209  1
  O  O474  1  0.98532127  0.58315469  0.58343360  1
  O  O475  1  0.98515943  0.58340961  0.83389998  1
  O  O476  1  0.98236407  0.91643802  0.08523475  1
  O  O477  1  0.98200918  0.91655827  0.33606599  1
  O  O478  1  0.98451969  0.91691450  0.58460331  1
  O  O479  1  0.98415623  0.91531251  0.83388382  1
  O  O480  1  0.08915145  0.31537171  0.07785667  1
  O  O481  1  0.08921657  0.31409802  0.32809376  1
  O  O482  1  0.09051611  0.31532712  0.57792722  1
  O  O483  1  0.08982335  0.31638257  0.82765594  1
  O  O484  1  0.08803897  0.64870934  0.07901195  1
  O  O485  1  0.08681887  0.64889144  0.32773397  1
  O  O486  1  0.08961674  0.64797354  0.57623307  1
  O  O487  1  0.08877325  0.64902695  0.82778816  1
  O  O488  1  0.08651405  0.98108261  0.07788260  1
  O  O489  1  0.08573218  0.98236335  0.32755695  1
  O  O490  1  0.08851002  0.98181512  0.57782876  1
  O  O491  1  0.08784286  0.98039884  0.82698027  1
  O  O492  1  0.58813943  0.31532282  0.07726051  1
  O  O493  1  0.58510427  0.31549845  0.32638350  1
  O  O494  1  0.58741825  0.31452818  0.57782127  1
  O  O495  1  0.58833764  0.31510674  0.82660412  1
  O  O496  1  0.58601847  0.64928187  0.07727704  1
  O  O497  1  0.58570626  0.64919385  0.32802361  1
  O  O498  1  0.58567731  0.64809511  0.57639334  1
  O  O499  1  0.58714524  0.64829345  0.82751117  1
  O  O500  1  0.58820589  0.98046653  0.07685241  1
  O  O501  1  0.58627671  0.98063138  0.32783784  1
  O  O502  1  0.58766189  0.98274115  0.57700728  1
  O  O503  1  0.58592360  0.98144531  0.82719633  1
  O  O504  1  0.41149969  0.01827081  0.17316241  1
  O  O505  1  0.41035131  0.01839243  0.42253029  1
  O  O506  1  0.41235588  0.01849018  0.67280616  1
  O  O507  1  0.41158041  0.01783001  0.92170730  1
  O  O508  1  0.41043551  0.35293669  0.17252652  1
  O  O509  1  0.41020513  0.35113765  0.42246626  1
  O  O510  1  0.40998323  0.35261929  0.67324661  1
  O  O511  1  0.41068957  0.35109665  0.92324442  1
  O  O512  1  0.41308689  0.68382344  0.17255742  1
  O  O513  1  0.41152076  0.68519699  0.42259240  1
  O  O514  1  0.41118321  0.68359563  0.67216902  1
  O  O515  1  0.40978017  0.68628618  0.92293002  1
  O  O516  1  0.91424915  0.01822823  0.17185698  1
  O  O517  1  0.91437604  0.01753486  0.42295305  1
  O  O518  1  0.91415991  0.01874076  0.67321015  1
  O  O519  1  0.91225956  0.01830882  0.92168243  1
  O  O520  1  0.91443426  0.35124389  0.17332745  1
  O  O521  1  0.91204143  0.35203743  0.42254202  1
  O  O522  1  0.91501435  0.35165711  0.67363373  1
  O  O523  1  0.91481574  0.35155731  0.92277488  1
  O  O524  1  0.91257700  0.68567165  0.17349054  1
  O  O525  1  0.91067650  0.68495423  0.42275517  1
  O  O526  1  0.91428602  0.68453757  0.67181446  1
  O  O527  1  0.91501722  0.68436899  0.92310454  1
  O  O528  1  0.16350754  0.01741172  0.20236866  1
  O  O529  1  0.16266272  0.01891448  0.45147247  1
  O  O530  1  0.16411627  0.01875353  0.70113927  1
  O  O531  1  0.16167578  0.01872627  0.95294765  1
  O  O532  1  0.16399101  0.35235343  0.20232287  1
  O  O533  1  0.16354517  0.35221258  0.45307833  1
  O  O534  1  0.16304556  0.35089257  0.70253397  1
  O  O535  1  0.16274589  0.35134852  0.95301296  1
  O  O536  1  0.16442123  0.68503893  0.20182060  1
  O  O537  1  0.16417872  0.68375082  0.45250148  1
  O  O538  1  0.16331070  0.68543883  0.70155790  1
  O  O539  1  0.16286948  0.68469710  0.95242587  1
  O  O540  1  0.66237608  0.01915518  0.20286928  1
  O  O541  1  0.66159273  0.01696568  0.45284395  1
  O  O542  1  0.66261101  0.01940871  0.70120864  1
  O  O543  1  0.66243669  0.01725106  0.95284198  1
  O  O544  1  0.66369423  0.35111357  0.20292667  1
  O  O545  1  0.66155698  0.35293200  0.45223236  1
  O  O546  1  0.66423485  0.35050187  0.70235185  1
  O  O547  1  0.66163701  0.35207432  0.95301652  1
  O  O548  1  0.66203262  0.68478922  0.20253495  1
  O  O549  1  0.66184989  0.68495882  0.45119974  1
  O  O550  1  0.66240157  0.68498243  0.70213092  1
  O  O551  1  0.66087256  0.68490868  0.95394873  1
  O  O552  1  0.33560077  0.31608960  0.04740805  1
  O  O553  1  0.33841905  0.31502595  0.29776919  1
  O  O554  1  0.33708404  0.31494697  0.54709227  1
  O  O555  1  0.33569294  0.31466867  0.79754056  1
  O  O556  1  0.33865595  0.64838166  0.04775610  1
  O  O557  1  0.33960302  0.64896236  0.29731298  1
  O  O558  1  0.33825316  0.64841278  0.54758277  1
  O  O559  1  0.33823084  0.64852676  0.79637976  1
  O  O560  1  0.33831874  0.98076466  0.04731038  1
  O  O561  1  0.33860466  0.98134521  0.29781907  1
  O  O562  1  0.33874050  0.98173714  0.54634597  1
  O  O563  1  0.33856345  0.98228045  0.79762364  1
  O  O564  1  0.83586560  0.31508754  0.04782159  1
  O  O565  1  0.83604449  0.31594295  0.29740783  1
  O  O566  1  0.83764532  0.31499170  0.54779749  1
  O  O567  1  0.83674888  0.31505617  0.79733681  1
  O  O568  1  0.83557794  0.64844378  0.04792020  1
  O  O569  1  0.83840605  0.64838080  0.29783338  1
  O  O570  1  0.83585301  0.65012143  0.54666492  1
  O  O571  1  0.83774231  0.64754526  0.79749843  1
  O  O572  1  0.83665469  0.98146301  0.04858828  1
  O  O573  1  0.83966436  0.98089300  0.29782961  1
  O  O574  1  0.83661915  0.98042143  0.54727875  1
  O  O575  1  0.83724002  0.98296179  0.79621403  1
  O  O576  1  0.41150751  0.14825060  0.17319887  1
  O  O577  1  0.41019491  0.14868756  0.42257252  1
  O  O578  1  0.41277718  0.14837375  0.67360321  1
  O  O579  1  0.41161347  0.14805008  0.92252948  1
  O  O580  1  0.41093842  0.48306958  0.17151393  1
  O  O581  1  0.40974957  0.48141151  0.42209759  1
  O  O582  1  0.41050247  0.48280444  0.67216352  1
  O  O583  1  0.41028485  0.48103563  0.92270509  1
  O  O584  1  0.41234744  0.81376254  0.17307058  1
  O  O585  1  0.41192013  0.81519543  0.42282013  1
  O  O586  1  0.41015514  0.81374600  0.67257323  1
  O  O587  1  0.41084826  0.81630627  0.92260363  1
  O  O588  1  0.91510813  0.14841251  0.17290648  1
  O  O589  1  0.91435834  0.14775694  0.42357837  1
  O  O590  1  0.91473266  0.14877075  0.67377395  1
  O  O591  1  0.91260384  0.14865395  0.92225877  1
  O  O592  1  0.91386556  0.48124902  0.17312842  1
  O  O593  1  0.91206982  0.48249136  0.42202011  1
  O  O594  1  0.91486055  0.48172548  0.67315616  1
  O  O595  1  0.91429097  0.48170521  0.92231925  1
  O  O596  1  0.91314672  0.81570562  0.17284833  1
  O  O597  1  0.91040345  0.81517663  0.42217355  1
  O  O598  1  0.91448740  0.81473382  0.67199507  1
  O  O599  1  0.91432389  0.81436827  0.92267446  1
  O  O600  1  0.08894419  0.18495274  0.07774365  1
  O  O601  1  0.08912915  0.18379316  0.32909807  1
  O  O602  1  0.09043573  0.18499189  0.57801339  1
  O  O603  1  0.09049552  0.18625525  0.82716395  1
  O  O604  1  0.08800729  0.51835320  0.07874355  1
  O  O605  1  0.08682602  0.51880785  0.32756117  1
  O  O606  1  0.08925089  0.51778039  0.57643867  1
  O  O607  1  0.08918657  0.51872293  0.82761795  1
  O  O608  1  0.08613014  0.85077369  0.07824479  1
  O  O609  1  0.08600036  0.85221617  0.32705857  1
  O  O610  1  0.08816164  0.85142392  0.57694121  1
  O  O611  1  0.08817070  0.85015134  0.82777807  1
  O  O612  1  0.58836061  0.18515688  0.07741458  1
  O  O613  1  0.58551162  0.18553009  0.32672350  1
  O  O614  1  0.58713044  0.18409395  0.57822564  1
  O  O615  1  0.58875762  0.18520223  0.82687252  1
  O  O616  1  0.58634801  0.51923773  0.07659417  1
  O  O617  1  0.58539559  0.51903629  0.32728759  1
  O  O618  1  0.58545097  0.51806151  0.57625746  1
  O  O619  1  0.58661110  0.51810501  0.82711405  1
  O  O620  1  0.58771378  0.85035267  0.07757227  1
  O  O621  1  0.58599171  0.85047518  0.32810378  1
  O  O622  1  0.58811490  0.85258454  0.57657957  1
  O  O623  1  0.58564880  0.85136555  0.82724498  1
  O  O624  1  0.33595706  0.18602999  0.04810363  1
  O  O625  1  0.33809540  0.18480681  0.29794065  1
  O  O626  1  0.33693186  0.18476011  0.54718198  1
  O  O627  1  0.33547125  0.18443935  0.79753736  1
  O  O628  1  0.33855990  0.51828883  0.04743012  1
  O  O629  1  0.34001172  0.51870746  0.29691063  1
  O  O630  1  0.33814311  0.51832290  0.54731112  1
  O  O631  1  0.33824904  0.51817107  0.79628801  1
  O  O632  1  0.33787845  0.85052305  0.04687278  1
  O  O633  1  0.33899164  0.85117189  0.29775972  1
  O  O634  1  0.33854446  0.85135674  0.54660240  1
  O  O635  1  0.33867241  0.85201470  0.79762259  1
  O  O636  1  0.83555462  0.18497664  0.04811553  1
  O  O637  1  0.83604565  0.18569377  0.29805150  1
  O  O638  1  0.83730890  0.18481799  0.54797725  1
  O  O639  1  0.83663940  0.18462153  0.79697446  1
  O  O640  1  0.83569179  0.51830957  0.04760211  1
  O  O641  1  0.83851693  0.51816452  0.29757368  1
  O  O642  1  0.83658281  0.51999082  0.54729382  1
  O  O643  1  0.83769729  0.51706986  0.79670302  1
  O  O644  1  0.83678421  0.85146592  0.04866108  1
  O  O645  1  0.83880350  0.85061507  0.29704301  1
  O  O646  1  0.83643749  0.85020375  0.54633035  1
  O  O647  1  0.83726060  0.85247646  0.79730318  1
  O  O648  1  0.16282262  0.14741106  0.20294858  1
  O  O649  1  0.16303044  0.14902306  0.45247009  1
  O  O650  1  0.16404541  0.14873939  0.70189653  1
  O  O651  1  0.16139926  0.14896241  0.95425445  1
  O  O652  1  0.16464091  0.48223988  0.20189591  1
  O  O653  1  0.16401443  0.48251570  0.45266530  1
  O  O654  1  0.16281835  0.48091785  0.70148476  1
  O  O655  1  0.16235760  0.48141311  0.95224435  1
  O  O656  1  0.16419730  0.81496644  0.20178791  1
  O  O657  1  0.16404330  0.81389703  0.45195047  1
  O  O658  1  0.16335816  0.81542001  0.70176732  1
  O  O659  1  0.16315327  0.81467178  0.95199271  1
  O  O660  1  0.66249675  0.14943623  0.20352146  1
  O  O661  1  0.66101041  0.14728971  0.45270873  1
  O  O662  1  0.66308202  0.14944591  0.70189263  1
  O  O663  1  0.66166342  0.14777844  0.95309980  1
  O  O664  1  0.66351907  0.48119966  0.20245568  1
  O  O665  1  0.66217668  0.48323920  0.45219687  1
  O  O666  1  0.66379872  0.48060936  0.70185212  1
  O  O667  1  0.66231061  0.48248707  0.95269511  1
  O  O668  1  0.66234348  0.81478570  0.20239551  1
  O  O669  1  0.66178123  0.81505903  0.45126880  1
  O  O670  1  0.66248137  0.81514339  0.70220938  1
  O  O671  1  0.66096613  0.81537391  0.95405746  1
