# generated using pymatgen
data_Na2MnFe(PO4)2
_symmetry_space_group_name_H-M   'P 1'
_cell_length_a   21.09473283
_cell_length_b   18.94820668
_cell_length_c   20.05210199
_cell_angle_alpha   90.00049676
_cell_angle_beta   89.99830258
_cell_angle_gamma   89.99729488
_symmetry_Int_Tables_number   1
_chemical_formula_structural   Na2MnFe(PO4)2
_chemical_formula_sum   'Na96 Mn48 Fe48 P96 O384'
_cell_volume   8014.97268593
_cell_formula_units_Z   48
loop_
 _symmetry_equiv_pos_site_id
 _symmetry_equiv_pos_as_xyz
  1  'x, y, z'
loop_
 _atom_site_type_symbol
 _atom_site_label
 _atom_site_symmetry_multiplicity
 _atom_site_fract_x
 _atom_site_fract_y
 _atom_site_fract_z
 _atom_site_occupancy
  Na  Na0  1  0.00182106  0.00047011  -0.00097500  1
  Na  Na1  1  -0.00167717  -0.00070069  0.24984173  1
  Na  Na2  1  -0.00172764  -0.00074594  0.50105190  1
  Na  Na3  1  0.00139007  0.00002478  0.75007621  1
  Na  Na4  1  0.00138932  0.33427301  -0.00034549  1
  Na  Na5  1  -0.00116369  0.33320352  0.25009117  1
  Na  Na6  1  -0.00037280  0.33404771  0.50006051  1
  Na  Na7  1  -0.00125372  0.33319472  0.74984390  1
  Na  Na8  1  0.00044981  0.66655099  -0.00059959  1
  Na  Na9  1  0.00063578  0.66654171  0.25022244  1
  Na  Na10  1  -0.00047863  0.66636142  0.50086496  1
  Na  Na11  1  0.00086375  0.66726847  0.74945906  1
  Na  Na12  1  0.49668302  -0.00079828  0.00002094  1
  Na  Na13  1  0.49953870  -0.00039705  0.25003194  1
  Na  Na14  1  0.50322712  0.00073753  0.49993007  1
  Na  Na15  1  0.50013440  0.00016146  0.75010190  1
  Na  Na16  1  0.49936800  0.33383154  -0.00101298  1
  Na  Na17  1  0.50207598  0.33459506  0.25057070  1
  Na  Na18  1  0.50033686  0.33388519  0.50004012  1
  Na  Na19  1  0.49657190  0.33238081  0.75024504  1
  Na  Na20  1  0.50259287  0.66699482  -0.00049035  1
  Na  Na21  1  0.50371118  0.66715295  0.25002278  1
  Na  Na22  1  0.50275088  0.66644895  0.50063973  1
  Na  Na23  1  0.50188359  0.66691022  0.75038520  1
  Na  Na24  1  0.25186249  0.00006874  0.12494592  1
  Na  Na25  1  0.25185264  0.00010956  0.37550124  1
  Na  Na26  1  0.24851020  -0.00144309  0.62443142  1
  Na  Na27  1  0.25050949  -0.00029853  0.87470346  1
  Na  Na28  1  0.24763552  0.33293588  0.12474764  1
  Na  Na29  1  0.24797525  0.33292902  0.37535654  1
  Na  Na30  1  0.25301471  0.33486362  0.62584781  1
  Na  Na31  1  0.24958048  0.33286748  0.87411994  1
  Na  Na32  1  0.24823596  0.66535291  0.12472176  1
  Na  Na33  1  0.24928035  0.66570979  0.37505209  1
  Na  Na34  1  0.24914525  0.66592389  0.62486027  1
  Na  Na35  1  0.24945536  0.66652254  0.87491286  1
  Na  Na36  1  0.74936362  -0.00007956  0.12493563  1
  Na  Na37  1  0.74833131  -0.00028914  0.37570445  1
  Na  Na38  1  0.74943640  0.00008935  0.62407167  1
  Na  Na39  1  0.75062322  0.00033597  0.87509387  1
  Na  Na40  1  0.75151080  0.33416387  0.12544218  1
  Na  Na41  1  0.74939921  0.33353989  0.37364167  1
  Na  Na42  1  0.75052719  0.33396405  0.62515290  1
  Na  Na43  1  0.75173661  0.33410947  0.87627376  1
  Na  Na44  1  0.74825599  0.66649770  0.12547165  1
  Na  Na45  1  0.74762924  0.66615975  0.37445989  1
  Na  Na46  1  0.74832012  0.66671403  0.62531774  1
  Na  Na47  1  0.74864122  0.66672500  0.87537715  1
  Na  Na48  1  0.00114303  0.16699073  -0.00061124  1
  Na  Na49  1  0.00099133  0.16670844  0.25028935  1
  Na  Na50  1  0.00039781  0.16610806  0.49989005  1
  Na  Na51  1  0.00137483  0.16584332  0.75080138  1
  Na  Na52  1  0.00139933  0.50012572  -0.00073073  1
  Na  Na53  1  0.00020077  0.50031799  0.25078078  1
  Na  Na54  1  0.00066023  0.49974848  0.50043416  1
  Na  Na55  1  0.00126291  0.49997453  0.74917387  1
  Na  Na56  1  0.00037357  0.83220934  -0.00081369  1
  Na  Na57  1  -0.00247562  0.83304378  0.24933974  1
  Na  Na58  1  -0.00385805  0.83418909  0.50149889  1
  Na  Na59  1  -0.00157208  0.83312581  0.74943162  1
  Na  Na60  1  0.49941595  0.16650040  -0.00009109  1
  Na  Na61  1  0.50216080  0.16599264  0.24978698  1
  Na  Na62  1  0.50195424  0.16657802  0.49942770  1
  Na  Na63  1  0.49872829  0.16723885  0.75020490  1
  Na  Na64  1  0.50146823  0.49984570  -0.00045487  1
  Na  Na65  1  0.50154954  0.50078617  0.24992654  1
  Na  Na66  1  0.50244521  0.50003619  0.50102401  1
  Na  Na67  1  0.49960089  0.50096781  0.75041991  1
  Na  Na68  1  0.49881242  0.83296495  -0.00078079  1
  Na  Na69  1  0.50021378  0.83343991  0.25065539  1
  Na  Na70  1  0.50206528  0.83234997  0.50023420  1
  Na  Na71  1  0.49954389  0.83314697  0.75003955  1
  Na  Na72  1  0.24854906  0.16741004  0.12452319  1
  Na  Na73  1  0.24871811  0.16702850  0.37606096  1
  Na  Na74  1  0.24969306  0.16630475  0.62551794  1
  Na  Na75  1  0.25028961  0.16662205  0.87318907  1
  Na  Na76  1  0.24819019  0.50072831  0.12515243  1
  Na  Na77  1  0.24885840  0.50082421  0.37512989  1
  Na  Na78  1  0.24997926  0.50064580  0.62479706  1
  Na  Na79  1  0.24957564  0.50068482  0.87520680  1
  Na  Na80  1  0.25103514  0.83333902  0.12481511  1
  Na  Na81  1  0.25153976  0.83315049  0.37477255  1
  Na  Na82  1  0.25159581  0.83246430  0.62469030  1
  Na  Na83  1  0.24968872  0.83348913  0.87532979  1
  Na  Na84  1  0.75002912  0.16630250  0.12532228  1
  Na  Na85  1  0.74741655  0.16715977  0.37405889  1
  Na  Na86  1  0.74823488  0.16718924  0.62455259  1
  Na  Na87  1  0.75087473  0.16613424  0.87612250  1
  Na  Na88  1  0.74950689  0.50033566  0.12485793  1
  Na  Na89  1  0.74864611  0.50031935  0.37405405  1
  Na  Na90  1  0.74950920  0.49998340  0.62472576  1
  Na  Na91  1  0.74918224  0.50079551  0.87616855  1
  Na  Na92  1  0.75000517  0.83236131  0.12554737  1
  Na  Na93  1  0.75002355  0.83277834  0.37551142  1
  Na  Na94  1  0.75019535  0.83310496  0.62544848  1
  Na  Na95  1  0.75072262  0.83242454  0.87455805  1
  Mn  Mn96  1  0.35812171  0.08426516  0.25241562  1
  Mn  Mn97  1  0.14150081  0.91571850  0.49727209  1
  Mn  Mn98  1  0.14223603  0.25055684  0.49850323  1
  Mn  Mn99  1  0.35863829  0.08346355  0.50239360  1
  Mn  Mn100  1  0.39335207  0.91687903  0.62697543  1
  Mn  Mn101  1  0.10777776  0.41598862  0.62280248  1
  Mn  Mn102  1  0.89178728  0.91681586  0.12696805  1
  Mn  Mn103  1  0.60807040  0.41629762  0.62336118  1
  Mn  Mn104  1  0.89097477  0.24907545  0.62717542  1
  Mn  Mn105  1  0.14303596  0.25011904  0.74675314  1
  Mn  Mn106  1  0.85858450  0.08280446  0.00249632  1
  Mn  Mn107  1  0.35770755  0.08267131  0.75157658  1
  Mn  Mn108  1  0.10738281  0.75000160  0.12300562  1
  Mn  Mn109  1  0.10704627  0.75029536  0.37313558  1
  Mn  Mn110  1  0.14295939  0.91668751  0.99758360  1
  Mn  Mn111  1  0.39187516  0.25045521  0.12750697  1
  Mn  Mn112  1  0.64219888  0.25064058  0.24672238  1
  Mn  Mn113  1  0.35823617  0.41692130  0.50128113  1
  Mn  Mn114  1  0.10729846  0.75072736  0.62272056  1
  Mn  Mn115  1  0.85644461  0.08376550  0.50238356  1
  Mn  Mn116  1  0.64141427  0.91629097  0.99751349  1
  Mn  Mn117  1  0.89205451  0.24956255  0.37761053  1
  Mn  Mn118  1  0.60725270  0.41633989  0.87237143  1
  Mn  Mn119  1  0.85724851  0.08353072  0.25213536  1
  Mn  Mn120  1  0.89296891  0.91660766  0.87693082  1
  Mn  Mn121  1  0.60691619  0.08314649  0.87281046  1
  Mn  Mn122  1  0.39312051  0.58344087  0.62726437  1
  Mn  Mn123  1  0.85688068  0.74943949  0.25247347  1
  Mn  Mn124  1  0.85834897  0.41767110  0.00256745  1
  Mn  Mn125  1  0.10713675  0.41687967  0.12326644  1
  Mn  Mn126  1  0.64150566  0.91630486  0.24750497  1
  Mn  Mn127  1  0.39264162  0.25054621  0.37721025  1
  Mn  Mn128  1  0.89149073  0.58364183  0.62732283  1
  Mn  Mn129  1  0.89269714  0.58343252  0.87660552  1
  Mn  Mn130  1  0.64198053  0.25044037  0.74845032  1
  Mn  Mn131  1  0.10820051  0.08299363  0.12270168  1
  Mn  Mn132  1  0.35683638  0.41655938  0.00247139  1
  Mn  Mn133  1  0.64248972  0.25031379  0.99803379  1
  Mn  Mn134  1  0.89325031  0.24991281  0.87710334  1
  Mn  Mn135  1  0.35889238  0.74938076  0.50189258  1
  Mn  Mn136  1  0.35779358  0.41680844  0.25216052  1
  Mn  Mn137  1  0.35772747  0.74978067  0.00234030  1
  Mn  Mn138  1  0.39301375  0.58351370  0.12683754  1
  Mn  Mn139  1  0.35873358  0.74885586  0.25207546  1
  Mn  Mn140  1  0.89192892  0.58371144  0.37744531  1
  Mn  Mn141  1  0.64237257  0.91693265  0.74804422  1
  Mn  Mn142  1  0.14225157  0.91640449  0.24827167  1
  Mn  Mn143  1  0.10743542  0.08289514  0.37262514  1
  Fe  Fe144  1  0.85584032  0.74930339  0.50156355  1
  Fe  Fe145  1  0.14265685  0.58333605  0.24842404  1
  Fe  Fe146  1  0.39321756  0.91636976  0.12697107  1
  Fe  Fe147  1  0.39299251  0.58369540  0.87689468  1
  Fe  Fe148  1  0.60701772  0.75034412  0.87324800  1
  Fe  Fe149  1  0.60819416  0.41681958  0.37317307  1
  Fe  Fe150  1  0.14304976  0.91545935  0.74819230  1
  Fe  Fe151  1  0.60819994  0.08339022  0.62393718  1
  Fe  Fe152  1  0.60806537  0.75082986  0.62350577  1
  Fe  Fe153  1  0.85757036  0.08361247  0.75140265  1
  Fe  Fe154  1  0.64312240  0.91651172  0.49832692  1
  Fe  Fe155  1  0.14241824  0.25010292  0.99769076  1
  Fe  Fe156  1  0.85699814  0.74956204  0.00131578  1
  Fe  Fe157  1  0.10850620  0.08282868  0.87251890  1
  Fe  Fe158  1  0.60658976  0.08322795  0.12268316  1
  Fe  Fe159  1  0.89341299  0.25051412  0.12648935  1
  Fe  Fe160  1  0.39383943  0.91606646  0.37671411  1
  Fe  Fe161  1  0.39392263  0.58358959  0.37654843  1
  Fe  Fe162  1  0.60739963  0.75054968  0.12235676  1
  Fe  Fe163  1  0.64278440  0.58295482  0.74915173  1
  Fe  Fe164  1  0.85742814  0.41689233  0.75172119  1
  Fe  Fe165  1  0.85687672  0.41705387  0.25185916  1
  Fe  Fe166  1  0.10661920  0.08288223  0.62340692  1
  Fe  Fe167  1  0.85634429  0.74946432  0.75208648  1
  Fe  Fe168  1  0.35773584  0.74934595  0.75179097  1
  Fe  Fe169  1  0.14196247  0.25036698  0.24832312  1
  Fe  Fe170  1  0.14195567  0.58314037  0.99746871  1
  Fe  Fe171  1  0.35677869  0.08398758  0.00136828  1
  Fe  Fe172  1  0.10791927  0.41707562  0.87232913  1
  Fe  Fe173  1  0.60770047  0.75007519  0.37364338  1
  Fe  Fe174  1  0.14370486  0.58394882  0.74847386  1
  Fe  Fe175  1  0.60720721  0.08322454  0.37297940  1
  Fe  Fe176  1  0.64308774  0.58341137  0.99835576  1
  Fe  Fe177  1  0.89161130  0.91728832  0.62737575  1
  Fe  Fe178  1  0.14265096  0.58340242  0.49809998  1
  Fe  Fe179  1  0.64186538  0.25085902  0.49841077  1
  Fe  Fe180  1  0.10694235  0.41668426  0.37333959  1
  Fe  Fe181  1  0.89243738  0.58288132  0.12665862  1
  Fe  Fe182  1  0.10759990  0.75006103  0.87236299  1
  Fe  Fe183  1  0.39331936  0.24972467  0.62574812  1
  Fe  Fe184  1  0.89129924  0.91669917  0.37695684  1
  Fe  Fe185  1  0.85662563  0.41708477  0.50074311  1
  Fe  Fe186  1  0.64265243  0.58272854  0.24762158  1
  Fe  Fe187  1  0.64292087  0.58295312  0.49793084  1
  Fe  Fe188  1  0.60790286  0.41650491  0.12272709  1
  Fe  Fe189  1  0.39189537  0.91630975  0.87617064  1
  Fe  Fe190  1  0.39174100  0.24994115  0.87737949  1
  Fe  Fe191  1  0.35742472  0.41800691  0.75201800  1
  P  P192  1  0.05405935  0.25031173  0.11038576  1
  P  P193  1  0.05387488  0.25105161  0.35984031  1
  P  P194  1  0.05267061  0.24910617  0.61016543  1
  P  P195  1  0.05571581  0.25038944  0.86070623  1
  P  P196  1  0.05357209  0.58323554  0.11043197  1
  P  P197  1  0.05483533  0.58279986  0.36099181  1
  P  P198  1  0.05518978  0.58354334  0.61070804  1
  P  P199  1  0.05553977  0.58358353  0.85990316  1
  P  P200  1  0.05307856  0.91631737  0.10955974  1
  P  P201  1  0.05082849  0.91600307  0.36001376  1
  P  P202  1  0.05296053  0.91694748  0.61149863  1
  P  P203  1  0.05474889  0.91592873  0.85916883  1
  P  P204  1  0.55312567  0.25043142  0.10959501  1
  P  P205  1  0.55517563  0.25052978  0.36108171  1
  P  P206  1  0.55302212  0.24974909  0.60994867  1
  P  P207  1  0.55136200  0.25001756  0.86019194  1
  P  P208  1  0.55576723  0.58318212  0.11030886  1
  P  P209  1  0.55536881  0.58313611  0.36095390  1
  P  P210  1  0.55626331  0.58412787  0.61129048  1
  P  P211  1  0.55441942  0.58399419  0.86085170  1
  P  P212  1  0.55206825  0.91659194  0.10981380  1
  P  P213  1  0.55415540  0.91640140  0.36159468  1
  P  P214  1  0.55490405  0.91649367  0.60985573  1
  P  P215  1  0.55161063  0.91596279  0.86014885  1
  P  P216  1  0.44629086  0.08314808  0.13869163  1
  P  P217  1  0.44808096  0.08299141  0.38980510  1
  P  P218  1  0.44867476  0.08382080  0.63958966  1
  P  P219  1  0.44506467  0.08311569  0.89020556  1
  P  P220  1  0.44820670  0.41710736  0.13986849  1
  P  P221  1  0.44869569  0.41823896  0.38963640  1
  P  P222  1  0.44618952  0.41646554  0.64044433  1
  P  P223  1  0.44460438  0.41762131  0.88878512  1
  P  P224  1  0.44841462  0.74989742  0.13968580  1
  P  P225  1  0.44870169  0.74902961  0.38979332  1
  P  P226  1  0.44802444  0.74969655  0.64055217  1
  P  P227  1  0.44613942  0.74923854  0.88848015  1
  P  P228  1  0.94695835  0.08440130  0.13997463  1
  P  P229  1  0.94604145  0.08254462  0.39036638  1
  P  P230  1  0.94651736  0.08268935  0.64071350  1
  P  P231  1  0.94758243  0.08314228  0.88856735  1
  P  P232  1  0.94572916  0.41726905  0.14052479  1
  P  P233  1  0.94585236  0.41705046  0.38960803  1
  P  P234  1  0.94423388  0.41685930  0.63929709  1
  P  P235  1  0.94711213  0.41720254  0.88856076  1
  P  P236  1  0.94481509  0.74847425  0.13862779  1
  P  P237  1  0.94512852  0.75029229  0.39112267  1
  P  P238  1  0.94360870  0.75036074  0.63947423  1
  P  P239  1  0.94607689  0.74956120  0.88888309  1
  P  P240  1  0.19681968  0.08363476  0.23512774  1
  P  P241  1  0.19550753  0.08293048  0.48624170  1
  P  P242  1  0.19495150  0.08172433  0.73505384  1
  P  P243  1  0.19730250  0.08395270  0.98406800  1
  P  P244  1  0.19510620  0.41701017  0.23642574  1
  P  P245  1  0.19597677  0.41753675  0.48464932  1
  P  P246  1  0.19706041  0.41792117  0.73607395  1
  P  P247  1  0.19520087  0.41670046  0.98443615  1
  P  P248  1  0.19685342  0.74924623  0.23513089  1
  P  P249  1  0.19688579  0.74926935  0.48485937  1
  P  P250  1  0.19693932  0.74995614  0.73604715  1
  P  P251  1  0.19576470  0.74930863  0.98438739  1
  P  P252  1  0.69428100  0.08304167  0.23505003  1
  P  P253  1  0.69403690  0.08359118  0.48570179  1
  P  P254  1  0.69753763  0.08354913  0.73485282  1
  P  P255  1  0.69554396  0.08314887  0.98590247  1
  P  P256  1  0.69588275  0.41753368  0.23516251  1
  P  P257  1  0.69695808  0.41667273  0.48450331  1
  P  P258  1  0.69795835  0.41713806  0.73569729  1
  P  P259  1  0.69573683  0.41740217  0.98617858  1
  P  P260  1  0.69401097  0.74926771  0.23572663  1
  P  P261  1  0.69566235  0.75015817  0.48612579  1
  P  P262  1  0.69556387  0.74956347  0.73620189  1
  P  P263  1  0.69555269  0.74942370  0.98546102  1
  P  P264  1  0.30272465  0.24945443  0.01370310  1
  P  P265  1  0.30164385  0.25048970  0.26529460  1
  P  P266  1  0.30413907  0.25024277  0.51589858  1
  P  P267  1  0.30590099  0.25057814  0.76363914  1
  P  P268  1  0.30277068  0.58330788  0.01393698  1
  P  P269  1  0.30319783  0.58300598  0.26555530  1
  P  P270  1  0.30396396  0.58323592  0.51383505  1
  P  P271  1  0.30357998  0.58388733  0.76529933  1
  P  P272  1  0.30565735  0.91740699  0.01425857  1
  P  P273  1  0.30595715  0.91632525  0.26480220  1
  P  P274  1  0.30506643  0.91623733  0.51398896  1
  P  P275  1  0.30310212  0.91552796  0.76489696  1
  P  P276  1  0.80466922  0.25011517  0.01597284  1
  P  P277  1  0.80469559  0.25088053  0.26354852  1
  P  P278  1  0.80124757  0.25087520  0.51433421  1
  P  P279  1  0.80338334  0.24974913  0.76538378  1
  P  P280  1  0.80306696  0.58467979  0.01537670  1
  P  P281  1  0.80305564  0.58254749  0.26366357  1
  P  P282  1  0.80173893  0.58337236  0.51448193  1
  P  P283  1  0.80205865  0.58343112  0.76507878  1
  P  P284  1  0.80309051  0.91531957  0.01469328  1
  P  P285  1  0.80316509  0.91665001  0.26587662  1
  P  P286  1  0.80356031  0.91593472  0.51441793  1
  P  P287  1  0.80456218  0.91705211  0.76381305  1
  O  O288  1  0.05865493  0.25023987  0.18708087  1
  O  O289  1  0.05682877  0.25049496  0.43660313  1
  O  O290  1  0.05630018  0.25020510  0.68692659  1
  O  O291  1  0.05917602  0.25042605  0.93752759  1
  O  O292  1  0.05844345  0.58346347  0.18710740  1
  O  O293  1  0.05877331  0.58347540  0.43774821  1
  O  O294  1  0.06000131  0.58372855  0.68741892  1
  O  O295  1  0.05885878  0.58350310  0.93674269  1
  O  O296  1  0.05614612  0.91610356  0.18630161  1
  O  O297  1  0.05474928  0.91584588  0.43672793  1
  O  O298  1  0.05859164  0.91553048  0.68801293  1
  O  O299  1  0.05749291  0.91598754  0.93593998  1
  O  O300  1  0.55620490  0.25062015  0.18639672  1
  O  O301  1  0.55879110  0.25104032  0.43785207  1
  O  O302  1  0.55616841  0.25057560  0.68665849  1
  O  O303  1  0.55610911  0.25037310  0.93674924  1
  O  O304  1  0.55924128  0.58296477  0.18712620  1
  O  O305  1  0.55969834  0.58287189  0.43775135  1
  O  O306  1  0.56011566  0.58299504  0.68805289  1
  O  O307  1  0.55916644  0.58324314  0.93749272  1
  O  O308  1  0.55551322  0.91656816  0.18650455  1
  O  O309  1  0.55892405  0.91615009  0.43821163  1
  O  O310  1  0.55709014  0.91647224  0.68669976  1
  O  O311  1  0.55514998  0.91632086  0.93677668  1
  O  O312  1  0.44107768  0.08423510  0.06212132  1
  O  O313  1  0.44432685  0.08367306  0.31309410  1
  O  O314  1  0.44527413  0.08326184  0.56294596  1
  O  O315  1  0.44269059  0.08306504  0.81337975  1
  O  O316  1  0.44352547  0.41704276  0.06321256  1
  O  O317  1  0.44465339  0.41773563  0.31299037  1
  O  O318  1  0.44364179  0.41771111  0.56367623  1
  O  O319  1  0.44062863  0.41789215  0.81204113  1
  O  O320  1  0.44425587  0.74891977  0.06301623  1
  O  O321  1  0.44519555  0.74887508  0.31314892  1
  O  O322  1  0.44429291  0.74911577  0.56386012  1
  O  O323  1  0.44158667  0.74909859  0.81182820  1
  O  O324  1  0.94453150  0.08384348  0.06313994  1
  O  O325  1  0.94287244  0.08338572  0.31365144  1
  O  O326  1  0.94222130  0.08336442  0.56404757  1
  O  O327  1  0.94210440  0.08319167  0.81202710  1
  O  O328  1  0.94371837  0.41758852  0.06364961  1
  O  O329  1  0.94080922  0.41739238  0.31298095  1
  O  O330  1  0.93944940  0.41718548  0.56255577  1
  O  O331  1  0.94147831  0.41749053  0.81193820  1
  O  O332  1  0.94109033  0.74882916  0.06187819  1
  O  O333  1  0.94227637  0.74905547  0.31430604  1
  O  O334  1  0.93892056  0.74911465  0.56278826  1
  O  O335  1  0.94046164  0.74915973  0.81223753  1
  O  O336  1  0.19390586  0.08319596  0.06080735  1
  O  O337  1  0.19366003  0.08267798  0.31191583  1
  O  O338  1  0.19070786  0.08253058  0.56296411  1
  O  O339  1  0.19135782  0.08260754  0.81184468  1
  O  O340  1  0.19231824  0.41688121  0.06123618  1
  O  O341  1  0.19134291  0.41688258  0.31308974  1
  O  O342  1  0.19349321  0.41678570  0.56147596  1
  O  O343  1  0.19228580  0.41696854  0.81266934  1
  O  O344  1  0.19271869  0.74985660  0.06114976  1
  O  O345  1  0.19361145  0.75018980  0.31182711  1
  O  O346  1  0.19351452  0.75027768  0.56162553  1
  O  O347  1  0.19227024  0.75031709  0.81265090  1
  O  O348  1  0.69040635  0.08294248  0.06260692  1
  O  O349  1  0.68993124  0.08286293  0.31185636  1
  O  O350  1  0.69056972  0.08366693  0.56253406  1
  O  O351  1  0.69347806  0.08325832  0.81155045  1
  O  O352  1  0.69175643  0.41635537  0.06288983  1
  O  O353  1  0.69133803  0.41682249  0.31184028  1
  O  O354  1  0.69364595  0.41634626  0.56124454  1
  O  O355  1  0.69395478  0.41651534  0.81234971  1
  O  O356  1  0.69093628  0.75070778  0.06218345  1
  O  O357  1  0.69003127  0.75037905  0.31254398  1
  O  O358  1  0.69192118  0.75058524  0.56284370  1
  O  O359  1  0.69074167  0.75056455  0.81288848  1
  O  O360  1  0.30575866  0.25058517  0.18855873  1
  O  O361  1  0.30711873  0.25000920  0.43908797  1
  O  O362  1  0.31029711  0.24957441  0.68692558  1
  O  O363  1  0.30768542  0.25001982  0.93703979  1
  O  O364  1  0.30731868  0.58306599  0.18883378  1
  O  O365  1  0.30954349  0.58343316  0.43728382  1
  O  O366  1  0.30710890  0.58389603  0.68858398  1
  O  O367  1  0.30833160  0.58369137  0.93741452  1
  O  O368  1  0.31042464  0.91616561  0.18796720  1
  O  O369  1  0.31050896  0.91633133  0.43727855  1
  O  O370  1  0.30705509  0.91611022  0.68819668  1
  O  O371  1  0.30940540  0.91613593  0.93746805  1
  O  O372  1  0.80929026  0.25001454  0.18691843  1
  O  O373  1  0.80502693  0.24983224  0.43768204  1
  O  O374  1  0.80549785  0.24963561  0.68857214  1
  O  O375  1  0.80807129  0.24999039  0.93917565  1
  O  O376  1  0.80778564  0.58318616  0.18710597  1
  O  O377  1  0.80520674  0.58365257  0.43781769  1
  O  O378  1  0.80529603  0.58356374  0.68842563  1
  O  O379  1  0.80704818  0.58397861  0.93871966  1
  O  O380  1  0.80655128  0.91669326  0.18910230  1
  O  O381  1  0.80789075  0.91674092  0.43773082  1
  O  O382  1  0.80779069  0.91729871  0.68699962  1
  O  O383  1  0.80660579  0.91612087  0.93793034  1
  O  O384  1  0.23236822  0.25015435  0.03726408  1
  O  O385  1  0.23161403  0.25025963  0.28958102  1
  O  O386  1  0.23451941  0.25082638  0.54111142  1
  O  O387  1  0.23561601  0.24988089  0.78716765  1
  O  O388  1  0.23225005  0.58309560  0.03697819  1
  O  O389  1  0.23295011  0.58310922  0.28932996  1
  O  O390  1  0.23361310  0.58311697  0.53728844  1
  O  O391  1  0.23342924  0.58381572  0.78961312  1
  O  O392  1  0.23563172  0.91650439  0.03850929  1
  O  O393  1  0.23585221  0.91641396  0.28867212  1
  O  O394  1  0.23488001  0.91566933  0.53734328  1
  O  O395  1  0.23302714  0.91613702  0.78924694  1
  O  O396  1  0.73486949  0.25019151  0.04064801  1
  O  O397  1  0.73454350  0.25069369  0.28727762  1
  O  O398  1  0.73125013  0.25078058  0.53904595  1
  O  O399  1  0.73403410  0.25003830  0.79166129  1
  O  O400  1  0.73290894  0.58382610  0.03947589  1
  O  O401  1  0.73274133  0.58306312  0.28742594  1
  O  O402  1  0.73170054  0.58327376  0.53919961  1
  O  O403  1  0.73213517  0.58344729  0.79017045  1
  O  O404  1  0.73345159  0.91566634  0.03983080  1
  O  O405  1  0.73332065  0.91626180  0.29036255  1
  O  O406  1  0.73311661  0.91655463  0.53796222  1
  O  O407  1  0.73475254  0.91653195  0.78891360  1
  O  O408  1  0.26644379  0.08384529  0.20984831  1
  O  O409  1  0.26560026  0.08342772  0.46237244  1
  O  O410  1  0.26502218  0.08241315  0.71080280  1
  O  O411  1  0.26725470  0.08339149  0.95928076  1
  O  O412  1  0.26483171  0.41718913  0.21115459  1
  O  O413  1  0.26560544  0.41689939  0.45927379  1
  O  O414  1  0.26742287  0.41799220  0.71244517  1
  O  O415  1  0.26493420  0.41673107  0.95942590  1
  O  O416  1  0.26645894  0.74898706  0.20971449  1
  O  O417  1  0.26658369  0.74938191  0.45988182  1
  O  O418  1  0.26722934  0.74944862  0.71200103  1
  O  O419  1  0.26562644  0.74982713  0.95973676  1
  O  O420  1  0.76439815  0.08318283  0.21141161  1
  O  O421  1  0.76399383  0.08335061  0.46111977  1
  O  O422  1  0.76749889  0.08353689  0.71022723  1
  O  O423  1  0.76574030  0.08328526  0.96246150  1
  O  O424  1  0.76617852  0.41712705  0.21150472  1
  O  O425  1  0.76693729  0.41700172  0.45953671  1
  O  O426  1  0.76789707  0.41703366  0.71101661  1
  O  O427  1  0.76577082  0.41762655  0.96203931  1
  O  O428  1  0.76408772  0.74961864  0.21189208  1
  O  O429  1  0.76584573  0.74968150  0.46164837  1
  O  O430  1  0.76596088  0.74998087  0.71269761  1
  O  O431  1  0.76584317  0.74943105  0.96168556  1
  O  O432  1  0.01639627  0.08320712  0.16570228  1
  O  O433  1  0.01568863  0.08272855  0.41552000  1
  O  O434  1  0.01669882  0.08274840  0.66472511  1
  O  O435  1  0.01810518  0.08311744  0.91165000  1
  O  O436  1  0.01524022  0.41702368  0.16608110  1
  O  O437  1  0.01622512  0.41700419  0.41303941  1
  O  O438  1  0.01449053  0.41671534  0.66277404  1
  O  O439  1  0.01750853  0.41735511  0.91172299  1
  O  O440  1  0.01461270  0.74948871  0.16345636  1
  O  O441  1  0.01472597  0.75008420  0.41646863  1
  O  O442  1  0.01391711  0.75010355  0.66287482  1
  O  O443  1  0.01669264  0.74961519  0.91147900  1
  O  O444  1  0.51663951  0.08310309  0.16236864  1
  O  O445  1  0.51819824  0.08348934  0.41407406  1
  O  O446  1  0.51858098  0.08340856  0.66465712  1
  O  O447  1  0.51470429  0.08288528  0.91562801  1
  O  O448  1  0.51838643  0.41735259  0.16373315  1
  O  O449  1  0.51871033  0.41738594  0.41421686  1
  O  O450  1  0.51591158  0.41671502  0.66580308  1
  O  O451  1  0.51461180  0.41722545  0.91300426  1
  O  O452  1  0.51850351  0.75004381  0.16399059  1
  O  O453  1  0.51875987  0.74906107  0.41450728  1
  O  O454  1  0.51819683  0.75031703  0.66463831  1
  O  O455  1  0.51643982  0.74947744  0.91246656  1
  O  O456  1  0.48349596  0.25046682  0.08435288  1
  O  O457  1  0.48537225  0.25038335  0.33611820  1
  O  O458  1  0.48309249  0.25026027  0.58494761  1
  O  O459  1  0.48111105  0.24983513  0.83658371  1
  O  O460  1  0.48588178  0.58324911  0.08553557  1
  O  O461  1  0.48516515  0.58369970  0.33673883  1
  O  O462  1  0.48625327  0.58339771  0.58705683  1
  O  O463  1  0.48407653  0.58382994  0.83720555  1
  O  O464  1  0.48207764  0.91623178  0.08504334  1
  O  O465  1  0.48392589  0.91638288  0.33750994  1
  O  O466  1  0.48540768  0.91633290  0.58415669  1
  O  O467  1  0.48163459  0.91647208  0.83539543  1
  O  O468  1  0.98380689  0.25097727  0.08652305  1
  O  O469  1  0.98411649  0.25015808  0.33495451  1
  O  O470  1  0.98300481  0.24959808  0.58509877  1
  O  O471  1  0.98584207  0.24992183  0.83604541  1
  O  O472  1  0.98326951  0.58279797  0.08667000  1
  O  O473  1  0.98473828  0.58357580  0.33691106  1
  O  O474  1  0.98487581  0.58336935  0.58737889  1
  O  O475  1  0.98560744  0.58368446  0.83523902  1
  O  O476  1  0.98354976  0.91653431  0.08409693  1
  O  O477  1  0.98081369  0.91610664  0.33555709  1
  O  O478  1  0.98235156  0.91692261  0.58866588  1
  O  O479  1  0.98501973  0.91614392  0.83412325  1
  O  O480  1  0.08781001  0.31518448  0.07728544  1
  O  O481  1  0.08739713  0.31645109  0.32745657  1
  O  O482  1  0.08684993  0.31405710  0.57758378  1
  O  O483  1  0.08894573  0.31569094  0.82766951  1
  O  O484  1  0.08698382  0.64808312  0.07688404  1
  O  O485  1  0.08879118  0.64746860  0.32753867  1
  O  O486  1  0.08848039  0.64855706  0.57735144  1
  O  O487  1  0.08940260  0.64869370  0.82720632  1
  O  O488  1  0.08750817  0.98130220  0.07737656  1
  O  O489  1  0.08490108  0.98094109  0.32741571  1
  O  O490  1  0.08597826  0.98207644  0.57826218  1
  O  O491  1  0.08917437  0.98080545  0.82691066  1
  O  O492  1  0.58722585  0.31558330  0.07733970  1
  O  O493  1  0.58890179  0.31561704  0.32822561  1
  O  O494  1  0.58723220  0.31469494  0.57711876  1
  O  O495  1  0.58471664  0.31499576  0.82682643  1
  O  O496  1  0.58956519  0.64838179  0.07772715  1
  O  O497  1  0.58930678  0.64804766  0.32818146  1
  O  O498  1  0.58950116  0.64954380  0.57878241  1
  O  O499  1  0.58794763  0.64905371  0.82790746  1
  O  O500  1  0.58561341  0.98167721  0.07703475  1
  O  O501  1  0.58725298  0.98149967  0.32826256  1
  O  O502  1  0.58933564  0.98147458  0.57785630  1
  O  O503  1  0.58579827  0.98083615  0.82750021  1
  O  O504  1  0.41317126  0.01785771  0.17153760  1
  O  O505  1  0.41473080  0.01781440  0.42249696  1
  O  O506  1  0.41456865  0.01887056  0.67232079  1
  O  O507  1  0.41063158  0.01809655  0.92215106  1
  O  O508  1  0.41467248  0.35207042  0.17293680  1
  O  O509  1  0.41441528  0.35338805  0.42223791  1
  O  O510  1  0.41194840  0.35127931  0.67200878  1
  O  O511  1  0.41089158  0.35248181  0.92152119  1
  O  O512  1  0.41510816  0.68479704  0.17290894  1
  O  O513  1  0.41511550  0.68389614  0.42263760  1
  O  O514  1  0.41450050  0.68468910  0.67365636  1
  O  O515  1  0.41312713  0.68414556  0.92213886  1
  O  O516  1  0.91184916  0.01970291  0.17195059  1
  O  O517  1  0.91189482  0.01748399  0.42251376  1
  O  O518  1  0.91262193  0.01779290  0.67350141  1
  O  O519  1  0.91451151  0.01809360  0.92212495  1
  O  O520  1  0.91124955  0.35223394  0.17245381  1
  O  O521  1  0.91239503  0.35209439  0.42294415  1
  O  O522  1  0.91071384  0.35187738  0.67245712  1
  O  O523  1  0.91406681  0.35221439  0.92207443  1
  O  O524  1  0.91176654  0.68309463  0.17167986  1
  O  O525  1  0.91076448  0.68538281  0.42386651  1
  O  O526  1  0.91027360  0.68547246  0.67331268  1
  O  O527  1  0.91297380  0.68468920  0.92271019  1
  O  O528  1  0.16308742  0.01846087  0.20242648  1
  O  O529  1  0.16237075  0.01790216  0.45268343  1
  O  O530  1  0.16164960  0.01639045  0.70250750  1
  O  O531  1  0.16309324  0.01903208  0.95133206  1
  O  O532  1  0.16137096  0.35192711  0.20353874  1
  O  O533  1  0.16121260  0.35281337  0.45229572  1
  O  O534  1  0.16397564  0.35290422  0.70229081  1
  O  O535  1  0.16117678  0.35165929  0.95197283  1
  O  O536  1  0.16251306  0.68398637  0.20330987  1
  O  O537  1  0.16278972  0.68405260  0.45301848  1
  O  O538  1  0.16323414  0.68496720  0.70310459  1
  O  O539  1  0.16177044  0.68426618  0.95199191  1
  O  O540  1  0.66078107  0.01807091  0.20185055  1
  O  O541  1  0.66037228  0.01833024  0.45304108  1
  O  O542  1  0.66348586  0.01864803  0.70201321  1
  O  O543  1  0.66238329  0.01809790  0.95244382  1
  O  O544  1  0.66224285  0.35281911  0.20149120  1
  O  O545  1  0.66298276  0.35181086  0.45167260  1
  O  O546  1  0.66417105  0.35213165  0.70275381  1
  O  O547  1  0.66236837  0.35251461  0.95261490  1
  O  O548  1  0.66067512  0.68402210  0.20314833  1
  O  O549  1  0.66187674  0.68513406  0.45332210  1
  O  O550  1  0.66243791  0.68438985  0.70330606  1
  O  O551  1  0.66207531  0.68413396  0.95289000  1
  O  O552  1  0.33610740  0.31429911  0.04741088  1
  O  O553  1  0.33540590  0.31555666  0.29801602  1
  O  O554  1  0.33888711  0.31514064  0.54774657  1
  O  O555  1  0.33872234  0.31591517  0.79669758  1
  O  O556  1  0.33580054  0.64829009  0.04768807  1
  O  O557  1  0.33710054  0.64791161  0.29853099  1
  O  O558  1  0.33712987  0.64814345  0.54762118  1
  O  O559  1  0.33733771  0.64890329  0.79820714  1
  O  O560  1  0.33867073  0.98300498  0.04664180  1
  O  O561  1  0.33970379  0.98127483  0.29784669  1
  O  O562  1  0.33797064  0.98140917  0.54754349  1
  O  O563  1  0.33721322  0.98046636  0.79765327  1
  O  O564  1  0.83882421  0.31527562  0.04813231  1
  O  O565  1  0.83782744  0.31624276  0.29640437  1
  O  O566  1  0.83524919  0.31588950  0.54652113  1
  O  O567  1  0.83802290  0.31487411  0.79713628  1
  O  O568  1  0.83634684  0.64990957  0.04812683  1
  O  O569  1  0.83635250  0.64736243  0.29741592  1
  O  O570  1  0.83535061  0.64829534  0.54756472  1
  O  O571  1  0.83581088  0.64854387  0.79775805  1
  O  O572  1  0.83728014  0.98026452  0.04729361  1
  O  O573  1  0.83697000  0.98169605  0.29857467  1
  O  O574  1  0.83718041  0.98074572  0.54801154  1
  O  O575  1  0.83801981  0.98226503  0.79659794  1
  O  O576  1  0.41334096  0.14816076  0.17264802  1
  O  O577  1  0.41428087  0.14802202  0.42256372  1
  O  O578  1  0.41463423  0.14876556  0.67188121  1
  O  O579  1  0.41088657  0.14823916  0.92258021  1
  O  O580  1  0.41453251  0.48210916  0.17269855  1
  O  O581  1  0.41541359  0.48351243  0.42244072  1
  O  O582  1  0.41188263  0.48132440  0.67327198  1
  O  O583  1  0.41155439  0.48294147  0.92192615  1
  O  O584  1  0.41451135  0.81486774  0.17209802  1
  O  O585  1  0.41498186  0.81408284  0.42244204  1
  O  O586  1  0.41369046  0.81455598  0.67294593  1
  O  O587  1  0.41268372  0.81431632  0.92139680  1
  O  O588  1  0.91339275  0.14984313  0.17208606  1
  O  O589  1  0.91200089  0.14759603  0.42310411  1
  O  O590  1  0.91288030  0.14773295  0.67382912  1
  O  O591  1  0.91444452  0.14802622  0.92218695  1
  O  O592  1  0.91143179  0.48231859  0.17285690  1
  O  O593  1  0.91246283  0.48194372  0.42326999  1
  O  O594  1  0.91097729  0.48187653  0.67284778  1
  O  O595  1  0.91393240  0.48215131  0.92222490  1
  O  O596  1  0.91049431  0.81321372  0.17147076  1
  O  O597  1  0.91063989  0.81535454  0.42288379  1
  O  O598  1  0.91026210  0.81554646  0.67225255  1
  O  O599  1  0.91284566  0.81451409  0.92235929  1
  O  O600  1  0.08740149  0.18527781  0.07706140  1
  O  O601  1  0.08852748  0.18636677  0.32719152  1
  O  O602  1  0.08651254  0.18378128  0.57829649  1
  O  O603  1  0.08974033  0.18538170  0.82822948  1
  O  O604  1  0.08720067  0.51827963  0.07726637  1
  O  O605  1  0.08803270  0.51748184  0.32810668  1
  O  O606  1  0.08868350  0.51861706  0.57747199  1
  O  O607  1  0.08939259  0.51859259  0.82705190  1
  O  O608  1  0.08717680  0.85133685  0.07711890  1
  O  O609  1  0.08456919  0.85099540  0.32716108  1
  O  O610  1  0.08573798  0.85201956  0.57724597  1
  O  O611  1  0.08860917  0.85067675  0.82660703  1
  O  O612  1  0.58713858  0.18519742  0.07748621  1
  O  O613  1  0.58896908  0.18538110  0.32858174  1
  O  O614  1  0.58704195  0.18470352  0.57776850  1
  O  O615  1  0.58497693  0.18498470  0.82736068  1
  O  O616  1  0.58964660  0.51823888  0.07741554  1
  O  O617  1  0.58862911  0.51801418  0.32761747  1
  O  O618  1  0.59029447  0.51943380  0.57787950  1
  O  O619  1  0.58789276  0.51917562  0.82708510  1
  O  O620  1  0.58598513  0.85153796  0.07719241  1
  O  O621  1  0.58730625  0.85128753  0.32830207  1
  O  O622  1  0.58936845  0.85140088  0.57777230  1
  O  O623  1  0.58545278  0.85091402  0.82764661  1
  O  O624  1  0.33562591  0.18417730  0.04685297  1
  O  O625  1  0.33561762  0.18559422  0.29806161  1
  O  O626  1  0.33820028  0.18520877  0.54846352  1
  O  O627  1  0.33935636  0.18563161  0.79711017  1
  O  O628  1  0.33584094  0.51832695  0.04754167  1
  O  O629  1  0.33697269  0.51811164  0.29857646  1
  O  O630  1  0.33717157  0.51820551  0.54724332  1
  O  O631  1  0.33749249  0.51903643  0.79820451  1
  O  O632  1  0.33986784  0.85280606  0.04766452  1
  O  O633  1  0.33968035  0.85128862  0.29783556  1
  O  O634  1  0.33873449  0.85131860  0.54711609  1
  O  O635  1  0.33683823  0.85048605  0.79767190  1
  O  O636  1  0.83891015  0.18526242  0.04848916  1
  O  O637  1  0.83780558  0.18594532  0.29730054  1
  O  O638  1  0.83492950  0.18589933  0.54754269  1
  O  O639  1  0.83764689  0.18443271  0.79724131  1
  O  O640  1  0.83737403  0.51999239  0.04843705  1
  O  O641  1  0.83613486  0.51740481  0.29694552  1
  O  O642  1  0.83561600  0.51830593  0.54693122  1
  O  O643  1  0.83609440  0.51846466  0.79767661  1
  O  O644  1  0.83688328  0.84997542  0.04671423  1
  O  O645  1  0.83738333  0.85171660  0.29835646  1
  O  O646  1  0.83662324  0.85075807  0.54746155  1
  O  O647  1  0.83849521  0.85188499  0.79617800  1
  O  O648  1  0.16255416  0.14880544  0.20324159  1
  O  O649  1  0.16188102  0.14811077  0.45361049  1
  O  O650  1  0.16085856  0.14651155  0.70195882  1
  O  O651  1  0.16341439  0.14902506  0.95164764  1
  O  O652  1  0.16124636  0.48221680  0.20374981  1
  O  O653  1  0.16182892  0.48269070  0.45265205  1
  O  O654  1  0.16366265  0.48295496  0.70317823  1
  O  O655  1  0.16096618  0.48170791  0.95202297  1
  O  O656  1  0.16294208  0.81429694  0.20240388  1
  O  O657  1  0.16280352  0.81411907  0.45193693  1
  O  O658  1  0.16382035  0.81504932  0.70241867  1
  O  O659  1  0.16154748  0.81415125  0.95161576  1
  O  O660  1  0.66062357  0.14799062  0.20197716  1
  O  O661  1  0.66048365  0.14868550  0.45287477  1
  O  O662  1  0.66341880  0.14854513  0.70235112  1
  O  O663  1  0.66224085  0.14823231  0.95268177  1
  O  O664  1  0.66257880  0.48269302  0.20226367  1
  O  O665  1  0.66291549  0.48178991  0.45208583  1
  O  O666  1  0.66404988  0.48209347  0.70316016  1
  O  O667  1  0.66210725  0.48264117  0.95373120  1
  O  O668  1  0.66034914  0.81401124  0.20207205  1
  O  O669  1  0.66241194  0.81522245  0.45272133  1
  O  O670  1  0.66218622  0.81439610  0.70242543  1
  O  O671  1  0.66196714  0.81405432  0.95150786  1
