# generated using pymatgen
data_Na2MnFe(PO4)2
_symmetry_space_group_name_H-M   'P 1'
_cell_length_a   21.08536558
_cell_length_b   18.93801100
_cell_length_c   20.04443403
_cell_angle_alpha   90.00051776
_cell_angle_beta   89.99656709
_cell_angle_gamma   89.99803741
_symmetry_Int_Tables_number   1
_chemical_formula_structural   Na2MnFe(PO4)2
_chemical_formula_sum   'Na96 Mn48 Fe48 P96 O384'
_cell_volume   8004.04085608
_cell_formula_units_Z   48
loop_
 _symmetry_equiv_pos_site_id
 _symmetry_equiv_pos_as_xyz
  1  'x, y, z'
loop_
 _atom_site_type_symbol
 _atom_site_label
 _atom_site_symmetry_multiplicity
 _atom_site_fract_x
 _atom_site_fract_y
 _atom_site_fract_z
 _atom_site_occupancy
  Na  Na0  1  0.00039684  -0.00002994  -0.00020225  1
  Na  Na1  1  0.00127459  0.00036887  0.24858912  1
  Na  Na2  1  -0.00081409  -0.00081588  0.50112116  1
  Na  Na3  1  -0.00026401  0.00036647  0.75008928  1
  Na  Na4  1  -0.00021886  0.33372061  -0.00118697  1
  Na  Na5  1  -0.00098597  0.33281137  0.25088992  1
  Na  Na6  1  0.00099963  0.33349441  0.49980783  1
  Na  Na7  1  -0.00058891  0.33273734  0.75022358  1
  Na  Na8  1  -0.00156178  0.66595834  -0.00031569  1
  Na  Na9  1  -0.00105259  0.66633158  0.25064760  1
  Na  Na10  1  -0.00039997  0.66613472  0.49961025  1
  Na  Na11  1  -0.00070550  0.66656534  0.74973336  1
  Na  Na12  1  0.50072002  0.00025147  -0.00068053  1
  Na  Na13  1  0.50020960  0.00008619  0.24949675  1
  Na  Na14  1  0.49613250  -0.00111201  0.50058626  1
  Na  Na15  1  0.49731812  -0.00062548  0.75058136  1
  Na  Na16  1  0.50228331  0.33419231  -0.00143223  1
  Na  Na17  1  0.49996414  0.33295613  0.24909656  1
  Na  Na18  1  0.49855456  0.33253465  0.50110295  1
  Na  Na19  1  0.50011017  0.33317263  0.75071711  1
  Na  Na20  1  0.50240805  0.66648927  0.00059057  1
  Na  Na21  1  0.50178632  0.66679844  0.25021179  1
  Na  Na22  1  0.50231833  0.66690267  0.49924041  1
  Na  Na23  1  0.50285181  0.66663146  0.75067141  1
  Na  Na24  1  0.24677205  -0.00124564  0.12485377  1
  Na  Na25  1  0.25173255  0.00051261  0.37612725  1
  Na  Na26  1  0.25101925  0.00004640  0.62456601  1
  Na  Na27  1  0.24873697  0.00017373  0.87492729  1
  Na  Na28  1  0.24839359  0.33371810  0.12464992  1
  Na  Na29  1  0.24825693  0.33324062  0.37567792  1
  Na  Na30  1  0.24905867  0.33328824  0.62487533  1
  Na  Na31  1  0.24866878  0.33314859  0.87480663  1
  Na  Na32  1  0.25069131  0.66715271  0.12452278  1
  Na  Na33  1  0.25046704  0.66701549  0.37582962  1
  Na  Na34  1  0.24893377  0.66577657  0.62559329  1
  Na  Na35  1  0.24977026  0.66639646  0.87482068  1
  Na  Na36  1  0.74939135  -0.00094097  0.12486681  1
  Na  Na37  1  0.75139338  0.00042558  0.37558476  1
  Na  Na38  1  0.75242920  0.00085886  0.62465365  1
  Na  Na39  1  0.75269272  0.00091336  0.87487515  1
  Na  Na40  1  0.75114279  0.33313977  0.12432603  1
  Na  Na41  1  0.75148800  0.33339165  0.37497844  1
  Na  Na42  1  0.75182013  0.33379407  0.62583050  1
  Na  Na43  1  0.74985798  0.33242175  0.87433745  1
  Na  Na44  1  0.74872646  0.66585192  0.12556965  1
  Na  Na45  1  0.74859846  0.66615855  0.37542442  1
  Na  Na46  1  0.74830928  0.66610686  0.62505312  1
  Na  Na47  1  0.74856689  0.66580572  0.87393209  1
  Na  Na48  1  -0.00094129  0.16705530  -0.00128281  1
  Na  Na49  1  0.00037077  0.16623120  0.25021207  1
  Na  Na50  1  -0.00042235  0.16691329  0.50084618  1
  Na  Na51  1  -0.00060754  0.16713074  0.75006200  1
  Na  Na52  1  -0.00170472  0.49976056  -0.00071475  1
  Na  Na53  1  -0.00187440  0.50084940  0.25051603  1
  Na  Na54  1  0.00041761  0.49960826  0.49937553  1
  Na  Na55  1  -0.00249643  0.50093780  0.74964110  1
  Na  Na56  1  0.00201632  0.83300757  0.00045877  1
  Na  Na57  1  0.00110052  0.83328239  0.24937140  1
  Na  Na58  1  0.00082266  0.83346804  0.50085969  1
  Na  Na59  1  0.00071775  0.83361899  0.74995155  1
  Na  Na60  1  0.50126320  0.16654515  -0.00185317  1
  Na  Na61  1  0.50029883  0.16636599  0.24981638  1
  Na  Na62  1  0.49762943  0.16727394  0.50110943  1
  Na  Na63  1  0.49912081  0.16705039  0.75037609  1
  Na  Na64  1  0.50131782  0.49949786  -0.00007401  1
  Na  Na65  1  0.50156350  0.49985729  0.24948237  1
  Na  Na66  1  0.50010197  0.50027111  0.50066018  1
  Na  Na67  1  0.49949076  0.50022359  0.75095274  1
  Na  Na68  1  0.50277024  0.83278560  0.00038970  1
  Na  Na69  1  0.49991892  0.83383441  0.24937359  1
  Na  Na70  1  0.49998037  0.83306605  0.49938793  1
  Na  Na71  1  0.50185052  0.83281139  0.75073047  1
  Na  Na72  1  0.24806761  0.16718607  0.12492303  1
  Na  Na73  1  0.25035032  0.16617925  0.37531169  1
  Na  Na74  1  0.24981361  0.16675082  0.62542292  1
  Na  Na75  1  0.24823956  0.16716960  0.87494770  1
  Na  Na76  1  0.24939198  0.50003811  0.12469028  1
  Na  Na77  1  0.24967273  0.50019891  0.37585677  1
  Na  Na78  1  0.25071834  0.49961216  0.62554602  1
  Na  Na79  1  0.25141241  0.49881095  0.87494270  1
  Na  Na80  1  0.24785394  0.83379142  0.12449019  1
  Na  Na81  1  0.25058919  0.83266491  0.37634975  1
  Na  Na82  1  0.24913443  0.83373328  0.62409348  1
  Na  Na83  1  0.24756482  0.83419906  0.87456774  1
  Na  Na84  1  0.75108481  0.16674136  0.12506041  1
  Na  Na85  1  0.75139062  0.16683659  0.37427457  1
  Na  Na86  1  0.75272560  0.16642839  0.62533884  1
  Na  Na87  1  0.75198029  0.16689033  0.87417715  1
  Na  Na88  1  0.75053325  0.50063705  0.12429952  1
  Na  Na89  1  0.75088411  0.50070403  0.37523807  1
  Na  Na90  1  0.75017159  0.50042310  0.62549582  1
  Na  Na91  1  0.74967736  0.50059110  0.87430937  1
  Na  Na92  1  0.74842520  0.83404799  0.12512288  1
  Na  Na93  1  0.74871508  0.83365184  0.37661825  1
  Na  Na94  1  0.74877888  0.83356752  0.62467315  1
  Na  Na95  1  0.74898335  0.83401582  0.87468167  1
  Mn  Mn96  1  0.39153633  0.24974629  0.37689998  1
  Mn  Mn97  1  0.10766959  0.75039491  0.37271862  1
  Mn  Mn98  1  0.39344888  0.58360573  0.87714768  1
  Mn  Mn99  1  0.10719499  0.41713351  0.37259418  1
  Mn  Mn100  1  0.60834704  0.75024297  0.12306522  1
  Mn  Mn101  1  0.64162688  0.91750251  0.49776928  1
  Mn  Mn102  1  0.39229961  0.25032887  0.87723277  1
  Mn  Mn103  1  0.39298684  0.58344778  0.37706461  1
  Mn  Mn104  1  0.35785580  0.74994236  0.00208407  1
  Mn  Mn105  1  0.35787636  0.75002980  0.75227330  1
  Mn  Mn106  1  0.14149857  0.58410144  0.24740956  1
  Mn  Mn107  1  0.60867460  0.08347907  0.87195290  1
  Mn  Mn108  1  0.10675579  0.08345846  0.87247196  1
  Mn  Mn109  1  0.85723198  0.75064719  0.00237603  1
  Mn  Mn110  1  0.39181016  0.91667414  0.12689127  1
  Mn  Mn111  1  0.14142798  0.58300700  0.99797010  1
  Mn  Mn112  1  0.14175649  0.58310698  0.74732504  1
  Mn  Mn113  1  0.89224146  0.24923561  0.37787683  1
  Mn  Mn114  1  0.60903496  0.41598794  0.12261286  1
  Mn  Mn115  1  0.60716084  0.08301594  0.62306774  1
  Mn  Mn116  1  0.85860659  0.08275212  0.25210817  1
  Mn  Mn117  1  0.85745083  0.75017924  0.75194279  1
  Mn  Mn118  1  0.64272093  0.25010978  0.24751297  1
  Mn  Mn119  1  0.14275259  0.91683230  0.49748791  1
  Mn  Mn120  1  0.85736222  0.41636447  0.00219835  1
  Mn  Mn121  1  0.35754723  0.41719342  0.25215518  1
  Mn  Mn122  1  0.85770006  0.75026669  0.25221414  1
  Mn  Mn123  1  0.35722736  0.08269608  0.25156001  1
  Mn  Mn124  1  0.10795459  0.08250567  0.37366787  1
  Mn  Mn125  1  0.64235543  0.25004195  0.49871769  1
  Mn  Mn126  1  0.10722601  0.74944091  0.87245438  1
  Mn  Mn127  1  0.35835170  0.74948449  0.50288610  1
  Mn  Mn128  1  0.60852800  0.41633009  0.37261072  1
  Mn  Mn129  1  0.35670713  0.08388191  0.00228734  1
  Mn  Mn130  1  0.89276223  0.91633185  0.12732612  1
  Mn  Mn131  1  0.89298593  0.91631880  0.62758458  1
  Mn  Mn132  1  0.35735745  0.41659520  0.50243362  1
  Mn  Mn133  1  0.39200082  0.24986105  0.12615196  1
  Mn  Mn134  1  0.10702645  0.41725349  0.87242346  1
  Mn  Mn135  1  0.64277116  0.91772980  0.74718904  1
  Mn  Mn136  1  0.39276692  0.58336410  0.12716799  1
  Mn  Mn137  1  0.60875394  0.08385412  0.12234938  1
  Mn  Mn138  1  0.85697618  0.75030534  0.50239186  1
  Mn  Mn139  1  0.39212574  0.91578321  0.87738883  1
  Mn  Mn140  1  0.60751560  0.08292914  0.37373169  1
  Mn  Mn141  1  0.14124942  0.24972250  0.24709130  1
  Mn  Mn142  1  0.60736238  0.41648414  0.62326619  1
  Mn  Mn143  1  0.85826017  0.41645685  0.50302824  1
  Fe  Fe144  1  0.14142032  0.25029323  0.99847266  1
  Fe  Fe145  1  0.64326977  0.58239905  0.74763431  1
  Fe  Fe146  1  0.60847047  0.74977998  0.87320770  1
  Fe  Fe147  1  0.14284332  0.25009151  0.49924350  1
  Fe  Fe148  1  0.64257171  0.58260223  0.49850412  1
  Fe  Fe149  1  0.89211856  0.58438581  0.37747348  1
  Fe  Fe150  1  0.60690438  0.75024877  0.62350921  1
  Fe  Fe151  1  0.14213446  0.24983672  0.74777011  1
  Fe  Fe152  1  0.10732753  0.08382488  0.62330963  1
  Fe  Fe153  1  0.35721372  0.41629724  0.00171921  1
  Fe  Fe154  1  0.85797689  0.41701472  0.25098099  1
  Fe  Fe155  1  0.89218895  0.58313880  0.12652247  1
  Fe  Fe156  1  0.35711977  0.75011327  0.25135818  1
  Fe  Fe157  1  0.35721822  0.08399982  0.50255095  1
  Fe  Fe158  1  0.89315322  0.25052227  0.12587936  1
  Fe  Fe159  1  0.85821490  0.08327069  0.50198389  1
  Fe  Fe160  1  0.39139256  0.25027806  0.62804641  1
  Fe  Fe161  1  0.85752545  0.41646666  0.75141322  1
  Fe  Fe162  1  0.10707549  0.41707611  0.62413842  1
  Fe  Fe163  1  0.89262292  0.58309029  0.62608671  1
  Fe  Fe164  1  0.35596961  0.08375831  0.75146075  1
  Fe  Fe165  1  0.60703194  0.75067150  0.37274153  1
  Fe  Fe166  1  0.89373364  0.25063213  0.62683676  1
  Fe  Fe167  1  0.39297394  0.58343884  0.62701002  1
  Fe  Fe168  1  0.85728287  0.08307081  0.00164970  1
  Fe  Fe169  1  0.85847259  0.08367861  0.75145114  1
  Fe  Fe170  1  0.89231388  0.91619660  0.37616387  1
  Fe  Fe171  1  0.35687358  0.41607164  0.75176288  1
  Fe  Fe172  1  0.64379265  0.24973381  0.99785527  1
  Fe  Fe173  1  0.64320309  0.91719422  0.99790442  1
  Fe  Fe174  1  0.10734426  0.74923150  0.62338435  1
  Fe  Fe175  1  0.60796182  0.41674539  0.87261697  1
  Fe  Fe176  1  0.64326020  0.58302783  0.99790526  1
  Fe  Fe177  1  0.10695964  0.08397308  0.12266175  1
  Fe  Fe178  1  0.89148507  0.58398144  0.87657322  1
  Fe  Fe179  1  0.14257078  0.91621078  0.24907338  1
  Fe  Fe180  1  0.89291452  0.91630278  0.87696568  1
  Fe  Fe181  1  0.39238888  0.91599708  0.62766020  1
  Fe  Fe182  1  0.89261987  0.24995824  0.87687216  1
  Fe  Fe183  1  0.14183522  0.91684666  0.99797522  1
  Fe  Fe184  1  0.64239797  0.91691442  0.24897911  1
  Fe  Fe185  1  0.14227088  0.58293281  0.49909331  1
  Fe  Fe186  1  0.10639391  0.41696114  0.12346845  1
  Fe  Fe187  1  0.64411531  0.24983821  0.74782590  1
  Fe  Fe188  1  0.14233851  0.91723906  0.74796335  1
  Fe  Fe189  1  0.64390556  0.58308397  0.24850866  1
  Fe  Fe190  1  0.10763305  0.74925571  0.12348238  1
  Fe  Fe191  1  0.39244357  0.91630053  0.37564020  1
  P  P192  1  0.05217455  0.25051127  0.10923221  1
  P  P193  1  0.05447574  0.24939592  0.36152146  1
  P  P194  1  0.05434751  0.25023731  0.61115687  1
  P  P195  1  0.05357821  0.25013110  0.86023792  1
  P  P196  1  0.05141895  0.58307002  0.11010175  1
  P  P197  1  0.05279168  0.58370501  0.36115426  1
  P  P198  1  0.05236589  0.58285260  0.60968338  1
  P  P199  1  0.05118803  0.58312590  0.85970575  1
  P  P200  1  0.05548793  0.91650979  0.11076758  1
  P  P201  1  0.05243450  0.91680868  0.35948633  1
  P  P202  1  0.05533891  0.91706961  0.61151893  1
  P  P203  1  0.05363188  0.91685274  0.86034307  1
  P  P204  1  0.55428793  0.24985127  0.10818378  1
  P  P205  1  0.55312789  0.24962594  0.36006428  1
  P  P206  1  0.55272206  0.24969974  0.61189455  1
  P  P207  1  0.55609434  0.25071990  0.85994928  1
  P  P208  1  0.55607511  0.58299746  0.11047975  1
  P  P209  1  0.55584264  0.58376100  0.36051080  1
  P  P210  1  0.55411169  0.58347446  0.61100892  1
  P  P211  1  0.55648833  0.58291136  0.86075727  1
  P  P212  1  0.55530151  0.91701363  0.11007258  1
  P  P213  1  0.55241408  0.91641371  0.35960117  1
  P  P214  1  0.55172414  0.91661139  0.61034824  1
  P  P215  1  0.55513537  0.91631199  0.86085839  1
  P  P216  1  0.44698461  0.08347459  0.13955133  1
  P  P217  1  0.44537513  0.08237101  0.39061896  1
  P  P218  1  0.44401924  0.08345087  0.64014004  1
  P  P219  1  0.44516327  0.08339555  0.88876324  1
  P  P220  1  0.44614572  0.41634381  0.13871008  1
  P  P221  1  0.44710285  0.41672320  0.39033949  1
  P  P222  1  0.44548548  0.41678338  0.64110251  1
  P  P223  1  0.44634339  0.41662341  0.88933433  1
  P  P224  1  0.44634179  0.74997702  0.14072085  1
  P  P225  1  0.44648819  0.75052573  0.38844419  1
  P  P226  1  0.44800582  0.74944227  0.64028442  1
  P  P227  1  0.44878424  0.74964921  0.89034273  1
  P  P228  1  0.94674352  0.08406201  0.13800874  1
  P  P229  1  0.94632364  0.08173995  0.39085761  1
  P  P230  1  0.94657603  0.08426699  0.63950734  1
  P  P231  1  0.94425014  0.08322064  0.88911346  1
  P  P232  1  0.94684789  0.41648709  0.13996940  1
  P  P233  1  0.94492658  0.41757802  0.38898020  1
  P  P234  1  0.94729017  0.41657101  0.64023046  1
  P  P235  1  0.94444092  0.41663614  0.88826840  1
  P  P236  1  0.94784294  0.74945198  0.13976098  1
  P  P237  1  0.94618239  0.75076509  0.39007406  1
  P  P238  1  0.94774732  0.74917827  0.63965127  1
  P  P239  1  0.94605910  0.75046188  0.88991599  1
  P  P240  1  0.19543026  0.08199565  0.23462347  1
  P  P241  1  0.19673559  0.08425709  0.48678417  1
  P  P242  1  0.19617701  0.08345778  0.73461107  1
  P  P243  1  0.19413683  0.08374520  0.98591371  1
  P  P244  1  0.19543398  0.41721011  0.23413738  1
  P  P245  1  0.19448715  0.41695904  0.48697857  1
  P  P246  1  0.19671593  0.41601096  0.73465216  1
  P  P247  1  0.19551402  0.41620474  0.98586610  1
  P  P248  1  0.19714658  0.75076930  0.23478427  1
  P  P249  1  0.19528286  0.74863456  0.48655370  1
  P  P250  1  0.19584644  0.75070217  0.73427623  1
  P  P251  1  0.19499136  0.75014988  0.98569277  1
  P  P252  1  0.69708727  0.08245167  0.23527242  1
  P  P253  1  0.69834810  0.08391396  0.48534512  1
  P  P254  1  0.69881076  0.08438892  0.73464813  1
  P  P255  1  0.69829862  0.08366133  0.98458551  1
  P  P256  1  0.69876547  0.41750958  0.23490849  1
  P  P257  1  0.69702468  0.41706720  0.48550915  1
  P  P258  1  0.69694306  0.41625622  0.73620498  1
  P  P259  1  0.69648293  0.41638797  0.98403273  1
  P  P260  1  0.69546968  0.75035290  0.23681281  1
  P  P261  1  0.69367230  0.74922583  0.48601652  1
  P  P262  1  0.69488445  0.74932054  0.73518886  1
  P  P263  1  0.69615584  0.74999519  0.98447968  1
  P  P264  1  0.30135058  0.25093292  0.01451675  1
  P  P265  1  0.30239536  0.25010898  0.26482159  1
  P  P266  1  0.30280932  0.24971724  0.51583834  1
  P  P267  1  0.30276773  0.25007581  0.76399901  1
  P  P268  1  0.30352108  0.58229222  0.01462345  1
  P  P269  1  0.30303802  0.58437275  0.26513690  1
  P  P270  1  0.30295810  0.58331484  0.51596985  1
  P  P271  1  0.30457868  0.58260854  0.76406469  1
  P  P272  1  0.30146017  0.91679364  0.01472446  1
  P  P273  1  0.30227477  0.91555032  0.26535810  1
  P  P274  1  0.30578234  0.91701046  0.51438270  1
  P  P275  1  0.30303852  0.91723884  0.76387555  1
  P  P276  1  0.80440408  0.24913968  0.01398109  1
  P  P277  1  0.80549670  0.25088456  0.26337830  1
  P  P278  1  0.80458500  0.24923008  0.51621913  1
  P  P279  1  0.80540939  0.25038301  0.76388496  1
  P  P280  1  0.80363981  0.58372600  0.01418346  1
  P  P281  1  0.80465604  0.58299238  0.26438113  1
  P  P282  1  0.80358757  0.58381377  0.51495561  1
  P  P283  1  0.80435920  0.58269828  0.76367185  1
  P  P284  1  0.80353193  0.91724062  0.01386919  1
  P  P285  1  0.80253776  0.91617619  0.26582779  1
  P  P286  1  0.80447907  0.91716879  0.51419117  1
  P  P287  1  0.80446862  0.91725716  0.76534495  1
  O  O288  1  0.05526193  0.25007830  0.18601579  1
  O  O289  1  0.05898082  0.24944767  0.43825556  1
  O  O290  1  0.05854404  0.24990270  0.68794885  1
  O  O291  1  0.05832035  0.25031873  0.93689726  1
  O  O292  1  0.05493401  0.58335756  0.18679545  1
  O  O293  1  0.05804839  0.58338438  0.43773102  1
  O  O294  1  0.05566660  0.58307453  0.68641506  1
  O  O295  1  0.05545649  0.58270621  0.93633584  1
  O  O296  1  0.05915751  0.91643433  0.18753585  1
  O  O297  1  0.05654160  0.91675219  0.43622733  1
  O  O298  1  0.05884884  0.91747776  0.68833633  1
  O  O299  1  0.05829012  0.91697006  0.93706269  1
  O  O300  1  0.55751951  0.24977177  0.18500947  1
  O  O301  1  0.55616507  0.24982594  0.43688071  1
  O  O302  1  0.55898368  0.24960065  0.68843786  1
  O  O303  1  0.56074042  0.24967105  0.93666604  1
  O  O304  1  0.56048261  0.58271076  0.18724551  1
  O  O305  1  0.55927775  0.58252093  0.43734467  1
  O  O306  1  0.55897432  0.58230180  0.68773221  1
  O  O307  1  0.56009737  0.58263145  0.93758334  1
  O  O308  1  0.55941444  0.91719805  0.18682673  1
  O  O309  1  0.55577667  0.91713814  0.43636119  1
  O  O310  1  0.55607083  0.91771588  0.68700973  1
  O  O311  1  0.55971643  0.91753216  0.93760834  1
  O  O312  1  0.44334383  0.08348686  0.06275730  1
  O  O313  1  0.44281435  0.08331878  0.31380217  1
  O  O314  1  0.44030933  0.08399257  0.56331653  1
  O  O315  1  0.43982920  0.08360424  0.81207699  1
  O  O316  1  0.44156342  0.41633540  0.06193476  1
  O  O317  1  0.44404382  0.41692925  0.31354377  1
  O  O318  1  0.44266249  0.41657619  0.56428822  1
  O  O319  1  0.44070503  0.41613785  0.81271423  1
  O  O320  1  0.44325016  0.74985417  0.06389780  1
  O  O321  1  0.44158148  0.74986229  0.31187278  1
  O  O322  1  0.44467515  0.74923875  0.56349084  1
  O  O323  1  0.44428127  0.74980841  0.81368614  1
  O  O324  1  0.94176649  0.08321627  0.06135744  1
  O  O325  1  0.94381692  0.08269302  0.31398097  1
  O  O326  1  0.94203693  0.08340483  0.56284596  1
  O  O327  1  0.94097606  0.08340487  0.81222877  1
  O  O328  1  0.94328445  0.41643567  0.06318752  1
  O  O329  1  0.94117277  0.41713749  0.31223797  1
  O  O330  1  0.94426509  0.41634246  0.56348360  1
  O  O331  1  0.94084926  0.41654984  0.81152014  1
  O  O332  1  0.94384859  0.75027993  0.06310721  1
  O  O333  1  0.94342249  0.75061358  0.31329898  1
  O  O334  1  0.94367341  0.74991403  0.56302947  1
  O  O335  1  0.94330540  0.75058358  0.81314291  1
  O  O336  1  0.19027766  0.08398118  0.06269843  1
  O  O337  1  0.19319318  0.08293529  0.31146119  1
  O  O338  1  0.19178122  0.08350015  0.56340454  1
  O  O339  1  0.19253560  0.08346680  0.81131369  1
  O  O340  1  0.19010350  0.41712514  0.06248972  1
  O  O341  1  0.19231117  0.41733592  0.31098461  1
  O  O342  1  0.19059870  0.41725420  0.56371650  1
  O  O343  1  0.19293996  0.41681335  0.81137976  1
  O  O344  1  0.19073475  0.74903874  0.06245772  1
  O  O345  1  0.19369786  0.74976272  0.31156484  1
  O  O346  1  0.19071209  0.74908987  0.56324832  1
  O  O347  1  0.19279582  0.74975436  0.81112319  1
  O  O348  1  0.69489713  0.08359710  0.06127255  1
  O  O349  1  0.69389653  0.08326400  0.31200482  1
  O  O350  1  0.69397551  0.08357024  0.56201535  1
  O  O351  1  0.69492176  0.08374414  0.81129494  1
  O  O352  1  0.69432180  0.41639884  0.06082994  1
  O  O353  1  0.69531691  0.41685546  0.31162563  1
  O  O354  1  0.69360414  0.41663587  0.56228532  1
  O  O355  1  0.69257942  0.41638445  0.81282583  1
  O  O356  1  0.69382960  0.74995492  0.06133239  1
  O  O357  1  0.69187202  0.75062265  0.31358990  1
  O  O358  1  0.68962810  0.75030579  0.56287113  1
  O  O359  1  0.69148434  0.75012183  0.81197084  1
  O  O360  1  0.30568390  0.25034895  0.18806813  1
  O  O361  1  0.30614165  0.25026986  0.43911736  1
  O  O362  1  0.30740070  0.25036788  0.68732492  1
  O  O363  1  0.30545389  0.25030373  0.93782300  1
  O  O364  1  0.30638514  0.58362939  0.18838788  1
  O  O365  1  0.30721987  0.58362564  0.43928261  1
  O  O366  1  0.30905442  0.58364277  0.68735582  1
  O  O367  1  0.30701453  0.58294148  0.93784057  1
  O  O368  1  0.30544452  0.91616015  0.18862171  1
  O  O369  1  0.30972565  0.91589952  0.43763803  1
  O  O370  1  0.30817109  0.91591685  0.68719542  1
  O  O371  1  0.30565963  0.91661131  0.93799848  1
  O  O372  1  0.80970012  0.25025740  0.18660572  1
  O  O373  1  0.80722397  0.24996972  0.43935290  1
  O  O374  1  0.81015111  0.25059811  0.68722022  1
  O  O375  1  0.80876033  0.24999746  0.93726308  1
  O  O376  1  0.80920027  0.58380161  0.18757464  1
  O  O377  1  0.80847252  0.58416871  0.43824578  1
  O  O378  1  0.80934930  0.58346818  0.68697502  1
  O  O379  1  0.80833642  0.58386910  0.93746415  1
  O  O380  1  0.80669162  0.91586601  0.18907021  1
  O  O381  1  0.80846589  0.91624121  0.43751092  1
  O  O382  1  0.80755881  0.91616500  0.68851328  1
  O  O383  1  0.80853527  0.91633961  0.93727394  1
  O  O384  1  0.23125739  0.25056015  0.03892159  1
  O  O385  1  0.23270142  0.24973329  0.28992559  1
  O  O386  1  0.23269790  0.25020329  0.54037038  1
  O  O387  1  0.23233076  0.25009658  0.78768483  1
  O  O388  1  0.23376369  0.58302752  0.03955926  1
  O  O389  1  0.23334769  0.58392270  0.29034716  1
  O  O390  1  0.23274412  0.58274242  0.53999882  1
  O  O391  1  0.23445691  0.58282239  0.78816350  1
  O  O392  1  0.23132294  0.91670606  0.03876792  1
  O  O393  1  0.23241190  0.91620666  0.29070964  1
  O  O394  1  0.23558715  0.91658493  0.53816434  1
  O  O395  1  0.23257826  0.91728988  0.78733978  1
  O  O396  1  0.73407398  0.24996523  0.03777460  1
  O  O397  1  0.73559235  0.25014763  0.28791834  1
  O  O398  1  0.73499557  0.24999714  0.54160612  1
  O  O399  1  0.73499002  0.24993767  0.78751409  1
  O  O400  1  0.73319571  0.58322965  0.03749599  1
  O  O401  1  0.73428866  0.58364637  0.28807001  1
  O  O402  1  0.73318420  0.58358722  0.53835029  1
  O  O403  1  0.73384890  0.58291410  0.78687910  1
  O  O404  1  0.73315879  0.91689301  0.03746398  1
  O  O405  1  0.73248857  0.91674257  0.29022005  1
  O  O406  1  0.73450380  0.91712061  0.53871084  1
  O  O407  1  0.73465551  0.91734781  0.79004639  1
  O  O408  1  0.26494564  0.08278339  0.20884944  1
  O  O409  1  0.26703934  0.08379758  0.46304896  1
  O  O410  1  0.26631272  0.08353479  0.71024158  1
  O  O411  1  0.26395369  0.08372287  0.96109105  1
  O  O412  1  0.26515559  0.41705252  0.20928268  1
  O  O413  1  0.26441214  0.41675795  0.46229875  1
  O  O414  1  0.26685659  0.41612210  0.71044073  1
  O  O415  1  0.26583897  0.41607248  0.96215961  1
  O  O416  1  0.26707501  0.75052097  0.20988725  1
  O  O417  1  0.26542324  0.74962431  0.46273296  1
  O  O418  1  0.26561777  0.75005716  0.70933326  1
  O  O419  1  0.26492512  0.75012730  0.96112568  1
  O  O420  1  0.76678337  0.08260112  0.20999237  1
  O  O421  1  0.76843372  0.08373902  0.46106488  1
  O  O422  1  0.76906839  0.08398515  0.71064683  1
  O  O423  1  0.76829917  0.08369379  0.95976574  1
  O  O424  1  0.76858000  0.41735397  0.20963165  1
  O  O425  1  0.76673974  0.41694546  0.46060166  1
  O  O426  1  0.76724272  0.41664206  0.71208857  1
  O  O427  1  0.76613992  0.41648909  0.95860795  1
  O  O428  1  0.76520012  0.74992456  0.21153869  1
  O  O429  1  0.76380334  0.74978323  0.46210146  1
  O  O430  1  0.76486951  0.74995111  0.71061073  1
  O  O431  1  0.76570744  0.74997956  0.95878319  1
  O  O432  1  0.01712560  0.08360067  0.16170328  1
  O  O433  1  0.01584057  0.08266754  0.41646870  1
  O  O434  1  0.01695909  0.08388163  0.66328050  1
  O  O435  1  0.01422395  0.08331141  0.91344552  1
  O  O436  1  0.01683154  0.41670801  0.16486093  1
  O  O437  1  0.01482585  0.41693873  0.41349180  1
  O  O438  1  0.01728985  0.41680015  0.66519767  1
  O  O439  1  0.01429881  0.41673252  0.91298636  1
  O  O440  1  0.01789698  0.74971958  0.16435853  1
  O  O441  1  0.01574056  0.75028209  0.41555769  1
  O  O442  1  0.01784506  0.74960698  0.66411957  1
  O  O443  1  0.01562240  0.74970211  0.91536910  1
  O  O444  1  0.51667192  0.08342380  0.16442313  1
  O  O445  1  0.51493872  0.08293744  0.41640122  1
  O  O446  1  0.51404753  0.08338996  0.66466299  1
  O  O447  1  0.51551697  0.08358822  0.91181349  1
  O  O448  1  0.51622999  0.41633440  0.16263418  1
  O  O449  1  0.51663415  0.41649043  0.41585820  1
  O  O450  1  0.51528814  0.41663176  0.66610645  1
  O  O451  1  0.51708361  0.41690652  0.91176154  1
  O  O452  1  0.51619598  0.75017141  0.16523958  1
  O  O453  1  0.51682203  0.75027503  0.41223352  1
  O  O454  1  0.51802235  0.74983470  0.66508102  1
  O  O455  1  0.51893929  0.74949513  0.91432446  1
  O  O456  1  0.48462338  0.25012791  0.08301054  1
  O  O457  1  0.48355344  0.24966812  0.33467103  1
  O  O458  1  0.48200972  0.24999017  0.58948085  1
  O  O459  1  0.48570793  0.25023010  0.83673055  1
  O  O460  1  0.48598569  0.58324226  0.08654022  1
  O  O461  1  0.48592149  0.58340743  0.33588825  1
  O  O462  1  0.48367814  0.58304588  0.58739169  1
  O  O463  1  0.48643421  0.58308727  0.83651010  1
  O  O464  1  0.48524654  0.91650038  0.08588181  1
  O  O465  1  0.48242256  0.91667946  0.33479446  1
  O  O466  1  0.48155586  0.91629448  0.58627965  1
  O  O467  1  0.48503787  0.91623995  0.83691048  1
  O  O468  1  0.98218513  0.25055425  0.08418936  1
  O  O469  1  0.98442690  0.24934612  0.33755593  1
  O  O470  1  0.98397380  0.25035224  0.58723996  1
  O  O471  1  0.98308282  0.24981268  0.83709083  1
  O  O472  1  0.98137781  0.58284234  0.08521245  1
  O  O473  1  0.98235897  0.58409956  0.33779338  1
  O  O474  1  0.98222374  0.58267697  0.58497683  1
  O  O475  1  0.98102400  0.58362987  0.83566181  1
  O  O476  1  0.98541972  0.91659021  0.08629913  1
  O  O477  1  0.98248922  0.91662069  0.33483611  1
  O  O478  1  0.98536267  0.91660598  0.58707149  1
  O  O479  1  0.98326798  0.91712405  0.83682743  1
  O  O480  1  0.08604557  0.31573081  0.07683518  1
  O  O481  1  0.08773135  0.31443971  0.32823113  1
  O  O482  1  0.08768051  0.31542442  0.57824417  1
  O  O483  1  0.08686943  0.31501196  0.82668594  1
  O  O484  1  0.08526622  0.64813337  0.07742056  1
  O  O485  1  0.08606612  0.64871839  0.32772780  1
  O  O486  1  0.08636118  0.64778228  0.57687892  1
  O  O487  1  0.08521388  0.64797526  0.82699067  1
  O  O488  1  0.08904700  0.98163347  0.07766130  1
  O  O489  1  0.08646401  0.98177343  0.32689891  1
  O  O490  1  0.08849155  0.98235116  0.57836615  1
  O  O491  1  0.08716817  0.98176688  0.82695177  1
  O  O492  1  0.58896893  0.31471023  0.07598843  1
  O  O493  1  0.58740219  0.31459432  0.32747092  1
  O  O494  1  0.58571541  0.31476407  0.57822401  1
  O  O495  1  0.58922832  0.31609602  0.82703116  1
  O  O496  1  0.58978274  0.64808282  0.07759758  1
  O  O497  1  0.58949152  0.64917468  0.32825005  1
  O  O498  1  0.58732154  0.64869315  0.57811953  1
  O  O499  1  0.59026800  0.64796839  0.82797324  1
  O  O500  1  0.58894881  0.98190291  0.07662553  1
  O  O501  1  0.58660599  0.98129852  0.32685291  1
  O  O502  1  0.58503255  0.98171918  0.57693878  1
  O  O503  1  0.58835086  0.98128914  0.82702659  1
  O  O504  1  0.41297295  0.01833196  0.17201323  1
  O  O505  1  0.41123866  0.01693838  0.42218143  1
  O  O506  1  0.41026301  0.01813445  0.67262549  1
  O  O507  1  0.41204135  0.01830477  0.92215088  1
  O  O508  1  0.41261032  0.35132405  0.17179187  1
  O  O509  1  0.41256408  0.35176512  0.42252457  1
  O  O510  1  0.41111173  0.35185995  0.67371792  1
  O  O511  1  0.41337743  0.35160215  0.92318869  1
  O  O512  1  0.41238915  0.68501955  0.17345633  1
  O  O513  1  0.41333105  0.68559663  0.42243920  1
  O  O514  1  0.41451026  0.68426685  0.67303098  1
  O  O515  1  0.41517361  0.68457451  0.92317292  1
  O  O516  1  0.91346990  0.01911052  0.17171657  1
  O  O517  1  0.91239766  0.01630256  0.42264064  1
  O  O518  1  0.91286971  0.01948902  0.67307842  1
  O  O519  1  0.91064775  0.01810021  0.92204695  1
  O  O520  1  0.91304015  0.35135301  0.17254666  1
  O  O521  1  0.91126632  0.35258969  0.42208306  1
  O  O522  1  0.91335538  0.35154351  0.67296824  1
  O  O523  1  0.91110950  0.35131201  0.92119647  1
  O  O524  1  0.91395975  0.68433383  0.17212231  1
  O  O525  1  0.91157746  0.68584167  0.42234229  1
  O  O526  1  0.91407161  0.68399460  0.67213141  1
  O  O527  1  0.91141320  0.68548913  0.92188631  1
  O  O528  1  0.16145179  0.01651464  0.20307930  1
  O  O529  1  0.16349828  0.01928294  0.45305556  1
  O  O530  1  0.16237644  0.01851160  0.70168607  1
  O  O531  1  0.16051095  0.01848343  0.95319283  1
  O  O532  1  0.16098107  0.35228510  0.20174220  1
  O  O533  1  0.16085201  0.35166906  0.45440754  1
  O  O534  1  0.16261091  0.35105623  0.70219493  1
  O  O535  1  0.16198577  0.35113059  0.95280742  1
  O  O536  1  0.16285799  0.68602999  0.20158216  1
  O  O537  1  0.16237563  0.68322130  0.45356105  1
  O  O538  1  0.16123154  0.68580812  0.70179331  1
  O  O539  1  0.16142934  0.68511692  0.95237755  1
  O  O540  1  0.66313373  0.01715169  0.20323379  1
  O  O541  1  0.66440108  0.01893111  0.45248233  1
  O  O542  1  0.66503038  0.01940857  0.70160473  1
  O  O543  1  0.66443379  0.01864247  0.95180448  1
  O  O544  1  0.66470542  0.35251605  0.20219021  1
  O  O545  1  0.66319069  0.35191161  0.45292236  1
  O  O546  1  0.66384863  0.35103258  0.70291700  1
  O  O547  1  0.66227695  0.35129862  0.95178923  1
  O  O548  1  0.66162002  0.68519174  0.20423302  1
  O  O549  1  0.66044364  0.68385875  0.45345458  1
  O  O550  1  0.66145363  0.68388186  0.70277503  1
  O  O551  1  0.66188783  0.68488866  0.95226900  1
  O  O552  1  0.33514939  0.31604315  0.04703883  1
  O  O553  1  0.33618996  0.31519086  0.29757359  1
  O  O554  1  0.33691947  0.31455516  0.54881476  1
  O  O555  1  0.33612735  0.31510396  0.79736809  1
  O  O556  1  0.33787828  0.64718573  0.04714398  1
  O  O557  1  0.33686752  0.64978701  0.29726158  1
  O  O558  1  0.33657860  0.64839131  0.54910438  1
  O  O559  1  0.33814705  0.64757664  0.79748438  1
  O  O560  1  0.33490929  0.98191434  0.04764668  1
  O  O561  1  0.33683452  0.98039585  0.29788912  1
  O  O562  1  0.33898028  0.98233681  0.54710011  1
  O  O563  1  0.33612325  0.98254132  0.79674416  1
  O  O564  1  0.83819027  0.31396173  0.04743367  1
  O  O565  1  0.83867156  0.31622618  0.29615879  1
  O  O566  1  0.83937638  0.31398996  0.54872969  1
  O  O567  1  0.83832806  0.31555258  0.79745841  1
  O  O568  1  0.83667835  0.64863349  0.04795887  1
  O  O569  1  0.83814481  0.64783913  0.29807584  1
  O  O570  1  0.83690137  0.64867631  0.54861086  1
  O  O571  1  0.83740562  0.64772163  0.79751757  1
  O  O572  1  0.83669337  0.98244807  0.04702821  1
  O  O573  1  0.83709021  0.98096392  0.29823840  1
  O  O574  1  0.83838816  0.98231329  0.54669363  1
  O  O575  1  0.83878449  0.98234388  0.79721066  1
  O  O576  1  0.41291128  0.14847056  0.17202557  1
  O  O577  1  0.41056424  0.14706804  0.42337523  1
  O  O578  1  0.41010043  0.14834888  0.67331087  1
  O  O579  1  0.41194986  0.14851502  0.92213866  1
  O  O580  1  0.41282725  0.48144654  0.17201226  1
  O  O581  1  0.41300127  0.48184039  0.42276365  1
  O  O582  1  0.41153701  0.48201861  0.67336736  1
  O  O583  1  0.41316707  0.48155870  0.92292434  1
  O  O584  1  0.41205521  0.81497369  0.17308244  1
  O  O585  1  0.41324778  0.81567244  0.42158241  1
  O  O586  1  0.41392892  0.81445595  0.67286817  1
  O  O587  1  0.41503925  0.81462830  0.92336259  1
  O  O588  1  0.91381666  0.14927057  0.17113522  1
  O  O589  1  0.91142483  0.14637087  0.42348632  1
  O  O590  1  0.91337599  0.14949216  0.67257274  1
  O  O591  1  0.91055714  0.14837235  0.92188566  1
  O  O592  1  0.91254944  0.48145961  0.17244793  1
  O  O593  1  0.91158947  0.48286463  0.42180753  1
  O  O594  1  0.91275547  0.48151929  0.67238235  1
  O  O595  1  0.91065458  0.48167265  0.92105447  1
  O  O596  1  0.91396456  0.81441353  0.17277101  1
  O  O597  1  0.91237139  0.81612525  0.42229293  1
  O  O598  1  0.91387835  0.81403726  0.67278283  1
  O  O599  1  0.91262167  0.81593500  0.92246361  1
  O  O600  1  0.08627552  0.18564168  0.07640545  1
  O  O601  1  0.08772013  0.18428794  0.32836064  1
  O  O602  1  0.08777256  0.18518936  0.57781594  1
  O  O603  1  0.08694633  0.18516979  0.82680606  1
  O  O604  1  0.08515197  0.51790507  0.07742381  1
  O  O605  1  0.08572685  0.51876195  0.32737329  1
  O  O606  1  0.08628864  0.51766289  0.57727774  1
  O  O607  1  0.08462495  0.51814383  0.82647964  1
  O  O608  1  0.08907279  0.85132341  0.07788394  1
  O  O609  1  0.08670409  0.85192599  0.32677247  1
  O  O610  1  0.08907009  0.85195653  0.57889743  1
  O  O611  1  0.08713179  0.85190058  0.82716632  1
  O  O612  1  0.58854811  0.18486412  0.07560927  1
  O  O613  1  0.58728640  0.18447081  0.32790212  1
  O  O614  1  0.58540999  0.18467916  0.57788305  1
  O  O615  1  0.58977622  0.18600955  0.82611966  1
  O  O616  1  0.58970489  0.51818967  0.07703583  1
  O  O617  1  0.59000186  0.51911354  0.32708173  1
  O  O618  1  0.58775019  0.51868284  0.57729501  1
  O  O619  1  0.58998396  0.51781853  0.82740161  1
  O  O620  1  0.58940794  0.85205626  0.07733886  1
  O  O621  1  0.58647750  0.85135286  0.32713487  1
  O  O622  1  0.58564044  0.85160898  0.57791394  1
  O  O623  1  0.58865443  0.85099304  0.82844322  1
  O  O624  1  0.33508979  0.18591549  0.04748695  1
  O  O625  1  0.33653714  0.18490117  0.29696765  1
  O  O626  1  0.33661708  0.18465707  0.54847974  1
  O  O627  1  0.33587594  0.18486274  0.79715938  1
  O  O628  1  0.33713837  0.51687293  0.04686649  1
  O  O629  1  0.33728299  0.51945026  0.29784349  1
  O  O630  1  0.33718564  0.51850539  0.54867736  1
  O  O631  1  0.33792153  0.51717902  0.79660672  1
  O  O632  1  0.33527983  0.85184545  0.04756404  1
  O  O633  1  0.33628415  0.85038380  0.29780571  1
  O  O634  1  0.33947462  0.85218300  0.54809594  1
  O  O635  1  0.33617376  0.85221582  0.79771213  1
  O  O636  1  0.83764560  0.18398029  0.04701254  1
  O  O637  1  0.83944405  0.18595580  0.29645865  1
  O  O638  1  0.83890228  0.18406828  0.54806762  1
  O  O639  1  0.83898889  0.18543700  0.79712289  1
  O  O640  1  0.83722074  0.51876054  0.04743016  1
  O  O641  1  0.83779354  0.51774677  0.29727812  1
  O  O642  1  0.83716096  0.51886843  0.54823232  1
  O  O643  1  0.83752178  0.51764228  0.79694484  1
  O  O644  1  0.83669495  0.85235845  0.04781117  1
  O  O645  1  0.83612111  0.85115395  0.29892513  1
  O  O646  1  0.83791510  0.85216958  0.54767697  1
  O  O647  1  0.83840988  0.85224485  0.79825017  1
  O  O648  1  0.16037140  0.14653715  0.20189213  1
  O  O649  1  0.16355590  0.14945034  0.45381886  1
  O  O650  1  0.16226607  0.14855809  0.70192613  1
  O  O651  1  0.16041690  0.14885212  0.95304889  1
  O  O652  1  0.16121586  0.48217837  0.20156949  1
  O  O653  1  0.16104520  0.48219408  0.45390669  1
  O  O654  1  0.16275458  0.48090753  0.70159040  1
  O  O655  1  0.16244042  0.48128802  0.95200682  1
  O  O656  1  0.16299604  0.81594672  0.20282591  1
  O  O657  1  0.16156598  0.81358274  0.45329688  1
  O  O658  1  0.16189179  0.81592846  0.70226222  1
  O  O659  1  0.16129198  0.81547475  0.95330911  1
  O  O660  1  0.66312536  0.14744863  0.20240842  1
  O  O661  1  0.66475483  0.14902371  0.45262788  1
  O  O662  1  0.66519477  0.14947950  0.70196370  1
  O  O663  1  0.66459866  0.14877993  0.95183446  1
  O  O664  1  0.66480120  0.48262321  0.20259523  1
  O  O665  1  0.66313358  0.48226773  0.45323057  1
  O  O666  1  0.66334861  0.48118617  0.70292591  1
  O  O667  1  0.66216742  0.48143978  0.95182021  1
  O  O668  1  0.66189852  0.81556799  0.20403227  1
  O  O669  1  0.65971337  0.81400461  0.45263014  1
  O  O670  1  0.66071907  0.81408064  0.70201059  1
  O  O671  1  0.66178222  0.81505560  0.95230544  1
