# generated using pymatgen
data_Na2MnFe(PO4)2
_symmetry_space_group_name_H-M   'P 1'
_cell_length_a   21.07797882
_cell_length_b   18.92874184
_cell_length_c   20.03769259
_cell_angle_alpha   90.00004467
_cell_angle_beta   89.99925809
_cell_angle_gamma   90.00204646
_symmetry_Int_Tables_number   1
_chemical_formula_structural   Na2MnFe(PO4)2
_chemical_formula_sum   'Na96 Mn48 Fe48 P96 O384'
_cell_volume   7994.63095964
_cell_formula_units_Z   48
loop_
 _symmetry_equiv_pos_site_id
 _symmetry_equiv_pos_as_xyz
  1  'x, y, z'
loop_
 _atom_site_type_symbol
 _atom_site_label
 _atom_site_symmetry_multiplicity
 _atom_site_fract_x
 _atom_site_fract_y
 _atom_site_fract_z
 _atom_site_occupancy
  Na  Na0  1  0.00034960  0.00052233  -0.00116614  1
  Na  Na1  1  -0.00107987  0.00004414  0.25020694  1
  Na  Na2  1  -0.00099387  0.00047737  0.50042138  1
  Na  Na3  1  -0.00077588  0.00010596  0.75046440  1
  Na  Na4  1  0.00125965  0.33335682  0.00004898  1
  Na  Na5  1  0.00244844  0.33402157  0.24971588  1
  Na  Na6  1  0.00046896  0.33323544  0.49996429  1
  Na  Na7  1  -0.00132246  0.33229092  0.75075762  1
  Na  Na8  1  -0.00130274  0.66610236  -0.00080697  1
  Na  Na9  1  -0.00059298  0.66616425  0.24893360  1
  Na  Na10  1  0.00047079  0.66700121  0.50026216  1
  Na  Na11  1  -0.00223321  0.66586469  0.75087402  1
  Na  Na12  1  0.50036777  0.00019541  0.00066264  1
  Na  Na13  1  0.49971851  0.00009509  0.25108308  1
  Na  Na14  1  0.50041567  0.00044631  0.49887566  1
  Na  Na15  1  0.50111718  0.00054567  0.74931158  1
  Na  Na16  1  0.49891483  0.33295335  0.00066350  1
  Na  Na17  1  0.49710851  0.33246189  0.24906452  1
  Na  Na18  1  0.49945158  0.33346228  0.49908559  1
  Na  Na19  1  0.49901094  0.33247118  0.75060861  1
  Na  Na20  1  0.50037033  0.66599145  0.00096156  1
  Na  Na21  1  0.50109665  0.66641258  0.24953739  1
  Na  Na22  1  0.50206532  0.66722625  0.49957883  1
  Na  Na23  1  0.50054470  0.66635944  0.75062599  1
  Na  Na24  1  0.24904355  0.00041872  0.12603012  1
  Na  Na25  1  0.25152833  0.00124235  0.37596159  1
  Na  Na26  1  0.24795352  -0.00057231  0.62393303  1
  Na  Na27  1  0.24780981  -0.00008152  0.87543855  1
  Na  Na28  1  0.24907336  0.33327149  0.12482971  1
  Na  Na29  1  0.24865930  0.33278205  0.37526906  1
  Na  Na30  1  0.25128636  0.33334269  0.62426660  1
  Na  Na31  1  0.25019742  0.33279458  0.87537229  1
  Na  Na32  1  0.25050887  0.66675702  0.12557576  1
  Na  Na33  1  0.24762218  0.66547526  0.37384430  1
  Na  Na34  1  0.24840595  0.66650878  0.62502962  1
  Na  Na35  1  0.25084323  0.66690560  0.87522464  1
  Na  Na36  1  0.75017823  -0.00003878  0.12494976  1
  Na  Na37  1  0.75107306  0.00006334  0.37518346  1
  Na  Na38  1  0.75060125  0.00055267  0.62430772  1
  Na  Na39  1  0.75038794  0.00072990  0.87508558  1
  Na  Na40  1  0.74977803  0.33307264  0.12461176  1
  Na  Na41  1  0.75143553  0.33335794  0.37579675  1
  Na  Na42  1  0.75165731  0.33334620  0.62505749  1
  Na  Na43  1  0.75136442  0.33363118  0.87441773  1
  Na  Na44  1  0.75046451  0.66579812  0.12526526  1
  Na  Na45  1  0.75079471  0.66635014  0.37541588  1
  Na  Na46  1  0.75036631  0.66640501  0.62485080  1
  Na  Na47  1  0.75142013  0.66707400  0.87465667  1
  Na  Na48  1  0.00239548  0.16644022  0.00014047  1
  Na  Na49  1  0.00184992  0.16584810  0.25001545  1
  Na  Na50  1  -0.00062764  0.16653874  0.49995750  1
  Na  Na51  1  -0.00089616  0.16721623  0.75018913  1
  Na  Na52  1  -0.00031714  0.49963164  -0.00106393  1
  Na  Na53  1  -0.00044860  0.50042927  0.25038006  1
  Na  Na54  1  0.00114291  0.49932506  0.49958878  1
  Na  Na55  1  -0.00175302  0.50061775  0.75069946  1
  Na  Na56  1  -0.00133979  0.83360065  -0.00090710  1
  Na  Na57  1  -0.00066563  0.83344331  0.24850925  1
  Na  Na58  1  -0.00127977  0.83430574  0.50096786  1
  Na  Na59  1  -0.00138258  0.83395390  0.75117191  1
  Na  Na60  1  0.50068688  0.16616684  0.00006491  1
  Na  Na61  1  0.49891321  0.16639744  0.25024424  1
  Na  Na62  1  0.49713697  0.16740645  0.49911004  1
  Na  Na63  1  0.49892697  0.16694539  0.75020508  1
  Na  Na64  1  0.49833652  0.50073611  0.00101132  1
  Na  Na65  1  0.49895927  0.49999385  0.24901674  1
  Na  Na66  1  0.50109208  0.49936695  0.49855044  1
  Na  Na67  1  0.49950035  0.50014105  0.75120971  1
  Na  Na68  1  0.50126983  0.83331837  0.00132393  1
  Na  Na69  1  0.50000262  0.83439823  0.25029050  1
  Na  Na70  1  0.50227058  0.83361592  0.49967206  1
  Na  Na71  1  0.50300832  0.83248457  0.74953129  1
  Na  Na72  1  0.24765357  0.16746504  0.12488591  1
  Na  Na73  1  0.25008686  0.16581365  0.37570037  1
  Na  Na74  1  0.24935684  0.16704600  0.62425618  1
  Na  Na75  1  0.24972376  0.16635734  0.87490075  1
  Na  Na76  1  0.25117440  0.49949422  0.12533769  1
  Na  Na77  1  0.24966549  0.49966498  0.37401264  1
  Na  Na78  1  0.24785058  0.50102561  0.62538811  1
  Na  Na79  1  0.25224584  0.49942981  0.87593613  1
  Na  Na80  1  0.24879189  0.83370074  0.12626061  1
  Na  Na81  1  0.25018191  0.83320580  0.37495898  1
  Na  Na82  1  0.24955899  0.83361308  0.62377405  1
  Na  Na83  1  0.24703112  0.83460049  0.87507972  1
  Na  Na84  1  0.74900114  0.16715415  0.12452459  1
  Na  Na85  1  0.75272493  0.16523984  0.37544239  1
  Na  Na86  1  0.75188797  0.16624834  0.62515738  1
  Na  Na87  1  0.75120115  0.16666189  0.87508619  1
  Na  Na88  1  0.75061110  0.50036801  0.12466002  1
  Na  Na89  1  0.75122072  0.49959002  0.37557145  1
  Na  Na90  1  0.75048214  0.49952083  0.62399545  1
  Na  Na91  1  0.75002389  0.49996415  0.87523841  1
  Na  Na92  1  0.75148450  0.83295091  0.12547756  1
  Na  Na93  1  0.75027316  0.83456247  0.37531433  1
  Na  Na94  1  0.75080133  0.83338394  0.62500622  1
  Na  Na95  1  0.75055496  0.83321824  0.87414377  1
  Mn  Mn96  1  0.10707543  0.75052474  0.62316943  1
  Mn  Mn97  1  0.60764410  0.08315952  0.87263773  1
  Mn  Mn98  1  0.64246430  0.58339996  0.49764856  1
  Mn  Mn99  1  0.10770366  0.08365564  0.87221422  1
  Mn  Mn100  1  0.35696710  0.08308509  0.00257269  1
  Mn  Mn101  1  0.89308093  0.25011184  0.12739903  1
  Mn  Mn102  1  0.35857481  0.75081891  0.75206704  1
  Mn  Mn103  1  0.60849217  0.75005604  0.37220713  1
  Mn  Mn104  1  0.39214587  0.58390906  0.37737711  1
  Mn  Mn105  1  0.14217183  0.58345888  0.74847547  1
  Mn  Mn106  1  0.10785932  0.41689118  0.87268806  1
  Mn  Mn107  1  0.35760275  0.74973295  0.50216583  1
  Mn  Mn108  1  0.39146595  0.24961925  0.12730006  1
  Mn  Mn109  1  0.85845107  0.75056898  0.50215837  1
  Mn  Mn110  1  0.35738982  0.41705126  0.50231431  1
  Mn  Mn111  1  0.85771701  0.08323118  0.00295438  1
  Mn  Mn112  1  0.89235804  0.58330033  0.62756361  1
  Mn  Mn113  1  0.64240366  0.24917945  0.49804702  1
  Mn  Mn114  1  0.14161488  0.91727690  0.24841604  1
  Mn  Mn115  1  0.10690668  0.74981546  0.12173058  1
  Mn  Mn116  1  0.89207573  0.91691329  0.87756113  1
  Mn  Mn117  1  0.35760216  0.75037814  0.25277043  1
  Mn  Mn118  1  0.10708734  0.74951987  0.87284405  1
  Mn  Mn119  1  0.85882499  0.41581786  0.50224190  1
  Mn  Mn120  1  0.39164883  0.91613082  0.87700287  1
  Mn  Mn121  1  0.64255654  0.25013823  0.74772201  1
  Mn  Mn122  1  0.64234304  0.58269159  0.74799810  1
  Mn  Mn123  1  0.39319736  0.91657444  0.62721852  1
  Mn  Mn124  1  0.60699776  0.41671449  0.87320778  1
  Mn  Mn125  1  0.10743840  0.41618268  0.62341965  1
  Mn  Mn126  1  0.60741529  0.41585645  0.12327029  1
  Mn  Mn127  1  0.89319077  0.24993187  0.37660301  1
  Mn  Mn128  1  0.64220752  0.25010589  0.24816473  1
  Mn  Mn129  1  0.64251340  0.91630003  0.99773608  1
  Mn  Mn130  1  0.14215854  0.25035618  0.49794940  1
  Mn  Mn131  1  0.14159748  0.58263646  0.24683387  1
  Mn  Mn132  1  0.35721027  0.08269413  0.75126426  1
  Mn  Mn133  1  0.64294121  0.91719645  0.74756234  1
  Mn  Mn134  1  0.60773235  0.41618328  0.37182706  1
  Mn  Mn135  1  0.35776772  0.75028297  0.00198451  1
  Mn  Mn136  1  0.35831067  0.41674559  0.75193722  1
  Mn  Mn137  1  0.39236994  0.58322993  0.62663453  1
  Mn  Mn138  1  0.85775313  0.41692085  0.00283845  1
  Mn  Mn139  1  0.60759147  0.08407332  0.37286146  1
  Mn  Mn140  1  0.85819332  0.75001663  0.25276277  1
  Mn  Mn141  1  0.60854627  0.75016751  0.12283014  1
  Mn  Mn142  1  0.14147794  0.91616698  0.49711777  1
  Mn  Mn143  1  0.39178532  0.91665662  0.12737454  1
  Fe  Fe144  1  0.60790886  0.08388816  0.62257850  1
  Fe  Fe145  1  0.39280022  0.58353200  0.87765151  1
  Fe  Fe146  1  0.89272780  0.91698607  0.12665333  1
  Fe  Fe147  1  0.10606719  0.08340380  0.62365826  1
  Fe  Fe148  1  0.64246129  0.25050458  0.99793308  1
  Fe  Fe149  1  0.89347362  0.58359373  0.37628202  1
  Fe  Fe150  1  0.85788035  0.08391826  0.25109531  1
  Fe  Fe151  1  0.89256599  0.58293490  0.12646636  1
  Fe  Fe152  1  0.89240700  0.91734222  0.62731337  1
  Fe  Fe153  1  0.14286251  0.24975149  0.24871853  1
  Fe  Fe154  1  0.10669291  0.75039802  0.37363037  1
  Fe  Fe155  1  0.85690865  0.74967448  0.75197501  1
  Fe  Fe156  1  0.60802658  0.74969848  0.87384853  1
  Fe  Fe157  1  0.35619510  0.41593445  0.25184321  1
  Fe  Fe158  1  0.64287811  0.58302869  0.99850493  1
  Fe  Fe159  1  0.64378670  0.91733856  0.49853936  1
  Fe  Fe160  1  0.35666386  0.41670795  0.00188859  1
  Fe  Fe161  1  0.14265227  0.24960067  0.74792587  1
  Fe  Fe162  1  0.39289613  0.58379612  0.12676105  1
  Fe  Fe163  1  0.39125379  0.24966476  0.37646663  1
  Fe  Fe164  1  0.85744995  0.41645873  0.75180435  1
  Fe  Fe165  1  0.89182267  0.58251429  0.87731124  1
  Fe  Fe166  1  0.10735892  0.08311438  0.12379590  1
  Fe  Fe167  1  0.89284803  0.24965372  0.62738960  1
  Fe  Fe168  1  0.39302775  0.24996159  0.62667099  1
  Fe  Fe169  1  0.35687607  0.08291093  0.50228103  1
  Fe  Fe170  1  0.64392543  0.58301383  0.24839063  1
  Fe  Fe171  1  0.14299631  0.58343986  0.99843306  1
  Fe  Fe172  1  0.14146235  0.91634971  0.99890939  1
  Fe  Fe173  1  0.60875337  0.74995527  0.62317346  1
  Fe  Fe174  1  0.60767303  0.08355008  0.12435359  1
  Fe  Fe175  1  0.64336691  0.91696411  0.24855875  1
  Fe  Fe176  1  0.10706516  0.08293331  0.37337549  1
  Fe  Fe177  1  0.85837118  0.41608933  0.25129050  1
  Fe  Fe178  1  0.14170549  0.91704469  0.74755475  1
  Fe  Fe179  1  0.60786922  0.41597577  0.62364565  1
  Fe  Fe180  1  0.14151315  0.58356576  0.49797518  1
  Fe  Fe181  1  0.35690541  0.08384473  0.25167595  1
  Fe  Fe182  1  0.85748910  0.08388304  0.75156385  1
  Fe  Fe183  1  0.85826553  0.08328788  0.50206503  1
  Fe  Fe184  1  0.39318191  0.91680842  0.37699554  1
  Fe  Fe185  1  0.10757889  0.41694109  0.12298222  1
  Fe  Fe186  1  0.10745274  0.41698420  0.37267171  1
  Fe  Fe187  1  0.39186884  0.25000433  0.87702200  1
  Fe  Fe188  1  0.89304611  0.25040737  0.87726413  1
  Fe  Fe189  1  0.89255631  0.91654227  0.37650197  1
  Fe  Fe190  1  0.85690249  0.74986347  0.00136195  1
  Fe  Fe191  1  0.14282527  0.25062149  0.99782498  1
  P  P192  1  0.05584526  0.25010871  0.11088995  1
  P  P193  1  0.05454521  0.24966989  0.35960873  1
  P  P194  1  0.05304278  0.24904435  0.61135219  1
  P  P195  1  0.05425775  0.25040183  0.86031004  1
  P  P196  1  0.05242312  0.58223182  0.10885138  1
  P  P197  1  0.05346724  0.58378604  0.36080498  1
  P  P198  1  0.05364430  0.58326432  0.60970203  1
  P  P199  1  0.05266701  0.58315724  0.86125360  1
  P  P200  1  0.05211599  0.91762749  0.10951638  1
  P  P201  1  0.05153949  0.91674824  0.36014538  1
  P  P202  1  0.05277449  0.91779472  0.61132030  1
  P  P203  1  0.05481331  0.91659082  0.86035074  1
  P  P204  1  0.55376823  0.24895583  0.10974581  1
  P  P205  1  0.55133391  0.24980554  0.35966496  1
  P  P206  1  0.55242263  0.24979718  0.60988127  1
  P  P207  1  0.55280322  0.25017488  0.86111047  1
  P  P208  1  0.55458838  0.58280795  0.11083706  1
  P  P209  1  0.55434992  0.58299866  0.35847649  1
  P  P210  1  0.55385411  0.58262842  0.61005517  1
  P  P211  1  0.55366107  0.58382231  0.86192191  1
  P  P212  1  0.55491171  0.91793546  0.11174638  1
  P  P213  1  0.55464875  0.91740580  0.36062782  1
  P  P214  1  0.55513906  0.91727744  0.60909936  1
  P  P215  1  0.55351920  0.91581338  0.85992701  1
  P  P216  1  0.44694025  0.08327715  0.14092014  1
  P  P217  1  0.44396663  0.08339212  0.38913783  1
  P  P218  1  0.44708387  0.08380295  0.63845083  1
  P  P219  1  0.44595319  0.08354939  0.89003462  1
  P  P220  1  0.44395575  0.41724506  0.13929934  1
  P  P221  1  0.44473994  0.41589069  0.38834339  1
  P  P222  1  0.44819612  0.41600869  0.63972466  1
  P  P223  1  0.44527286  0.41649451  0.89108025  1
  P  P224  1  0.44671749  0.74941532  0.14027566  1
  P  P225  1  0.44705724  0.75098832  0.39005227  1
  P  P226  1  0.44895920  0.75002635  0.63970222  1
  P  P227  1  0.44841494  0.74973599  0.89046383  1
  P  P228  1  0.94762719  0.08309066  0.14022135  1
  P  P229  1  0.94600257  0.08274637  0.38917801  1
  P  P230  1  0.94568269  0.08341532  0.63957448  1
  P  P231  1  0.94530559  0.08468816  0.88899259  1
  P  P232  1  0.94777492  0.41718156  0.14025755  1
  P  P233  1  0.94717158  0.41703653  0.38843226  1
  P  P234  1  0.94624825  0.41571586  0.64097411  1
  P  P235  1  0.94511072  0.41616321  0.88903615  1
  P  P236  1  0.94477773  0.74965603  0.13802469  1
  P  P237  1  0.94763780  0.75013179  0.38964969  1
  P  P238  1  0.94572330  0.75112676  0.64115998  1
  P  P239  1  0.94399325  0.74910903  0.88951159  1
  P  P240  1  0.19568487  0.08398241  0.23626079  1
  P  P241  1  0.19520324  0.08337663  0.48574626  1
  P  P242  1  0.19538328  0.08368555  0.73386948  1
  P  P243  1  0.19443845  0.08337023  0.98650645  1
  P  P244  1  0.19550012  0.41563132  0.23534565  1
  P  P245  1  0.19540843  0.41741052  0.48435176  1
  P  P246  1  0.19694677  0.41561824  0.73525054  1
  P  P247  1  0.19618400  0.41735960  0.98639380  1
  P  P248  1  0.19460640  0.75028563  0.23592186  1
  P  P249  1  0.19545116  0.74935158  0.48393584  1
  P  P250  1  0.19661802  0.75078717  0.73487004  1
  P  P251  1  0.19609505  0.74950071  0.98535488  1
  P  P252  1  0.69771257  0.08288398  0.23494732  1
  P  P253  1  0.69725965  0.08288159  0.48594953  1
  P  P254  1  0.69755796  0.08390708  0.73425687  1
  P  P255  1  0.69541604  0.08426913  0.98613723  1
  P  P256  1  0.69861088  0.41722554  0.23505525  1
  P  P257  1  0.69579836  0.41585010  0.48577862  1
  P  P258  1  0.69760592  0.41643663  0.73456648  1
  P  P259  1  0.69631155  0.41654120  0.98512402  1
  P  P260  1  0.69724447  0.74986882  0.23539059  1
  P  P261  1  0.69610168  0.75117950  0.48596028  1
  P  P262  1  0.69656262  0.74970636  0.73564771  1
  P  P263  1  0.69747585  0.74905576  0.98454355  1
  P  P264  1  0.30293295  0.25044874  0.01393759  1
  P  P265  1  0.30222386  0.24982564  0.26527526  1
  P  P266  1  0.30505300  0.24914769  0.51437323  1
  P  P267  1  0.30390244  0.24951481  0.76423825  1
  P  P268  1  0.30416482  0.58302028  0.01480474  1
  P  P269  1  0.30423196  0.58254689  0.26363765  1
  P  P270  1  0.30123364  0.58340883  0.51490146  1
  P  P271  1  0.30426947  0.58369565  0.76586977  1
  P  P272  1  0.30106047  0.91653834  0.01541030  1
  P  P273  1  0.30370703  0.91787354  0.26606207  1
  P  P274  1  0.30439813  0.91720319  0.51381715  1
  P  P275  1  0.30138490  0.91707505  0.76471904  1
  P  P276  1  0.80335798  0.25016518  0.01424869  1
  P  P277  1  0.80373594  0.25000416  0.26477679  1
  P  P278  1  0.80488635  0.24889304  0.51566051  1
  P  P279  1  0.80548317  0.24984668  0.76447561  1
  P  P280  1  0.80379237  0.58395793  0.01445331  1
  P  P281  1  0.80489890  0.58220686  0.26452011  1
  P  P282  1  0.80523761  0.58331394  0.51380162  1
  P  P283  1  0.80403150  0.58276767  0.76538641  1
  P  P284  1  0.80395860  0.91588090  0.01563279  1
  P  P285  1  0.80450367  0.91782741  0.26432678  1
  P  P286  1  0.80502455  0.91762656  0.51450225  1
  P  P287  1  0.80490302  0.91734545  0.76363145  1
  O  O288  1  0.05953551  0.25001408  0.18768980  1
  O  O289  1  0.05659376  0.24969677  0.43647708  1
  O  O290  1  0.05769198  0.24969724  0.68802124  1
  O  O291  1  0.05935770  0.25054704  0.93705842  1
  O  O292  1  0.05607182  0.58287449  0.18564046  1
  O  O293  1  0.05754801  0.58344578  0.43751694  1
  O  O294  1  0.05650515  0.58333747  0.68654080  1
  O  O295  1  0.05820537  0.58312181  0.93783689  1
  O  O296  1  0.05579729  0.91709133  0.18623782  1
  O  O297  1  0.05483063  0.91694747  0.43689770  1
  O  O298  1  0.05742063  0.91709926  0.68802444  1
  O  O299  1  0.05896579  0.91648037  0.93714568  1
  O  O300  1  0.55676243  0.24995574  0.18656642  1
  O  O301  1  0.55591766  0.24979550  0.43629968  1
  O  O302  1  0.55599080  0.24945182  0.68663142  1
  O  O303  1  0.55801490  0.25024548  0.93774721  1
  O  O304  1  0.55992626  0.58271778  0.18746813  1
  O  O305  1  0.55780574  0.58297000  0.43529247  1
  O  O306  1  0.55622956  0.58259403  0.68692354  1
  O  O307  1  0.55868720  0.58316426  0.93859454  1
  O  O308  1  0.55937220  0.91728424  0.18850991  1
  O  O309  1  0.55986551  0.91751518  0.43725188  1
  O  O310  1  0.55785217  0.91743632  0.68595486  1
  O  O311  1  0.55643962  0.91666836  0.93674874  1
  O  O312  1  0.44292182  0.08323732  0.06417661  1
  O  O313  1  0.44008623  0.08354439  0.31233605  1
  O  O314  1  0.44206647  0.08301168  0.56182175  1
  O  O315  1  0.44292659  0.08305507  0.81322364  1
  O  O316  1  0.43999138  0.41644617  0.06251712  1
  O  O317  1  0.44026495  0.41622791  0.31156640  1
  O  O318  1  0.44440572  0.41688326  0.56300544  1
  O  O319  1  0.44312688  0.41629077  0.81421612  1
  O  O320  1  0.44353371  0.74994785  0.06348704  1
  O  O321  1  0.44366695  0.75034432  0.31327045  1
  O  O322  1  0.44448640  0.75021655  0.56304104  1
  O  O323  1  0.44487022  0.75043155  0.81371260  1
  O  O324  1  0.94401941  0.08394868  0.06347754  1
  O  O325  1  0.94137373  0.08353789  0.31248174  1
  O  O326  1  0.94197411  0.08339882  0.56276473  1
  O  O327  1  0.94136139  0.08400513  0.81224981  1
  O  O328  1  0.94388306  0.41624027  0.06351777  1
  O  O329  1  0.94243805  0.41640297  0.31176674  1
  O  O330  1  0.94408395  0.41630221  0.56408214  1
  O  O331  1  0.94118428  0.41640340  0.81232381  1
  O  O332  1  0.94106898  0.74968482  0.06128730  1
  O  O333  1  0.94435331  0.74997900  0.31286631  1
  O  O334  1  0.94341669  0.75043946  0.56429679  1
  O  O335  1  0.94003116  0.74975775  0.81272113  1
  O  O336  1  0.19085787  0.08318385  0.06334177  1
  O  O337  1  0.19102918  0.08275637  0.31298230  1
  O  O338  1  0.18990218  0.08331732  0.56236122  1
  O  O339  1  0.19299718  0.08382974  0.81075327  1
  O  O340  1  0.19187342  0.41741785  0.06311505  1
  O  O341  1  0.19073462  0.41688657  0.31206913  1
  O  O342  1  0.19256488  0.41649310  0.56117372  1
  O  O343  1  0.19414161  0.41602058  0.81207381  1
  O  O344  1  0.19342865  0.74935361  0.06220751  1
  O  O345  1  0.18985635  0.75027427  0.31265072  1
  O  O346  1  0.19233743  0.75045251  0.56073571  1
  O  O347  1  0.19327876  0.75013034  0.81164817  1
  O  O348  1  0.69144773  0.08370652  0.06285972  1
  O  O349  1  0.69408632  0.08336073  0.31170409  1
  O  O350  1  0.69211983  0.08402322  0.56259611  1
  O  O351  1  0.69337659  0.08395182  0.81100670  1
  O  O352  1  0.69329957  0.41654954  0.06189074  1
  O  O353  1  0.69488189  0.41647466  0.31179669  1
  O  O354  1  0.69116319  0.41572478  0.56254446  1
  O  O355  1  0.69308617  0.41630940  0.81125002  1
  O  O356  1  0.69404868  0.74947724  0.06131702  1
  O  O357  1  0.69474521  0.75012839  0.31220889  1
  O  O358  1  0.69225788  0.75024386  0.56279953  1
  O  O359  1  0.69170220  0.74976893  0.81233977  1
  O  O360  1  0.30533611  0.24966291  0.18849742  1
  O  O361  1  0.30841288  0.24982617  0.43757408  1
  O  O362  1  0.30906749  0.24981562  0.68749827  1
  O  O363  1  0.30772254  0.24962340  0.93724782  1
  O  O364  1  0.30865307  0.58362261  0.18690967  1
  O  O365  1  0.30549227  0.58335694  0.43818984  1
  O  O366  1  0.30710612  0.58362618  0.68900849  1
  O  O367  1  0.30895799  0.58396966  0.93805016  1
  O  O368  1  0.30641113  0.91708371  0.18919321  1
  O  O369  1  0.30896582  0.91658754  0.43714339  1
  O  O370  1  0.30616240  0.91683953  0.68803251  1
  O  O371  1  0.30506289  0.91659150  0.93870976  1
  O  O372  1  0.80646315  0.25008575  0.18799359  1
  O  O373  1  0.80814842  0.24970581  0.43886755  1
  O  O374  1  0.80925439  0.24976071  0.68766031  1
  O  O375  1  0.80837335  0.25012941  0.93760282  1
  O  O376  1  0.80923133  0.58273166  0.18773715  1
  O  O377  1  0.80993629  0.58341265  0.43701136  1
  O  O378  1  0.80665873  0.58280467  0.68853442  1
  O  O379  1  0.80823152  0.58285871  0.93774574  1
  O  O380  1  0.80933446  0.91714165  0.18763836  1
  O  O381  1  0.80950577  0.91682716  0.43770808  1
  O  O382  1  0.80814820  0.91736152  0.68680652  1
  O  O383  1  0.80671839  0.91711772  0.93878140  1
  O  O384  1  0.23258446  0.25054899  0.03765787  1
  O  O385  1  0.23222928  0.24957589  0.29025567  1
  O  O386  1  0.23494827  0.24999676  0.53857352  1
  O  O387  1  0.23345659  0.24923978  0.78768359  1
  O  O388  1  0.23378394  0.58334387  0.03860715  1
  O  O389  1  0.23401218  0.58242415  0.28733241  1
  O  O390  1  0.23112977  0.58363191  0.53915024  1
  O  O391  1  0.23451935  0.58312755  0.79101691  1
  O  O392  1  0.23099794  0.91660843  0.04003682  1
  O  O393  1  0.23391989  0.91733016  0.29113370  1
  O  O394  1  0.23414915  0.91680222  0.53747070  1
  O  O395  1  0.23116309  0.91751649  0.78861533  1
  O  O396  1  0.73304769  0.25038809  0.03791460  1
  O  O397  1  0.73428791  0.24959870  0.29081983  1
  O  O398  1  0.73510718  0.24958651  0.54053647  1
  O  O399  1  0.73541649  0.24995773  0.78884223  1
  O  O400  1  0.73341556  0.58308555  0.03820250  1
  O  O401  1  0.73460564  0.58305357  0.28855603  1
  O  O402  1  0.73520593  0.58319128  0.53775499  1
  O  O403  1  0.73430549  0.58306410  0.79063345  1
  O  O404  1  0.73425542  0.91628967  0.04066792  1
  O  O405  1  0.73407463  0.91721737  0.28799529  1
  O  O406  1  0.73474355  0.91732714  0.53835589  1
  O  O407  1  0.73512573  0.91741637  0.78878470  1
  O  O408  1  0.26606981  0.08381864  0.21243362  1
  O  O409  1  0.26572730  0.08348343  0.46272963  1
  O  O410  1  0.26494917  0.08342158  0.70825489  1
  O  O411  1  0.26425747  0.08337126  0.96156242  1
  O  O412  1  0.26591136  0.41615915  0.21184603  1
  O  O413  1  0.26511617  0.41639838  0.45925380  1
  O  O414  1  0.26647425  0.41660410  0.70961595  1
  O  O415  1  0.26640907  0.41678236  0.96221556  1
  O  O416  1  0.26476663  0.75052310  0.21226939  1
  O  O417  1  0.26517683  0.74956619  0.45884911  1
  O  O418  1  0.26624442  0.75037582  0.70944437  1
  O  O419  1  0.26560210  0.75015925  0.95962957  1
  O  O420  1  0.76783566  0.08357460  0.21032128  1
  O  O421  1  0.76768000  0.08279308  0.46248432  1
  O  O422  1  0.76783230  0.08370495  0.71046469  1
  O  O423  1  0.76542014  0.08362419  0.96172147  1
  O  O424  1  0.76856584  0.41674315  0.21008883  1
  O  O425  1  0.76602526  0.41594955  0.46217573  1
  O  O426  1  0.76789378  0.41639283  0.71078782  1
  O  O427  1  0.76602501  0.41671374  0.96004539  1
  O  O428  1  0.76685772  0.74964913  0.20991049  1
  O  O429  1  0.76601563  0.75075603  0.46136417  1
  O  O430  1  0.76704405  0.74961539  0.71219482  1
  O  O431  1  0.76750563  0.74997865  0.95992058  1
  O  O432  1  0.01778860  0.08319280  0.16461819  1
  O  O433  1  0.01643173  0.08349946  0.41290017  1
  O  O434  1  0.01581407  0.08336605  0.66413848  1
  O  O435  1  0.01532902  0.08399771  0.91316037  1
  O  O436  1  0.01797544  0.41707433  0.16439439  1
  O  O437  1  0.01751188  0.41637173  0.41228514  1
  O  O438  1  0.01575448  0.41638096  0.66672978  1
  O  O439  1  0.01506418  0.41621817  0.91349820  1
  O  O440  1  0.01467239  0.74965810  0.16277295  1
  O  O441  1  0.01739271  0.75056012  0.41504718  1
  O  O442  1  0.01525213  0.75025669  0.66682131  1
  O  O443  1  0.01407167  0.74985177  0.91356645  1
  O  O444  1  0.51703332  0.08358218  0.16533564  1
  O  O445  1  0.51415295  0.08370109  0.41320610  1
  O  O446  1  0.51743956  0.08356456  0.66230639  1
  O  O447  1  0.51566307  0.08339200  0.91514756  1
  O  O448  1  0.51411972  0.41602446  0.16334175  1
  O  O449  1  0.51483663  0.41655732  0.41231970  1
  O  O450  1  0.51804951  0.41590827  0.66501069  1
  O  O451  1  0.51486369  0.41678785  0.91673988  1
  O  O452  1  0.51648247  0.74999862  0.16523218  1
  O  O453  1  0.51689819  0.75064102  0.41468541  1
  O  O454  1  0.51920940  0.74995824  0.66372970  1
  O  O455  1  0.51829329  0.74971300  0.91566935  1
  O  O456  1  0.48387135  0.24959510  0.08506882  1
  O  O457  1  0.48115587  0.24926834  0.33562117  1
  O  O458  1  0.48246796  0.25004025  0.58488418  1
  O  O459  1  0.48235859  0.25016314  0.83769733  1
  O  O460  1  0.48399290  0.58314753  0.08783107  1
  O  O461  1  0.48443941  0.58318710  0.33411813  1
  O  O462  1  0.48445113  0.58320136  0.58377169  1
  O  O463  1  0.48327911  0.58320506  0.83828578  1
  O  O464  1  0.48486715  0.91713083  0.08748330  1
  O  O465  1  0.48409258  0.91749474  0.33753974  1
  O  O466  1  0.48541539  0.91718133  0.58386954  1
  O  O467  1  0.48405054  0.91627407  0.83408707  1
  O  O468  1  0.98579589  0.25009023  0.08637174  1
  O  O469  1  0.98500457  0.24977372  0.33387318  1
  O  O470  1  0.98282689  0.24953914  0.58720232  1
  O  O471  1  0.98379641  0.25018294  0.83723680  1
  O  O472  1  0.98222690  0.58266436  0.08465543  1
  O  O473  1  0.98327159  0.58357568  0.33629188  1
  O  O474  1  0.98389902  0.58307768  0.58470196  1
  O  O475  1  0.98220766  0.58309031  0.83804493  1
  O  O476  1  0.98198368  0.91727573  0.08495795  1
  O  O477  1  0.98163141  0.91674398  0.33498959  1
  O  O478  1  0.98247081  0.91754065  0.58750277  1
  O  O479  1  0.98458221  0.91689070  0.83685682  1
  O  O480  1  0.08941739  0.31535339  0.07785742  1
  O  O481  1  0.08912382  0.31459756  0.32737927  1
  O  O482  1  0.08672558  0.31396230  0.57798835  1
  O  O483  1  0.08757613  0.31529633  0.82673469  1
  O  O484  1  0.08651981  0.64711599  0.07591469  1
  O  O485  1  0.08662363  0.64900236  0.32768009  1
  O  O486  1  0.08769580  0.64834248  0.57717441  1
  O  O487  1  0.08566072  0.64819980  0.82760524  1
  O  O488  1  0.08603065  0.98273031  0.07706442  1
  O  O489  1  0.08550060  0.98194636  0.32764942  1
  O  O490  1  0.08601201  0.98286815  0.57801658  1
  O  O491  1  0.08833480  0.98157803  0.82707229  1
  O  O492  1  0.58822687  0.31378618  0.07693463  1
  O  O493  1  0.58481734  0.31481971  0.32640342  1
  O  O494  1  0.58644685  0.31492134  0.57748261  1
  O  O495  1  0.58600938  0.31525423  0.82759731  1
  O  O496  1  0.58807492  0.64770706  0.07722498  1
  O  O497  1  0.58872158  0.64799299  0.32611072  1
  O  O498  1  0.58869307  0.64769807  0.57822798  1
  O  O499  1  0.58683634  0.64901097  0.82870936  1
  O  O500  1  0.58797749  0.98335833  0.07890210  1
  O  O501  1  0.58794931  0.98241498  0.32709633  1
  O  O502  1  0.58933058  0.98242422  0.57662726  1
  O  O503  1  0.58804280  0.98074094  0.82737160  1
  O  O504  1  0.41289580  0.01841065  0.17377217  1
  O  O505  1  0.41066406  0.01810499  0.42230005  1
  O  O506  1  0.41374668  0.01884756  0.67221463  1
  O  O507  1  0.41194676  0.01841221  0.92265859  1
  O  O508  1  0.40959298  0.35256741  0.17249494  1
  O  O509  1  0.41153727  0.35057103  0.42127000  1
  O  O510  1  0.41399580  0.35084608  0.67197946  1
  O  O511  1  0.41082925  0.35137850  0.92323673  1
  O  O512  1  0.41289086  0.68408193  0.17248637  1
  O  O513  1  0.41316578  0.68582320  0.42277540  1
  O  O514  1  0.41521386  0.68499655  0.67249706  1
  O  O515  1  0.41426843  0.68462217  0.92279375  1
  O  O516  1  0.91351774  0.01808788  0.17266142  1
  O  O517  1  0.91289324  0.01750329  0.42238951  1
  O  O518  1  0.91184677  0.01850370  0.67267371  1
  O  O519  1  0.91151199  0.01971811  0.92211029  1
  O  O520  1  0.91399504  0.35225521  0.17354652  1
  O  O521  1  0.91371023  0.35203815  0.42191162  1
  O  O522  1  0.91207839  0.35047156  0.67288962  1
  O  O523  1  0.91174381  0.35091578  0.92213690  1
  O  O524  1  0.91132361  0.68437336  0.17095700  1
  O  O525  1  0.91379371  0.68499557  0.42219932  1
  O  O526  1  0.91081827  0.68630401  0.67336875  1
  O  O527  1  0.91056316  0.68392933  0.92245672  1
  O  O528  1  0.16198534  0.01922178  0.20250740  1
  O  O529  1  0.16191039  0.01845044  0.45188935  1
  O  O530  1  0.16066190  0.01875861  0.70175351  1
  O  O531  1  0.16064200  0.01828752  0.95373691  1
  O  O532  1  0.16254188  0.35019571  0.20255964  1
  O  O533  1  0.16068709  0.35258355  0.45183987  1
  O  O534  1  0.16325783  0.35020238  0.70289663  1
  O  O535  1  0.16244019  0.35241864  0.95324360  1
  O  O536  1  0.16136544  0.68516629  0.20253862  1
  O  O537  1  0.16117106  0.68420213  0.45184929  1
  O  O538  1  0.16224707  0.68566683  0.70267460  1
  O  O539  1  0.16227308  0.68403399  0.95305787  1
  O  O540  1  0.66398515  0.01770878  0.20228743  1
  O  O541  1  0.66400225  0.01771583  0.45285475  1
  O  O542  1  0.66369177  0.01900592  0.70131278  1
  O  O543  1  0.66176870  0.01921038  0.95292820  1
  O  O544  1  0.66426098  0.35227610  0.20246080  1
  O  O545  1  0.66255843  0.35070569  0.45240514  1
  O  O546  1  0.66386812  0.35145301  0.70142217  1
  O  O547  1  0.66237057  0.35136838  0.95255688  1
  O  O548  1  0.66313483  0.68463273  0.20326071  1
  O  O549  1  0.66220832  0.68632565  0.45280803  1
  O  O550  1  0.66320204  0.68471330  0.70226126  1
  O  O551  1  0.66389468  0.68378440  0.95189707  1
  O  O552  1  0.33627329  0.31552822  0.04701953  1
  O  O553  1  0.33608542  0.31503776  0.29779020  1
  O  O554  1  0.33919367  0.31387975  0.54761218  1
  O  O555  1  0.33722609  0.31451216  0.79783537  1
  O  O556  1  0.33790368  0.64785308  0.04836526  1
  O  O557  1  0.33736512  0.64753073  0.29743538  1
  O  O558  1  0.33522345  0.64833507  0.54777330  1
  O  O559  1  0.33835974  0.64886499  0.79826683  1
  O  O560  1  0.33495255  0.98156197  0.04823322  1
  O  O561  1  0.33765626  0.98322260  0.29795258  1
  O  O562  1  0.33745178  0.98258505  0.54695486  1
  O  O563  1  0.33499968  0.98214209  0.79767237  1
  O  O564  1  0.83692641  0.31508774  0.04764466  1
  O  O565  1  0.83790625  0.31525367  0.29697581  1
  O  O566  1  0.83957447  0.31354762  0.54842343  1
  O  O567  1  0.83924182  0.31495246  0.79740653  1
  O  O568  1  0.83678837  0.64931340  0.04741017  1
  O  O569  1  0.83878736  0.64715896  0.29787082  1
  O  O570  1  0.83848614  0.64846288  0.54697903  1
  O  O571  1  0.83841800  0.64775012  0.79772069  1
  O  O572  1  0.83850492  0.98061194  0.04851922  1
  O  O573  1  0.83767109  0.98306072  0.29742116  1
  O  O574  1  0.83852135  0.98278683  0.54746824  1
  O  O575  1  0.83867630  0.98251715  0.79636674  1
  O  O576  1  0.41267919  0.14830964  0.17350418  1
  O  O577  1  0.41002476  0.14830713  0.42213571  1
  O  O578  1  0.41367431  0.14901089  0.67144760  1
  O  O579  1  0.41186778  0.14876046  0.92234389  1
  O  O580  1  0.41092298  0.48267260  0.17205453  1
  O  O581  1  0.41114512  0.48087906  0.42177787  1
  O  O582  1  0.41425467  0.48106941  0.67249455  1
  O  O583  1  0.41072781  0.48158692  0.92309717  1
  O  O584  1  0.41235181  0.81435265  0.17273400  1
  O  O585  1  0.41327306  0.81624999  0.42234490  1
  O  O586  1  0.41547507  0.81518236  0.67289900  1
  O  O587  1  0.41438678  0.81481822  0.92321996  1
  O  O588  1  0.91386204  0.14803578  0.17345224  1
  O  O589  1  0.91227848  0.14748812  0.42285234  1
  O  O590  1  0.91208432  0.14851290  0.67261344  1
  O  O591  1  0.91221827  0.14997258  0.92209042  1
  O  O592  1  0.91377664  0.48230508  0.17260955  1
  O  O593  1  0.91409500  0.48217894  0.42169640  1
  O  O594  1  0.91139463  0.48050291  0.67325090  1
  O  O595  1  0.91140822  0.48123566  0.92211316  1
  O  O596  1  0.91122161  0.81481805  0.17104299  1
  O  O597  1  0.91333676  0.81520263  0.42191960  1
  O  O598  1  0.91166156  0.81647787  0.67297875  1
  O  O599  1  0.91005448  0.81401347  0.92266229  1
  O  O600  1  0.08952296  0.18499175  0.07799537  1
  O  O601  1  0.08881071  0.18445442  0.32755265  1
  O  O602  1  0.08619003  0.18387404  0.57807898  1
  O  O603  1  0.08762030  0.18544639  0.82677392  1
  O  O604  1  0.08633929  0.51710809  0.07636974  1
  O  O605  1  0.08697785  0.51870705  0.32749385  1
  O  O606  1  0.08797161  0.51832022  0.57724995  1
  O  O607  1  0.08584222  0.51819688  0.82763397  1
  O  O608  1  0.08602782  0.85264168  0.07646923  1
  O  O609  1  0.08547508  0.85175967  0.32753099  1
  O  O610  1  0.08615791  0.85278718  0.57782190  1
  O  O611  1  0.08812570  0.85156893  0.82705424  1
  O  O612  1  0.58761095  0.18357965  0.07774565  1
  O  O613  1  0.58537036  0.18485797  0.32692985  1
  O  O614  1  0.58616477  0.18464826  0.57686726  1
  O  O615  1  0.58613137  0.18523803  0.82750930  1
  O  O616  1  0.58746675  0.51763461  0.07717998  1
  O  O617  1  0.58840256  0.51802248  0.32568247  1
  O  O618  1  0.58781827  0.51720779  0.57801875  1
  O  O619  1  0.58701624  0.51887242  0.82819865  1
  O  O620  1  0.58878813  0.85303581  0.07846057  1
  O  O621  1  0.58801401  0.85249675  0.32694752  1
  O  O622  1  0.58961121  0.85215508  0.57708941  1
  O  O623  1  0.58787487  0.85047149  0.82828832  1
  O  O624  1  0.33592207  0.18542026  0.04778867  1
  O  O625  1  0.33645996  0.18495274  0.29792819  1
  O  O626  1  0.33832266  0.18378346  0.54720417  1
  O  O627  1  0.33732211  0.18446163  0.79753764  1
  O  O628  1  0.33746368  0.51771421  0.04763622  1
  O  O629  1  0.33753471  0.51722548  0.29634522  1
  O  O630  1  0.33480890  0.51820449  0.54779570  1
  O  O631  1  0.33884730  0.51878995  0.79818124  1
  O  O632  1  0.33496149  0.85147641  0.04810921  1
  O  O633  1  0.33841353  0.85312590  0.29865296  1
  O  O634  1  0.33785927  0.85227583  0.54736093  1
  O  O635  1  0.33485067  0.85196408  0.79793617  1
  O  O636  1  0.83667259  0.18518543  0.04778410  1
  O  O637  1  0.83830251  0.18486062  0.29670148  1
  O  O638  1  0.83870962  0.18350612  0.54784262  1
  O  O639  1  0.83911236  0.18468016  0.79744680  1
  O  O640  1  0.83779480  0.51936707  0.04820196  1
  O  O641  1  0.83826699  0.51699010  0.29746106  1
  O  O642  1  0.83874044  0.51823695  0.54681498  1
  O  O643  1  0.83805337  0.51756031  0.79783640  1
  O  O644  1  0.83790026  0.85051950  0.04749445  1
  O  O645  1  0.83804875  0.85289255  0.29806452  1
  O  O646  1  0.83871141  0.85283374  0.54802975  1
  O  O647  1  0.83853490  0.85210436  0.79625879  1
  O  O648  1  0.16234085  0.14917017  0.20331274  1
  O  O649  1  0.16195191  0.14838242  0.45221286  1
  O  O650  1  0.16111315  0.14891218  0.70169102  1
  O  O651  1  0.16086676  0.14866613  0.95367821  1
  O  O652  1  0.16180980  0.48025128  0.20130538  1
  O  O653  1  0.16159738  0.48272336  0.45200006  1
  O  O654  1  0.16211246  0.48051729  0.70335234  1
  O  O655  1  0.16314842  0.48269362  0.95312645  1
  O  O656  1  0.16103753  0.81536543  0.20290433  1
  O  O657  1  0.16104630  0.81433209  0.45117801  1
  O  O658  1  0.16256620  0.81599105  0.70246594  1
  O  O659  1  0.16128505  0.81446861  0.95359076  1
  O  O660  1  0.66326204  0.14767159  0.20217380  1
  O  O661  1  0.66412303  0.14785454  0.45204742  1
  O  O662  1  0.66391451  0.14896488  0.70123068  1
  O  O663  1  0.66214816  0.14960726  0.95312987  1
  O  O664  1  0.66481558  0.48239009  0.20254636  1
  O  O665  1  0.66243770  0.48091357  0.45255685  1
  O  O666  1  0.66394148  0.48147378  0.70161095  1
  O  O667  1  0.66229960  0.48177038  0.95276678  1
  O  O668  1  0.66326411  0.81510088  0.20313146  1
  O  O669  1  0.66287442  0.81670404  0.45345091  1
  O  O670  1  0.66339573  0.81475859  0.70211028  1
  O  O671  1  0.66309391  0.81385878  0.95172888  1
