# generated using pymatgen
data_Na2MnFe(PO4)2
_symmetry_space_group_name_H-M   'P 1'
_cell_length_a   21.08049535
_cell_length_b   18.93262761
_cell_length_c   20.03943981
_cell_angle_alpha   90.00028958
_cell_angle_beta   90.00509890
_cell_angle_gamma   89.99937335
_symmetry_Int_Tables_number   1
_chemical_formula_structural   Na2MnFe(PO4)2
_chemical_formula_sum   'Na96 Mn48 Fe48 P96 O384'
_cell_volume   7997.92412338
_cell_formula_units_Z   48
loop_
 _symmetry_equiv_pos_site_id
 _symmetry_equiv_pos_as_xyz
  1  'x, y, z'
loop_
 _atom_site_type_symbol
 _atom_site_label
 _atom_site_symmetry_multiplicity
 _atom_site_fract_x
 _atom_site_fract_y
 _atom_site_fract_z
 _atom_site_occupancy
  Na  Na0  1  -0.00261118  -0.00164911  0.00058927  1
  Na  Na1  1  -0.00051883  -0.00002043  0.25027462  1
  Na  Na2  1  -0.00072971  -0.00051438  0.49975148  1
  Na  Na3  1  -0.00029336  -0.00064944  0.74992582  1
  Na  Na4  1  0.00295376  0.33429177  0.00048005  1
  Na  Na5  1  0.00134579  0.33365833  0.25092387  1
  Na  Na6  1  0.00012598  0.33326660  0.49940513  1
  Na  Na7  1  0.00158739  0.33375518  0.74961207  1
  Na  Na8  1  0.00007981  0.66624517  0.00050686  1
  Na  Na9  1  -0.00180850  0.66575015  0.25128765  1
  Na  Na10  1  0.00043038  0.66661151  0.49986683  1
  Na  Na11  1  0.00268955  0.66750377  0.74841144  1
  Na  Na12  1  0.50003303  0.00029770  0.00125646  1
  Na  Na13  1  0.49950701  -0.00031438  0.25035496  1
  Na  Na14  1  0.49981327  0.00034213  0.49874172  1
  Na  Na15  1  0.49974643  0.00063382  0.74879750  1
  Na  Na16  1  0.49974788  0.33385714  -0.00059901  1
  Na  Na17  1  0.50100489  0.33464100  0.25038304  1
  Na  Na18  1  0.49783523  0.33291261  0.50023760  1
  Na  Na19  1  0.49827607  0.33315543  0.74918774  1
  Na  Na20  1  0.50391729  0.66792254  -0.00074741  1
  Na  Na21  1  0.50037050  0.66595694  0.25084664  1
  Na  Na22  1  0.49904361  0.66618365  0.50092640  1
  Na  Na23  1  0.50074533  0.66703458  0.74947942  1
  Na  Na24  1  0.25116089  0.00073515  0.12577945  1
  Na  Na25  1  0.24988883  0.00049021  0.37480801  1
  Na  Na26  1  0.25110869  0.00002897  0.62435354  1
  Na  Na27  1  0.25137844  0.00014878  0.87558962  1
  Na  Na28  1  0.24580704  0.33280343  0.12559879  1
  Na  Na29  1  0.24776112  0.33335196  0.37421522  1
  Na  Na30  1  0.25133220  0.33407094  0.62575060  1
  Na  Na31  1  0.25023741  0.33391675  0.87462269  1
  Na  Na32  1  0.24843344  0.66616801  0.12579279  1
  Na  Na33  1  0.24871567  0.66633614  0.37424433  1
  Na  Na34  1  0.24879786  0.66627479  0.62482938  1
  Na  Na35  1  0.24905171  0.66695900  0.87529853  1
  Na  Na36  1  0.75151968  -0.00016535  0.12401379  1
  Na  Na37  1  0.75043230  -0.00097891  0.37528083  1
  Na  Na38  1  0.75027114  -0.00013531  0.62528920  1
  Na  Na39  1  0.75078039  0.00000215  0.87434905  1
  Na  Na40  1  0.75082778  0.33375309  0.12536102  1
  Na  Na41  1  0.75189032  0.33380391  0.37505112  1
  Na  Na42  1  0.74919743  0.33294806  0.62418988  1
  Na  Na43  1  0.74840509  0.33338774  0.87571934  1
  Na  Na44  1  0.75084383  0.66680851  0.12540198  1
  Na  Na45  1  0.75289484  0.66715562  0.37436140  1
  Na  Na46  1  0.74956857  0.66612392  0.62480783  1
  Na  Na47  1  0.74701206  0.66545368  0.87543731  1
  Na  Na48  1  0.00106803  0.16683793  0.00044615  1
  Na  Na49  1  -0.00065983  0.16770170  0.25054655  1
  Na  Na50  1  0.00200289  0.16584642  0.49903948  1
  Na  Na51  1  0.00092364  0.16732090  0.75038758  1
  Na  Na52  1  0.00017363  0.50025267  0.00043328  1
  Na  Na53  1  -0.00030366  0.50022635  0.25159035  1
  Na  Na54  1  0.00052572  0.49972622  0.50027425  1
  Na  Na55  1  0.00245487  0.49930510  0.74858906  1
  Na  Na56  1  -0.00058695  0.83341421  0.00066158  1
  Na  Na57  1  -0.00155506  0.83372722  0.25005005  1
  Na  Na58  1  -0.00152279  0.83361666  0.50006579  1
  Na  Na59  1  -0.00010537  0.83341819  0.74871580  1
  Na  Na60  1  0.50035732  0.16606233  0.00012657  1
  Na  Na61  1  0.49807975  0.16726548  0.25061108  1
  Na  Na62  1  0.49876457  0.16665266  0.49940125  1
  Na  Na63  1  0.49914149  0.16643354  0.74881345  1
  Na  Na64  1  0.50100530  0.49957019  -0.00059964  1
  Na  Na65  1  0.49954142  0.50054571  0.25021455  1
  Na  Na66  1  0.49878935  0.50063101  0.50079059  1
  Na  Na67  1  0.49985324  0.49987648  0.74961271  1
  Na  Na68  1  0.50202941  0.83288945  0.00025784  1
  Na  Na69  1  0.50281513  0.83249293  0.25086486  1
  Na  Na70  1  0.49898809  0.83350491  0.49967406  1
  Na  Na71  1  0.50007297  0.83280410  0.74904636  1
  Na  Na72  1  0.24987867  0.16617918  0.12563417  1
  Na  Na73  1  0.24821328  0.16723384  0.37461935  1
  Na  Na74  1  0.25170378  0.16578118  0.62486178  1
  Na  Na75  1  0.25095402  0.16689807  0.87426424  1
  Na  Na76  1  0.24929196  0.49945310  0.12578522  1
  Na  Na77  1  0.24851577  0.50060224  0.37453968  1
  Na  Na78  1  0.25037696  0.49989610  0.62467979  1
  Na  Na79  1  0.24970009  0.50005323  0.87602723  1
  Na  Na80  1  0.24810560  0.83312269  0.12552290  1
  Na  Na81  1  0.24852643  0.83327537  0.37441782  1
  Na  Na82  1  0.25101395  0.83208728  0.62506210  1
  Na  Na83  1  0.24879932  0.83364821  0.87552936  1
  Na  Na84  1  0.75153418  0.16613991  0.12525090  1
  Na  Na85  1  0.75196696  0.16622040  0.37521672  1
  Na  Na86  1  0.74847775  0.16775908  0.62470424  1
  Na  Na87  1  0.74757884  0.16751280  0.87466471  1
  Na  Na88  1  0.75030838  0.50003724  0.12536751  1
  Na  Na89  1  0.75242131  0.49948169  0.37434167  1
  Na  Na90  1  0.74905543  0.50067217  0.62416935  1
  Na  Na91  1  0.74834929  0.50027129  0.87562310  1
  Na  Na92  1  0.75116580  0.83346143  0.12417561  1
  Na  Na93  1  0.75154521  0.83353091  0.37484735  1
  Na  Na94  1  0.75126752  0.83309219  0.62552771  1
  Na  Na95  1  0.74991016  0.83351884  0.87512280  1
  Mn  Mn96  1  0.85811130  0.08353043  0.50256933  1
  Mn  Mn97  1  0.10883744  0.41618234  0.62223347  1
  Mn  Mn98  1  0.64323411  0.24951707  0.24803947  1
  Mn  Mn99  1  0.60693045  0.41636884  0.62216574  1
  Mn  Mn100  1  0.64159654  0.25008253  0.99804147  1
  Mn  Mn101  1  0.10857488  0.08328959  0.62307674  1
  Mn  Mn102  1  0.60841163  0.74955860  0.37341808  1
  Mn  Mn103  1  0.64256516  0.91659070  0.99748728  1
  Mn  Mn104  1  0.35676326  0.41657377  0.25187512  1
  Mn  Mn105  1  0.39302002  0.58385938  0.12660582  1
  Mn  Mn106  1  0.60783005  0.08358286  0.37242569  1
  Mn  Mn107  1  0.85837571  0.41678621  0.00195021  1
  Mn  Mn108  1  0.10814358  0.75056822  0.62231475  1
  Mn  Mn109  1  0.89253079  0.25012097  0.87707062  1
  Mn  Mn110  1  0.10748130  0.08342466  0.12257461  1
  Mn  Mn111  1  0.35821539  0.74972797  0.00285999  1
  Mn  Mn112  1  0.85793240  0.08397021  0.00148020  1
  Mn  Mn113  1  0.60723095  0.41630171  0.87208220  1
  Mn  Mn114  1  0.39078635  0.25090612  0.37738678  1
  Mn  Mn115  1  0.39242184  0.58402446  0.87738236  1
  Mn  Mn116  1  0.85761267  0.08436351  0.75248688  1
  Mn  Mn117  1  0.89267537  0.58343064  0.87648050  1
  Mn  Mn118  1  0.39221159  0.91637242  0.87725723  1
  Mn  Mn119  1  0.14132322  0.58301969  0.99764712  1
  Mn  Mn120  1  0.10851995  0.08258557  0.87263987  1
  Mn  Mn121  1  0.10645302  0.74958590  0.12343063  1
  Mn  Mn122  1  0.64333005  0.58353990  0.24824901  1
  Mn  Mn123  1  0.60764194  0.75041013  0.62197637  1
  Mn  Mn124  1  0.39260901  0.91565217  0.12771888  1
  Mn  Mn125  1  0.89250072  0.58327717  0.62726506  1
  Mn  Mn126  1  0.60770244  0.41694491  0.37345724  1
  Mn  Mn127  1  0.60700581  0.08342568  0.62219569  1
  Mn  Mn128  1  0.85777834  0.74903637  0.75285331  1
  Mn  Mn129  1  0.64237339  0.91682794  0.74739833  1
  Mn  Mn130  1  0.85749827  0.41665910  0.75235246  1
  Mn  Mn131  1  0.39159101  0.91686064  0.62684532  1
  Mn  Mn132  1  0.14329388  0.24947847  0.74734933  1
  Mn  Mn133  1  0.39213562  0.24982275  0.87755428  1
  Mn  Mn134  1  0.89209254  0.24944070  0.62711482  1
  Mn  Mn135  1  0.39152075  0.25078798  0.12725772  1
  Mn  Mn136  1  0.89302468  0.25035775  0.12725493  1
  Mn  Mn137  1  0.14198924  0.91663556  0.49713789  1
  Mn  Mn138  1  0.60801937  0.08374407  0.12355514  1
  Mn  Mn139  1  0.35767496  0.75003427  0.25207161  1
  Mn  Mn140  1  0.39139719  0.58316100  0.62727920  1
  Mn  Mn141  1  0.14177502  0.91746070  0.99794001  1
  Mn  Mn142  1  0.85784853  0.74920289  0.00130161  1
  Mn  Mn143  1  0.39199512  0.91564238  0.37677845  1
  Fe  Fe144  1  0.10668678  0.41745295  0.12355753  1
  Fe  Fe145  1  0.64227719  0.25027429  0.49764174  1
  Fe  Fe146  1  0.35783499  0.08380939  0.00185222  1
  Fe  Fe147  1  0.14170618  0.58351552  0.24855403  1
  Fe  Fe148  1  0.35751474  0.08249554  0.75221371  1
  Fe  Fe149  1  0.35639005  0.74972807  0.50091112  1
  Fe  Fe150  1  0.60911796  0.74952283  0.12379260  1
  Fe  Fe151  1  0.35648509  0.08352389  0.50077564  1
  Fe  Fe152  1  0.10700887  0.41672254  0.37374316  1
  Fe  Fe153  1  0.39191335  0.24998831  0.62597032  1
  Fe  Fe154  1  0.60749937  0.75069958  0.87241279  1
  Fe  Fe155  1  0.64351464  0.91638694  0.49815083  1
  Fe  Fe156  1  0.85753531  0.41684368  0.50152038  1
  Fe  Fe157  1  0.35655858  0.41658568  0.00236413  1
  Fe  Fe158  1  0.64211316  0.58267689  0.74789978  1
  Fe  Fe159  1  0.64292792  0.58302372  0.99874760  1
  Fe  Fe160  1  0.35621541  0.41687598  0.50083361  1
  Fe  Fe161  1  0.35678387  0.41736679  0.75215387  1
  Fe  Fe162  1  0.35670006  0.75001406  0.75218251  1
  Fe  Fe163  1  0.60813221  0.41716287  0.12356650  1
  Fe  Fe164  1  0.64325258  0.58338347  0.49761835  1
  Fe  Fe165  1  0.10734229  0.08282624  0.37311072  1
  Fe  Fe166  1  0.14301392  0.25034383  0.49869221  1
  Fe  Fe167  1  0.85847547  0.41622089  0.25200206  1
  Fe  Fe168  1  0.10651560  0.75021748  0.37339615  1
  Fe  Fe169  1  0.89220885  0.91631800  0.12754553  1
  Fe  Fe170  1  0.89256136  0.91705622  0.62686465  1
  Fe  Fe171  1  0.39152362  0.58351293  0.37696887  1
  Fe  Fe172  1  0.89382668  0.25011176  0.37707484  1
  Fe  Fe173  1  0.89212331  0.58303107  0.12700424  1
  Fe  Fe174  1  0.89344493  0.91630825  0.87576947  1
  Fe  Fe175  1  0.85771220  0.75009694  0.25199346  1
  Fe  Fe176  1  0.14287278  0.58294336  0.49786352  1
  Fe  Fe177  1  0.14278742  0.91635961  0.74863833  1
  Fe  Fe178  1  0.14163485  0.91661820  0.24865740  1
  Fe  Fe179  1  0.85826270  0.08339332  0.25215779  1
  Fe  Fe180  1  0.64163610  0.25055616  0.74764495  1
  Fe  Fe181  1  0.85760146  0.74957695  0.50130948  1
  Fe  Fe182  1  0.60696906  0.08305264  0.87310953  1
  Fe  Fe183  1  0.10773669  0.74977840  0.87328813  1
  Fe  Fe184  1  0.64423069  0.91681592  0.24858843  1
  Fe  Fe185  1  0.89287230  0.91677743  0.37672786  1
  Fe  Fe186  1  0.89359655  0.58310982  0.37737685  1
  Fe  Fe187  1  0.14325501  0.24962498  0.99814969  1
  Fe  Fe188  1  0.10826723  0.41728960  0.87314599  1
  Fe  Fe189  1  0.14320165  0.58388331  0.74881713  1
  Fe  Fe190  1  0.14166929  0.24967205  0.24846888  1
  Fe  Fe191  1  0.35620345  0.08322839  0.25165764  1
  P  P192  1  0.05562353  0.25089971  0.11086541  1
  P  P193  1  0.05468302  0.25001494  0.36135739  1
  P  P194  1  0.05427616  0.24983131  0.60879552  1
  P  P195  1  0.05538180  0.25076399  0.86103749  1
  P  P196  1  0.05260540  0.58267815  0.11190187  1
  P  P197  1  0.05425125  0.58339850  0.36162269  1
  P  P198  1  0.05583128  0.58338675  0.60996566  1
  P  P199  1  0.05411198  0.58338595  0.85893857  1
  P  P200  1  0.05262080  0.91654303  0.11145906  1
  P  P201  1  0.05255393  0.91632622  0.35982882  1
  P  P202  1  0.05339414  0.91684718  0.61064669  1
  P  P203  1  0.05311924  0.91557922  0.85938720  1
  P  P204  1  0.55305918  0.25081178  0.11035147  1
  P  P205  1  0.55383053  0.25041704  0.36078280  1
  P  P206  1  0.55295565  0.25008377  0.60967575  1
  P  P207  1  0.55341055  0.24911130  0.85890137  1
  P  P208  1  0.55488298  0.58334674  0.10979671  1
  P  P209  1  0.55327952  0.58324295  0.36135317  1
  P  P210  1  0.55477975  0.58326647  0.61004551  1
  P  P211  1  0.55508789  0.58392703  0.86013961  1
  P  P212  1  0.55554370  0.91609865  0.11176824  1
  P  P213  1  0.55567631  0.91642521  0.36036999  1
  P  P214  1  0.55363341  0.91680646  0.60842756  1
  P  P215  1  0.55337753  0.91709840  0.85962328  1
  P  P216  1  0.44454983  0.08349593  0.14026609  1
  P  P217  1  0.44412645  0.08326887  0.38914642  1
  P  P218  1  0.44378713  0.08415288  0.63858563  1
  P  P219  1  0.44624159  0.08297020  0.88966985  1
  P  P220  1  0.44696204  0.41714149  0.13910716  1
  P  P221  1  0.44537482  0.41791600  0.39072296  1
  P  P222  1  0.44369093  0.41609171  0.63907617  1
  P  P223  1  0.44434765  0.41708282  0.88958426  1
  P  P224  1  0.44923598  0.74965882  0.14054139  1
  P  P225  1  0.44604969  0.74890551  0.39078475  1
  P  P226  1  0.44416572  0.74979276  0.63939713  1
  P  P227  1  0.44706756  0.75016710  0.88907395  1
  P  P228  1  0.94603807  0.08300666  0.14074504  1
  P  P229  1  0.94678784  0.08330723  0.38869408  1
  P  P230  1  0.94700574  0.08293903  0.64020458  1
  P  P231  1  0.94747560  0.08278594  0.88994666  1
  P  P232  1  0.94742333  0.41716221  0.14097880  1
  P  P233  1  0.94623893  0.41655783  0.38952779  1
  P  P234  1  0.94596299  0.41637523  0.63891498  1
  P  P235  1  0.94875932  0.41692152  0.88979182  1
  P  P236  1  0.94521447  0.74942211  0.14067763  1
  P  P237  1  0.94575664  0.75005611  0.38926889  1
  P  P238  1  0.94514782  0.75040921  0.63853389  1
  P  P239  1  0.94849861  0.75013383  0.88954511  1
  P  P240  1  0.19532596  0.08292384  0.23640882  1
  P  P241  1  0.19689034  0.08417789  0.48444001  1
  P  P242  1  0.19842787  0.08195669  0.73510256  1
  P  P243  1  0.19823276  0.08414147  0.98525114  1
  P  P244  1  0.19347620  0.41723563  0.23610193  1
  P  P245  1  0.19698111  0.41656032  0.48448299  1
  P  P246  1  0.19680690  0.41775423  0.73623578  1
  P  P247  1  0.19558715  0.41598615  0.98602487  1
  P  P248  1  0.19433495  0.74986951  0.23658174  1
  P  P249  1  0.19667329  0.74922304  0.48411727  1
  P  P250  1  0.19622181  0.75028487  0.73629610  1
  P  P251  1  0.19564429  0.75001640  0.98485874  1
  P  P252  1  0.69886390  0.08251977  0.23539387  1
  P  P253  1  0.69655623  0.08327719  0.48502634  1
  P  P254  1  0.69497960  0.08426814  0.73567136  1
  P  P255  1  0.69597574  0.08321745  0.98408227  1
  P  P256  1  0.69803704  0.41665233  0.23519678  1
  P  P257  1  0.69765545  0.41688682  0.48482697  1
  P  P258  1  0.69591514  0.41647941  0.73450529  1
  P  P259  1  0.69537806  0.41746228  0.98631197  1
  P  P260  1  0.69825720  0.75074155  0.23510382  1
  P  P261  1  0.69836411  0.74991517  0.48500927  1
  P  P262  1  0.69529824  0.74935264  0.73572028  1
  P  P263  1  0.69504406  0.74909863  0.98551319  1
  P  P264  1  0.30223922  0.25060823  0.01507714  1
  P  P265  1  0.30125419  0.24984354  0.26460614  1
  P  P266  1  0.30221982  0.25049279  0.51491223  1
  P  P267  1  0.30515097  0.24993562  0.76353903  1
  P  P268  1  0.30282665  0.58263628  0.01542945  1
  P  P269  1  0.30246068  0.58325487  0.26517066  1
  P  P270  1  0.30288158  0.58346646  0.51339589  1
  P  P271  1  0.30228717  0.58385418  0.76515207  1
  P  P272  1  0.30335398  0.91698121  0.01562325  1
  P  P273  1  0.30171746  0.91675476  0.26481905  1
  P  P274  1  0.30293177  0.91622653  0.51425550  1
  P  P275  1  0.30234386  0.91611716  0.76498650  1
  P  P276  1  0.80327207  0.25032164  0.01521021  1
  P  P277  1  0.80516477  0.25012124  0.26574186  1
  P  P278  1  0.80365651  0.25078533  0.51358540  1
  P  P279  1  0.80144797  0.25052115  0.76520630  1
  P  P280  1  0.80300051  0.58324208  0.01548879  1
  P  P281  1  0.80624312  0.58305480  0.26452078  1
  P  P282  1  0.80428595  0.58320226  0.51338996  1
  P  P283  1  0.80159668  0.58295257  0.76520875  1
  P  P284  1  0.80584813  0.91634117  0.01389711  1
  P  P285  1  0.80487005  0.91667707  0.26437128  1
  P  P286  1  0.80463816  0.91589938  0.51438411  1
  P  P287  1  0.80519913  0.91667086  0.76459718  1
  O  O288  1  0.05910792  0.24955777  0.18776533  1
  O  O289  1  0.05935705  0.24995495  0.43802699  1
  O  O290  1  0.05793542  0.25013920  0.68562170  1
  O  O291  1  0.05941504  0.24981582  0.93784924  1
  O  O292  1  0.05707122  0.58334365  0.18855738  1
  O  O293  1  0.05895538  0.58324566  0.43834763  1
  O  O294  1  0.06051562  0.58338098  0.68670064  1
  O  O295  1  0.05612874  0.58327134  0.93588237  1
  O  O296  1  0.05777741  0.91692454  0.18809445  1
  O  O297  1  0.05607645  0.91636992  0.43658526  1
  O  O298  1  0.05881279  0.91667292  0.68726340  1
  O  O299  1  0.05630423  0.91652336  0.93620478  1
  O  O300  1  0.55639335  0.25017233  0.18716156  1
  O  O301  1  0.55855266  0.25018775  0.43755940  1
  O  O302  1  0.55772216  0.25029227  0.68636756  1
  O  O303  1  0.55635112  0.25003541  0.93573105  1
  O  O304  1  0.55741323  0.58299973  0.18669441  1
  O  O305  1  0.55887241  0.58335781  0.43800076  1
  O  O306  1  0.55901137  0.58310191  0.68682991  1
  O  O307  1  0.55909551  0.58305092  0.93687636  1
  O  O308  1  0.56002695  0.91688166  0.18854434  1
  O  O309  1  0.56015260  0.91649531  0.43712806  1
  O  O310  1  0.55700491  0.91664045  0.68521234  1
  O  O311  1  0.55621420  0.91710461  0.93643851  1
  O  O312  1  0.44042634  0.08369384  0.06339566  1
  O  O313  1  0.43935692  0.08335372  0.31235903  1
  O  O314  1  0.43941224  0.08335818  0.56178333  1
  O  O315  1  0.44117174  0.08278993  0.81290501  1
  O  O316  1  0.44158412  0.41661411  0.06246394  1
  O  O317  1  0.44248529  0.41725298  0.31389396  1
  O  O318  1  0.43925902  0.41704232  0.56232251  1
  O  O319  1  0.43985968  0.41741027  0.81274186  1
  O  O320  1  0.44511640  0.74999066  0.06382432  1
  O  O321  1  0.44325426  0.74955774  0.31396459  1
  O  O322  1  0.43934302  0.74960381  0.56266322  1
  O  O323  1  0.44126367  0.74994112  0.81242299  1
  O  O324  1  0.94324709  0.08371002  0.06394014  1
  O  O325  1  0.94221435  0.08353565  0.31203205  1
  O  O326  1  0.94396521  0.08362118  0.56335693  1
  O  O327  1  0.94432964  0.08400092  0.81316442  1
  O  O328  1  0.94409383  0.41659552  0.06420487  1
  O  O329  1  0.94207698  0.41645111  0.31283553  1
  O  O330  1  0.94117814  0.41656082  0.56213408  1
  O  O331  1  0.94460505  0.41669100  0.81307626  1
  O  O332  1  0.94300159  0.74921178  0.06382810  1
  O  O333  1  0.94136816  0.75004078  0.31256907  1
  O  O334  1  0.94094527  0.74942669  0.56174258  1
  O  O335  1  0.94488489  0.74932396  0.81281349  1
  O  O336  1  0.19407266  0.08324957  0.06195578  1
  O  O337  1  0.19068088  0.08285753  0.31314413  1
  O  O338  1  0.19383457  0.08313679  0.56117058  1
  O  O339  1  0.19468942  0.08269653  0.81180360  1
  O  O340  1  0.19082514  0.41730696  0.06272807  1
  O  O341  1  0.18971137  0.41736972  0.31293929  1
  O  O342  1  0.19444938  0.41656324  0.56123912  1
  O  O343  1  0.19241471  0.41724351  0.81294494  1
  O  O344  1  0.19182479  0.74973119  0.06164747  1
  O  O345  1  0.19013760  0.75001583  0.31332767  1
  O  O346  1  0.19361731  0.75010445  0.56089209  1
  O  O347  1  0.19172487  0.75041258  0.81298025  1
  O  O348  1  0.69322872  0.08315615  0.06092833  1
  O  O349  1  0.69475193  0.08303215  0.31205525  1
  O  O350  1  0.69335416  0.08350096  0.56180515  1
  O  O351  1  0.69089063  0.08322760  0.81241086  1
  O  O352  1  0.69164826  0.41667623  0.06309851  1
  O  O353  1  0.69388679  0.41683187  0.31187020  1
  O  O354  1  0.69353585  0.41680304  0.56147995  1
  O  O355  1  0.69319469  0.41639970  0.81132436  1
  O  O356  1  0.69201748  0.75013123  0.06235950  1
  O  O357  1  0.69460252  0.74992579  0.31179641  1
  O  O358  1  0.69458789  0.74992085  0.56169904  1
  O  O359  1  0.69123828  0.75039961  0.81253738  1
  O  O360  1  0.30511646  0.25065611  0.18796350  1
  O  O361  1  0.30480062  0.25059140  0.43809300  1
  O  O362  1  0.30838978  0.24997993  0.68677196  1
  O  O363  1  0.30576519  0.25063427  0.93833156  1
  O  O364  1  0.30686848  0.58329694  0.18850496  1
  O  O365  1  0.30707885  0.58358380  0.43671362  1
  O  O366  1  0.30543218  0.58372363  0.68839057  1
  O  O367  1  0.30621631  0.58367565  0.93868991  1
  O  O368  1  0.30578756  0.91582016  0.18815060  1
  O  O369  1  0.30560553  0.91612983  0.43750904  1
  O  O370  1  0.30566066  0.91607630  0.68828335  1
  O  O371  1  0.30651643  0.91609620  0.93882982  1
  O  O372  1  0.80769277  0.25029646  0.18892667  1
  O  O373  1  0.80951908  0.24996366  0.43700075  1
  O  O374  1  0.80569711  0.25022740  0.68847803  1
  O  O375  1  0.80640517  0.25050256  0.93843252  1
  O  O376  1  0.80942619  0.58283722  0.18768294  1
  O  O377  1  0.80943462  0.58317485  0.43668146  1
  O  O378  1  0.80609060  0.58327064  0.68851147  1
  O  O379  1  0.80674821  0.58318501  0.93876580  1
  O  O380  1  0.80878516  0.91678154  0.18757002  1
  O  O381  1  0.80952961  0.91672056  0.43760825  1
  O  O382  1  0.80925740  0.91679636  0.68776309  1
  O  O383  1  0.81033679  0.91610059  0.93711975  1
  O  O384  1  0.23232311  0.25003012  0.04007168  1
  O  O385  1  0.23107435  0.25029536  0.28889951  1
  O  O386  1  0.23231513  0.25026968  0.54024747  1
  O  O387  1  0.23532444  0.25011143  0.78850496  1
  O  O388  1  0.23302338  0.58272205  0.04034913  1
  O  O389  1  0.23207587  0.58336102  0.28878416  1
  O  O390  1  0.23265375  0.58301870  0.53772660  1
  O  O391  1  0.23239864  0.58400235  0.79026262  1
  O  O392  1  0.23360182  0.91686447  0.04073653  1
  O  O393  1  0.23162474  0.91675067  0.28932420  1
  O  O394  1  0.23332592  0.91614059  0.53988056  1
  O  O395  1  0.23248918  0.91659733  0.79024723  1
  O  O396  1  0.73369205  0.25003117  0.04053751  1
  O  O397  1  0.73546422  0.25004745  0.29109297  1
  O  O398  1  0.73309744  0.25048939  0.53666064  1
  O  O399  1  0.73134372  0.25063603  0.78938880  1
  O  O400  1  0.73299443  0.58344302  0.04003959  1
  O  O401  1  0.73622575  0.58332388  0.28912665  1
  O  O402  1  0.73386933  0.58330787  0.53695888  1
  O  O403  1  0.73150080  0.58275367  0.78926649  1
  O  O404  1  0.73566368  0.91650397  0.03753035  1
  O  O405  1  0.73458607  0.91637851  0.28854012  1
  O  O406  1  0.73417255  0.91654686  0.53791873  1
  O  O407  1  0.73508754  0.91660360  0.78843239  1
  O  O408  1  0.26567797  0.08310930  0.21254132  1
  O  O409  1  0.26698707  0.08389231  0.45979885  1
  O  O410  1  0.26841658  0.08244920  0.71045705  1
  O  O411  1  0.26832189  0.08398770  0.96079558  1
  O  O412  1  0.26353912  0.41664936  0.21177477  1
  O  O413  1  0.26689317  0.41685767  0.45924532  1
  O  O414  1  0.26706465  0.41711777  0.71218543  1
  O  O415  1  0.26588439  0.41676083  0.96216878  1
  O  O416  1  0.26431106  0.74945258  0.21204201  1
  O  O417  1  0.26669726  0.74978422  0.45938017  1
  O  O418  1  0.26639387  0.74969482  0.71197814  1
  O  O419  1  0.26556816  0.75005603  0.96048348  1
  O  O420  1  0.76896513  0.08303158  0.21100896  1
  O  O421  1  0.76639278  0.08304810  0.46014115  1
  O  O422  1  0.76493206  0.08388059  0.71115560  1
  O  O423  1  0.76566839  0.08362643  0.95892642  1
  O  O424  1  0.76837706  0.41674293  0.21139276  1
  O  O425  1  0.76780386  0.41687851  0.46042117  1
  O  O426  1  0.76541504  0.41662749  0.70876833  1
  O  O427  1  0.76525290  0.41706401  0.96155848  1
  O  O428  1  0.76843441  0.75023364  0.21079472  1
  O  O429  1  0.76840735  0.74988508  0.46025017  1
  O  O430  1  0.76527699  0.74970387  0.71142899  1
  O  O431  1  0.76492064  0.74941988  0.96057098  1
  O  O432  1  0.01578874  0.08369309  0.16583110  1
  O  O433  1  0.01721255  0.08276091  0.41253295  1
  O  O434  1  0.01660548  0.08335854  0.66555087  1
  O  O435  1  0.01706092  0.08230964  0.91552407  1
  O  O436  1  0.01738020  0.41684884  0.16584546  1
  O  O437  1  0.01678623  0.41668647  0.41318608  1
  O  O438  1  0.01619292  0.41640486  0.66233353  1
  O  O439  1  0.01881502  0.41742735  0.91424588  1
  O  O440  1  0.01475588  0.74966908  0.16636322  1
  O  O441  1  0.01620221  0.75001223  0.41313528  1
  O  O442  1  0.01526888  0.75031523  0.66236563  1
  O  O443  1  0.01831658  0.74983872  0.91478456  1
  O  O444  1  0.51465888  0.08353474  0.16430574  1
  O  O445  1  0.51436865  0.08337592  0.41262113  1
  O  O446  1  0.51398242  0.08341976  0.66227959  1
  O  O447  1  0.51660091  0.08326736  0.91318961  1
  O  O448  1  0.51731487  0.41764873  0.16282359  1
  O  O449  1  0.51501344  0.41705460  0.41608687  1
  O  O450  1  0.51387196  0.41681447  0.66286979  1
  O  O451  1  0.51463337  0.41657844  0.91287616  1
  O  O452  1  0.51928177  0.74921134  0.16505673  1
  O  O453  1  0.51576199  0.74953997  0.41598787  1
  O  O454  1  0.51449480  0.74986846  0.66258905  1
  O  O455  1  0.51760029  0.75039028  0.91200806  1
  O  O456  1  0.48344460  0.25020926  0.08493976  1
  O  O457  1  0.48365236  0.25079045  0.33706168  1
  O  O458  1  0.48247825  0.24990126  0.58625987  1
  O  O459  1  0.48362339  0.24971797  0.83400816  1
  O  O460  1  0.48536774  0.58371187  0.08393958  1
  O  O461  1  0.48288964  0.58338575  0.33795158  1
  O  O462  1  0.48444422  0.58334959  0.58675361  1
  O  O463  1  0.48502723  0.58348797  0.83575186  1
  O  O464  1  0.48554119  0.91647800  0.08740518  1
  O  O465  1  0.48542185  0.91606868  0.33671243  1
  O  O466  1  0.48373681  0.91691470  0.58396050  1
  O  O467  1  0.48386713  0.91662910  0.83383905  1
  O  O468  1  0.98567863  0.25039812  0.08641732  1
  O  O469  1  0.98418531  0.25048059  0.33775275  1
  O  O470  1  0.98451304  0.24957701  0.58409357  1
  O  O471  1  0.98551312  0.25060604  0.83625082  1
  O  O472  1  0.98241700  0.58312905  0.08762126  1
  O  O473  1  0.98363021  0.58322112  0.33846167  1
  O  O474  1  0.98560826  0.58336435  0.58645838  1
  O  O475  1  0.98471320  0.58331911  0.83273126  1
  O  O476  1  0.98219830  0.91595634  0.08813963  1
  O  O477  1  0.98232115  0.91653826  0.33558996  1
  O  O478  1  0.98304576  0.91665040  0.58706239  1
  O  O479  1  0.98311056  0.91624157  0.83459452  1
  O  O480  1  0.08909411  0.31641743  0.07877692  1
  O  O481  1  0.08806686  0.31508010  0.32810620  1
  O  O482  1  0.08841111  0.31480094  0.57604408  1
  O  O483  1  0.08905459  0.31606733  0.82853172  1
  O  O484  1  0.08627787  0.64739643  0.07831767  1
  O  O485  1  0.08710581  0.64856370  0.32805696  1
  O  O486  1  0.08930042  0.64838944  0.57667127  1
  O  O487  1  0.08860170  0.64860727  0.82707157  1
  O  O488  1  0.08539584  0.98168859  0.07763448  1
  O  O489  1  0.08661864  0.98124453  0.32701868  1
  O  O490  1  0.08647770  0.98197881  0.57723596  1
  O  O491  1  0.08761167  0.98028342  0.82644322  1
  O  O492  1  0.58689394  0.31610901  0.07813371  1
  O  O493  1  0.58751703  0.31542268  0.32789954  1
  O  O494  1  0.58623417  0.31511130  0.57614288  1
  O  O495  1  0.58770061  0.31405699  0.82607587  1
  O  O496  1  0.58958897  0.64842954  0.07800671  1
  O  O497  1  0.58682316  0.64816607  0.32789774  1
  O  O498  1  0.58836780  0.64820527  0.57674501  1
  O  O499  1  0.58864305  0.64913158  0.82736466  1
  O  O500  1  0.58905260  0.98109694  0.07838635  1
  O  O501  1  0.58902906  0.98143489  0.32686298  1
  O  O502  1  0.58780901  0.98173263  0.57589000  1
  O  O503  1  0.58721351  0.98242035  0.82727932  1
  O  O504  1  0.41086233  0.01841684  0.17327342  1
  O  O505  1  0.41072539  0.01818504  0.42235439  1
  O  O506  1  0.41011789  0.01930617  0.67228784  1
  O  O507  1  0.41295044  0.01804932  0.92323740  1
  O  O508  1  0.41380705  0.35212796  0.17291400  1
  O  O509  1  0.41050977  0.35313789  0.42314590  1
  O  O510  1  0.41059938  0.35067829  0.67179576  1
  O  O511  1  0.41069667  0.35212265  0.92282258  1
  O  O512  1  0.41501868  0.68470446  0.17302550  1
  O  O513  1  0.41190043  0.68376422  0.42303894  1
  O  O514  1  0.41083410  0.68479697  0.67298767  1
  O  O515  1  0.41431978  0.68508814  0.92299989  1
  O  O516  1  0.91209861  0.01775453  0.17301661  1
  O  O517  1  0.91323687  0.01825498  0.42172851  1
  O  O518  1  0.91285031  0.01772521  0.67203706  1
  O  O519  1  0.91303453  0.01755720  0.92149524  1
  O  O520  1  0.91346292  0.35214730  0.17389020  1
  O  O521  1  0.91291883  0.35152629  0.42289978  1
  O  O522  1  0.91277168  0.35124862  0.67215101  1
  O  O523  1  0.91518987  0.35190069  0.92292787  1
  O  O524  1  0.91101524  0.68441695  0.17309571  1
  O  O525  1  0.91239430  0.68498364  0.42266754  1
  O  O526  1  0.91191067  0.68538862  0.67217912  1
  O  O527  1  0.91435960  0.68512951  0.92228750  1
  O  O528  1  0.16220024  0.01776325  0.20307377  1
  O  O529  1  0.16266547  0.01938327  0.45138383  1
  O  O530  1  0.16468157  0.01677732  0.70259415  1
  O  O531  1  0.16447724  0.01904177  0.95231955  1
  O  O532  1  0.15945033  0.35232124  0.20337897  1
  O  O533  1  0.16285651  0.35144459  0.45213815  1
  O  O534  1  0.16326904  0.35280649  0.70281060  1
  O  O535  1  0.16268002  0.35054430  0.95305867  1
  O  O536  1  0.16058318  0.68462233  0.20384744  1
  O  O537  1  0.16274223  0.68406332  0.45182929  1
  O  O538  1  0.16250341  0.68534562  0.70314901  1
  O  O539  1  0.16154053  0.68502091  0.95212005  1
  O  O540  1  0.66529118  0.01743682  0.20259866  1
  O  O541  1  0.66269277  0.01801294  0.45271958  1
  O  O542  1  0.66124793  0.01938120  0.70226081  1
  O  O543  1  0.66199031  0.01811527  0.95148934  1
  O  O544  1  0.66422911  0.35168673  0.20227070  1
  O  O545  1  0.66386235  0.35179557  0.45205158  1
  O  O546  1  0.66159718  0.35130438  0.70222558  1
  O  O547  1  0.66125790  0.35273677  0.95309640  1
  O  O548  1  0.66421299  0.68574695  0.20222398  1
  O  O549  1  0.66460019  0.68480586  0.45212056  1
  O  O550  1  0.66180456  0.68404615  0.70315582  1
  O  O551  1  0.66120055  0.68376563  0.95342385  1
  O  O552  1  0.33560308  0.31601585  0.04793599  1
  O  O553  1  0.33505905  0.31482795  0.29759530  1
  O  O554  1  0.33632640  0.31561108  0.54724418  1
  O  O555  1  0.33881722  0.31502199  0.79640199  1
  O  O556  1  0.33679611  0.64769340  0.04823423  1
  O  O557  1  0.33633578  0.64812805  0.29830228  1
  O  O558  1  0.33600902  0.64862537  0.54676365  1
  O  O559  1  0.33631523  0.64895846  0.79770280  1
  O  O560  1  0.33743725  0.98230774  0.04737515  1
  O  O561  1  0.33567392  0.98176880  0.29728200  1
  O  O562  1  0.33692967  0.98155089  0.54634830  1
  O  O563  1  0.33676846  0.98109781  0.79733582  1
  O  O564  1  0.83744502  0.31538205  0.04763369  1
  O  O565  1  0.83945354  0.31525575  0.29804196  1
  O  O566  1  0.83662728  0.31598167  0.54689043  1
  O  O567  1  0.83533516  0.31553012  0.79800307  1
  O  O568  1  0.83714322  0.64822392  0.04809315  1
  O  O569  1  0.84013887  0.64816399  0.29727716  1
  O  O570  1  0.83744170  0.64833024  0.54678135  1
  O  O571  1  0.83511745  0.64801366  0.79838137  1
  O  O572  1  0.83943151  0.98128911  0.04718757  1
  O  O573  1  0.83830850  0.98167882  0.29778439  1
  O  O574  1  0.83829668  0.98075720  0.54798338  1
  O  O575  1  0.83888358  0.98162715  0.79767499  1
  O  O576  1  0.41058744  0.14842130  0.17329200  1
  O  O577  1  0.41054290  0.14825085  0.42246046  1
  O  O578  1  0.41074072  0.14944646  0.67158730  1
  O  O579  1  0.41273078  0.14800370  0.92304867  1
  O  O580  1  0.41337590  0.48212769  0.17229256  1
  O  O581  1  0.41136487  0.48314393  0.42296810  1
  O  O582  1  0.40991311  0.48092074  0.67274975  1
  O  O583  1  0.41117572  0.48206913  0.92309146  1
  O  O584  1  0.41549275  0.81463040  0.17367495  1
  O  O585  1  0.41140666  0.81381071  0.42313298  1
  O  O586  1  0.41077768  0.81484589  0.67276301  1
  O  O587  1  0.41403340  0.81514345  0.92278297  1
  O  O588  1  0.91159902  0.14783314  0.17341690  1
  O  O589  1  0.91392170  0.14849274  0.42226449  1
  O  O590  1  0.91275849  0.14797242  0.67272325  1
  O  O591  1  0.91364644  0.14795377  0.92270628  1
  O  O592  1  0.91332804  0.48211329  0.17348782  1
  O  O593  1  0.91283131  0.48159373  0.42291030  1
  O  O594  1  0.91275928  0.48149941  0.67223929  1
  O  O595  1  0.91471529  0.48198284  0.92239294  1
  O  O596  1  0.91073369  0.81448776  0.17285390  1
  O  O597  1  0.91237138  0.81518176  0.42238916  1
  O  O598  1  0.91167422  0.81559934  0.67116108  1
  O  O599  1  0.91443969  0.81523296  0.92179226  1
  O  O600  1  0.08973895  0.18627946  0.07737951  1
  O  O601  1  0.08762253  0.18482506  0.32772156  1
  O  O602  1  0.08871402  0.18488286  0.57651624  1
  O  O603  1  0.08912055  0.18570460  0.82785712  1
  O  O604  1  0.08588517  0.51745303  0.07878362  1
  O  O605  1  0.08744895  0.51839799  0.32813908  1
  O  O606  1  0.08938401  0.51841527  0.57664656  1
  O  O607  1  0.08890646  0.51841019  0.82698149  1
  O  O608  1  0.08606745  0.85162983  0.07823574  1
  O  O609  1  0.08616659  0.85116797  0.32705610  1
  O  O610  1  0.08662743  0.85190045  0.57699749  1
  O  O611  1  0.08676163  0.85028747  0.82692055  1
  O  O612  1  0.58735990  0.18574847  0.07796011  1
  O  O613  1  0.58704768  0.18531130  0.32737646  1
  O  O614  1  0.58652723  0.18522058  0.57626618  1
  O  O615  1  0.58723911  0.18384323  0.82670921  1
  O  O616  1  0.58909600  0.51826317  0.07736311  1
  O  O617  1  0.58647724  0.51824945  0.32777567  1
  O  O618  1  0.58817560  0.51830336  0.57663370  1
  O  O619  1  0.58878853  0.51893508  0.82671179  1
  O  O620  1  0.58895148  0.85076801  0.07904552  1
  O  O621  1  0.58953620  0.85144697  0.32743673  1
  O  O622  1  0.58774024  0.85178498  0.57574189  1
  O  O623  1  0.58794836  0.85211797  0.82739597  1
  O  O624  1  0.33653503  0.18566815  0.04744204  1
  O  O625  1  0.33482903  0.18475578  0.29727972  1
  O  O626  1  0.33662651  0.18546619  0.54708920  1
  O  O627  1  0.33864720  0.18456215  0.79626136  1
  O  O628  1  0.33673338  0.51729506  0.04752843  1
  O  O629  1  0.33602730  0.51819545  0.29825230  1
  O  O630  1  0.33645669  0.51842180  0.54651894  1
  O  O631  1  0.33618795  0.51877617  0.79768018  1
  O  O632  1  0.33740564  0.85188322  0.04836285  1
  O  O633  1  0.33554489  0.85168703  0.29772701  1
  O  O634  1  0.33709468  0.85115344  0.54657560  1
  O  O635  1  0.33602331  0.85087169  0.79770806  1
  O  O636  1  0.83767122  0.18531975  0.04737505  1
  O  O637  1  0.83953606  0.18504332  0.29804827  1
  O  O638  1  0.83659139  0.18570619  0.54751564  1
  O  O639  1  0.83525945  0.18550412  0.79813842  1
  O  O640  1  0.83711505  0.51833194  0.04834939  1
  O  O641  1  0.84001647  0.51799180  0.29746892  1
  O  O642  1  0.83738913  0.51802483  0.54677821  1
  O  O643  1  0.83537282  0.51794519  0.79802765  1
  O  O644  1  0.83916810  0.85124319  0.04724114  1
  O  O645  1  0.83848290  0.85156636  0.29744261  1
  O  O646  1  0.83773874  0.85061375  0.54733378  1
  O  O647  1  0.83886078  0.85164325  0.79775169  1
  O  O648  1  0.16214674  0.14815090  0.20332872  1
  O  O649  1  0.16298552  0.14935059  0.45219721  1
  O  O650  1  0.16455331  0.14697011  0.70219579  1
  O  O651  1  0.16453494  0.14920700  0.95262148  1
  O  O652  1  0.16023174  0.48260583  0.20304083  1
  O  O653  1  0.16247089  0.48138196  0.45194881  1
  O  O654  1  0.16378630  0.48296479  0.70309943  1
  O  O655  1  0.16162315  0.48064027  0.95229965  1
  O  O656  1  0.16096111  0.81514921  0.20365414  1
  O  O657  1  0.16211374  0.81394839  0.45136289  1
  O  O658  1  0.16312730  0.81561823  0.70295338  1
  O  O659  1  0.16152456  0.81500692  0.95224322  1
  O  O660  1  0.66489808  0.14758106  0.20257011  1
  O  O661  1  0.66266266  0.14844391  0.45240216  1
  O  O662  1  0.66142285  0.14964172  0.70305357  1
  O  O663  1  0.66119231  0.14801196  0.95188418  1
  O  O664  1  0.66417389  0.48169691  0.20236579  1
  O  O665  1  0.66414139  0.48212437  0.45192494  1
  O  O666  1  0.66154388  0.48159190  0.70235447  1
  O  O667  1  0.66184726  0.48279204  0.95372987  1
  O  O668  1  0.66457387  0.81580140  0.20237624  1
  O  O669  1  0.66468709  0.81506910  0.45235983  1
  O  O670  1  0.66163598  0.81426490  0.70227870  1
  O  O671  1  0.66095304  0.81386230  0.95219112  1
