# generated using pymatgen
data_Na2MnFe(PO4)2
_symmetry_space_group_name_H-M   'P 1'
_cell_length_a   21.07907987
_cell_length_b   18.93050318
_cell_length_c   20.03884622
_cell_angle_alpha   89.99974999
_cell_angle_beta   90.00116358
_cell_angle_gamma   90.00012055
_symmetry_Int_Tables_number   1
_chemical_formula_structural   Na2MnFe(PO4)2
_chemical_formula_sum   'Na96 Mn48 Fe48 P96 O384'
_cell_volume   7996.25287100
_cell_formula_units_Z   48
loop_
 _symmetry_equiv_pos_site_id
 _symmetry_equiv_pos_as_xyz
  1  'x, y, z'
loop_
 _atom_site_type_symbol
 _atom_site_label
 _atom_site_symmetry_multiplicity
 _atom_site_fract_x
 _atom_site_fract_y
 _atom_site_fract_z
 _atom_site_occupancy
  Na  Na0  1  0.00102512  0.00027999  0.00079302  1
  Na  Na1  1  0.00078384  0.00042596  0.24919736  1
  Na  Na2  1  -0.00194329  -0.00064497  0.49950097  1
  Na  Na3  1  -0.00066428  0.00026499  0.75020977  1
  Na  Na4  1  0.00026949  0.33268385  0.00042463  1
  Na  Na5  1  0.00224659  0.33362826  0.25098408  1
  Na  Na6  1  0.00175498  0.33356153  0.49944147  1
  Na  Na7  1  0.00079145  0.33304546  0.74916973  1
  Na  Na8  1  -0.00156848  0.66546955  0.00069061  1
  Na  Na9  1  0.00082529  0.66660825  0.25126239  1
  Na  Na10  1  0.00194449  0.66653281  0.49958784  1
  Na  Na11  1  0.00104911  0.66617147  0.74916976  1
  Na  Na12  1  0.50100645  0.00013291  0.00002619  1
  Na  Na13  1  0.50028133  -0.00008766  0.25002365  1
  Na  Na14  1  0.49842279  -0.00033344  0.49961191  1
  Na  Na15  1  0.49944151  -0.00017191  0.75071244  1
  Na  Na16  1  0.50117503  0.33352318  -0.00114360  1
  Na  Na17  1  0.49988944  0.33317615  0.24944105  1
  Na  Na18  1  0.49781372  0.33282251  0.50117793  1
  Na  Na19  1  0.49905134  0.33334049  0.75010843  1
  Na  Na20  1  0.49788887  0.66586337  0.00129067  1
  Na  Na21  1  0.49885302  0.66632840  0.24937417  1
  Na  Na22  1  0.49652046  0.66525251  0.49943582  1
  Na  Na23  1  0.49911978  0.66751147  0.74922312  1
  Na  Na24  1  0.24801087  -0.00040805  0.12482539  1
  Na  Na25  1  0.25152425  0.00044443  0.37553899  1
  Na  Na26  1  0.25334960  0.00091722  0.62526126  1
  Na  Na27  1  0.24813439  -0.00044644  0.87425380  1
  Na  Na28  1  0.24829693  0.33254914  0.12599595  1
  Na  Na29  1  0.24962876  0.33263583  0.37442668  1
  Na  Na30  1  0.25235623  0.33404731  0.62531027  1
  Na  Na31  1  0.24950841  0.33295345  0.87438874  1
  Na  Na32  1  0.25030011  0.66690609  0.12530746  1
  Na  Na33  1  0.25013494  0.66644476  0.37430041  1
  Na  Na34  1  0.24954772  0.66531660  0.62434493  1
  Na  Na35  1  0.25105793  0.66682036  0.87576148  1
  Na  Na36  1  0.74855900  -0.00078985  0.12573872  1
  Na  Na37  1  0.74922836  -0.00035024  0.37587884  1
  Na  Na38  1  0.74939164  0.00012978  0.62521138  1
  Na  Na39  1  0.75026412  0.00024647  0.87391009  1
  Na  Na40  1  0.74966963  0.33327874  0.12563940  1
  Na  Na41  1  0.74808877  0.33288664  0.37415489  1
  Na  Na42  1  0.75044241  0.33380995  0.62446048  1
  Na  Na43  1  0.74886426  0.33226259  0.87538771  1
  Na  Na44  1  0.75170107  0.66660541  0.12444348  1
  Na  Na45  1  0.75104855  0.66636275  0.37546761  1
  Na  Na46  1  0.75077371  0.66624239  0.62491138  1
  Na  Na47  1  0.75067597  0.66624900  0.87531132  1
  Na  Na48  1  -0.00117079  0.16742407  0.00089318  1
  Na  Na49  1  0.00062454  0.16699925  0.25037665  1
  Na  Na50  1  0.00045308  0.16665697  0.49933754  1
  Na  Na51  1  -0.00043880  0.16677224  0.74942506  1
  Na  Na52  1  -0.00010886  0.50038815  0.00070723  1
  Na  Na53  1  0.00009918  0.50063394  0.25087901  1
  Na  Na54  1  0.00085520  0.50036031  0.50070103  1
  Na  Na55  1  0.00143139  0.49958307  0.74824164  1
  Na  Na56  1  0.00177492  0.83261803  0.00044490  1
  Na  Na57  1  0.00208463  0.83247854  0.24993515  1
  Na  Na58  1  0.00106919  0.83272820  0.49854381  1
  Na  Na59  1  -0.00050248  0.83442137  0.75080881  1
  Na  Na60  1  0.50048689  0.16734747  -0.00072590  1
  Na  Na61  1  0.49936590  0.16759422  0.24978133  1
  Na  Na62  1  0.49753221  0.16769058  0.50065955  1
  Na  Na63  1  0.50023130  0.16664584  0.75055200  1
  Na  Na64  1  0.49804028  0.50080826  0.00009874  1
  Na  Na65  1  0.49999221  0.49984055  0.24944400  1
  Na  Na66  1  0.49753952  0.50026901  0.50016131  1
  Na  Na67  1  0.49649624  0.50121757  0.74930560  1
  Na  Na68  1  0.50165587  0.83291009  0.00090520  1
  Na  Na69  1  0.49933788  0.83375278  0.24969638  1
  Na  Na70  1  0.49825908  0.83388821  0.49963671  1
  Na  Na71  1  0.49940531  0.83357449  0.74980284  1
  Na  Na72  1  0.24919233  0.16717173  0.12528091  1
  Na  Na73  1  0.25117258  0.16723205  0.37486267  1
  Na  Na74  1  0.25151595  0.16667844  0.62501254  1
  Na  Na75  1  0.24930779  0.16719769  0.87441014  1
  Na  Na76  1  0.25060854  0.49952019  0.12488462  1
  Na  Na77  1  0.24934327  0.50099669  0.37448368  1
  Na  Na78  1  0.25191475  0.49958379  0.62501162  1
  Na  Na79  1  0.24949052  0.50047143  0.87546915  1
  Na  Na80  1  0.24701682  0.83398694  0.12591963  1
  Na  Na81  1  0.24943881  0.83360506  0.37505057  1
  Na  Na82  1  0.25330274  0.83236550  0.62457704  1
  Na  Na83  1  0.24994620  0.83353510  0.87466414  1
  Na  Na84  1  0.75098362  0.16678824  0.12525732  1
  Na  Na85  1  0.74988492  0.16636666  0.37558027  1
  Na  Na86  1  0.74918111  0.16744058  0.62454672  1
  Na  Na87  1  0.75039676  0.16717546  0.87523239  1
  Na  Na88  1  0.75063417  0.50063814  0.12591057  1
  Na  Na89  1  0.75037156  0.50020992  0.37430270  1
  Na  Na90  1  0.75060244  0.49991548  0.62431351  1
  Na  Na91  1  0.75198089  0.49937892  0.87564559  1
  Na  Na92  1  0.74849504  0.83315372  0.12474606  1
  Na  Na93  1  0.74858660  0.83358818  0.37552012  1
  Na  Na94  1  0.74994438  0.83304914  0.62607943  1
  Na  Na95  1  0.74771383  0.83389606  0.87372252  1
  Mn  Mn96  1  0.35822814  0.74973232  0.75297824  1
  Mn  Mn97  1  0.10757111  0.08309979  0.12250109  1
  Mn  Mn98  1  0.85831130  0.75040318  0.50227507  1
  Mn  Mn99  1  0.39184451  0.91718177  0.12696784  1
  Mn  Mn100  1  0.64164947  0.58223557  0.74811972  1
  Mn  Mn101  1  0.35774091  0.08295408  0.25172636  1
  Mn  Mn102  1  0.89264579  0.25087040  0.37705910  1
  Mn  Mn103  1  0.64188627  0.91717385  0.74698791  1
  Mn  Mn104  1  0.14251560  0.91641782  0.74682849  1
  Mn  Mn105  1  0.85758888  0.41694555  0.25306639  1
  Mn  Mn106  1  0.35751534  0.41655845  0.25251594  1
  Mn  Mn107  1  0.89215025  0.91608232  0.12737035  1
  Mn  Mn108  1  0.60775158  0.41817989  0.87246071  1
  Mn  Mn109  1  0.14316922  0.91703705  0.49794756  1
  Mn  Mn110  1  0.60686798  0.08403535  0.37326279  1
  Mn  Mn111  1  0.39232870  0.91599696  0.87824315  1
  Mn  Mn112  1  0.85708699  0.08242364  0.25260651  1
  Mn  Mn113  1  0.60674704  0.75017762  0.62218046  1
  Mn  Mn114  1  0.64151678  0.58351294  0.49757315  1
  Mn  Mn115  1  0.89246815  0.24957309  0.62638700  1
  Mn  Mn116  1  0.60788077  0.74948147  0.12310050  1
  Mn  Mn117  1  0.35701422  0.41623753  0.00220639  1
  Mn  Mn118  1  0.60822408  0.08396134  0.12262207  1
  Mn  Mn119  1  0.10864431  0.75098834  0.62267274  1
  Mn  Mn120  1  0.14257293  0.25018831  0.74770458  1
  Mn  Mn121  1  0.14225874  0.58322364  0.99765209  1
  Mn  Mn122  1  0.85861271  0.41594622  0.00225412  1
  Mn  Mn123  1  0.85781281  0.75086116  0.00202031  1
  Mn  Mn124  1  0.35668632  0.75046931  0.25212621  1
  Mn  Mn125  1  0.10928711  0.41625625  0.62202519  1
  Mn  Mn126  1  0.35688295  0.08321280  0.00224683  1
  Mn  Mn127  1  0.39247307  0.25033068  0.87788778  1
  Mn  Mn128  1  0.89203887  0.91610952  0.37699460  1
  Mn  Mn129  1  0.60648208  0.41674838  0.62259740  1
  Mn  Mn130  1  0.60850681  0.08300562  0.87274458  1
  Mn  Mn131  1  0.10851792  0.08313745  0.37334837  1
  Mn  Mn132  1  0.64225866  0.58343596  0.99735497  1
  Mn  Mn133  1  0.85748884  0.08402305  0.75199674  1
  Mn  Mn134  1  0.89316284  0.58375205  0.62688737  1
  Mn  Mn135  1  0.89246925  0.91665756  0.87809852  1
  Mn  Mn136  1  0.85848349  0.41626996  0.75225009  1
  Mn  Mn137  1  0.10751306  0.41705851  0.12290581  1
  Mn  Mn138  1  0.64128082  0.25021196  0.49775308  1
  Mn  Mn139  1  0.10835618  0.08271290  0.62239233  1
  Mn  Mn140  1  0.60699547  0.74891250  0.37279567  1
  Mn  Mn141  1  0.10830096  0.74938907  0.87255997  1
  Mn  Mn142  1  0.60752795  0.41688353  0.12272659  1
  Mn  Mn143  1  0.85796971  0.74949647  0.75235153  1
  Fe  Fe144  1  0.64177651  0.91598883  0.24910381  1
  Fe  Fe145  1  0.89275187  0.25039116  0.87698281  1
  Fe  Fe146  1  0.39237057  0.25034677  0.12606476  1
  Fe  Fe147  1  0.39310082  0.91707803  0.62664971  1
  Fe  Fe148  1  0.35717505  0.75076040  0.00204364  1
  Fe  Fe149  1  0.39243619  0.24958250  0.62739845  1
  Fe  Fe150  1  0.39204188  0.91659410  0.37690078  1
  Fe  Fe151  1  0.89352749  0.58267999  0.87595949  1
  Fe  Fe152  1  0.35822494  0.08360389  0.50221563  1
  Fe  Fe153  1  0.35698758  0.41654138  0.75229073  1
  Fe  Fe154  1  0.60614489  0.08338158  0.62331967  1
  Fe  Fe155  1  0.39198863  0.58304212  0.37607581  1
  Fe  Fe156  1  0.64265205  0.25046686  0.74827429  1
  Fe  Fe157  1  0.89376043  0.58302340  0.37675886  1
  Fe  Fe158  1  0.64277718  0.58365819  0.24874392  1
  Fe  Fe159  1  0.14338251  0.58323106  0.74893978  1
  Fe  Fe160  1  0.10721081  0.41612874  0.87329417  1
  Fe  Fe161  1  0.10687016  0.74947296  0.12320061  1
  Fe  Fe162  1  0.35773313  0.08365682  0.75240042  1
  Fe  Fe163  1  0.85685127  0.08343250  0.50191435  1
  Fe  Fe164  1  0.64162428  0.25013906  0.24815530  1
  Fe  Fe165  1  0.35739259  0.41676428  0.50088125  1
  Fe  Fe166  1  0.14439978  0.25016032  0.49843780  1
  Fe  Fe167  1  0.10841118  0.41703646  0.37409292  1
  Fe  Fe168  1  0.60663099  0.41696994  0.37421353  1
  Fe  Fe169  1  0.39218870  0.25039996  0.37653136  1
  Fe  Fe170  1  0.60669783  0.74911782  0.87379138  1
  Fe  Fe171  1  0.64268096  0.91703342  0.99838223  1
  Fe  Fe172  1  0.89204399  0.91656745  0.62582300  1
  Fe  Fe173  1  0.14312788  0.24964013  0.24830720  1
  Fe  Fe174  1  0.85756025  0.08310574  0.00128952  1
  Fe  Fe175  1  0.14165893  0.24941053  0.99815519  1
  Fe  Fe176  1  0.14239828  0.91687074  0.24887947  1
  Fe  Fe177  1  0.89279803  0.58321949  0.12749857  1
  Fe  Fe178  1  0.39133307  0.58361424  0.62712022  1
  Fe  Fe179  1  0.14244247  0.91709526  0.99795072  1
  Fe  Fe180  1  0.85754910  0.75011366  0.25153100  1
  Fe  Fe181  1  0.14257380  0.58339756  0.24811289  1
  Fe  Fe182  1  0.85755177  0.41617780  0.50074080  1
  Fe  Fe183  1  0.10679547  0.08412915  0.87328692  1
  Fe  Fe184  1  0.14395191  0.58284445  0.49791552  1
  Fe  Fe185  1  0.64211732  0.91666406  0.49867702  1
  Fe  Fe186  1  0.89273270  0.25051902  0.12743793  1
  Fe  Fe187  1  0.64355363  0.24957409  0.99854998  1
  Fe  Fe188  1  0.10814988  0.74959106  0.37308595  1
  Fe  Fe189  1  0.35695998  0.74998123  0.50092616  1
  Fe  Fe190  1  0.39195329  0.58389328  0.87695058  1
  Fe  Fe191  1  0.39225000  0.58284443  0.12708978  1
  P  P192  1  0.05394970  0.24995742  0.11082778  1
  P  P193  1  0.05616661  0.25075682  0.36098698  1
  P  P194  1  0.05480918  0.24952316  0.60861331  1
  P  P195  1  0.05320038  0.24977624  0.86111056  1
  P  P196  1  0.05334106  0.58410166  0.11165384  1
  P  P197  1  0.05541056  0.58274807  0.36123389  1
  P  P198  1  0.05646110  0.58350980  0.61003474  1
  P  P199  1  0.05324304  0.58205118  0.85936666  1
  P  P200  1  0.05515635  0.91561584  0.11079471  1
  P  P201  1  0.05421139  0.91629062  0.35946728  1
  P  P202  1  0.05192353  0.91686187  0.60924198  1
  P  P203  1  0.05493111  0.91784154  0.86112430  1
  P  P204  1  0.55381002  0.25033075  0.10996211  1
  P  P205  1  0.55198537  0.25107284  0.35997019  1
  P  P206  1  0.55260163  0.24937243  0.61163579  1
  P  P207  1  0.55561231  0.25030092  0.86036310  1
  P  P208  1  0.55315205  0.58326293  0.11108744  1
  P  P209  1  0.55188148  0.58243206  0.35948260  1
  P  P210  1  0.55086938  0.58321479  0.60981189  1
  P  P211  1  0.55117593  0.58447781  0.85994985  1
  P  P212  1  0.55518493  0.91672278  0.11058768  1
  P  P213  1  0.55304611  0.91650429  0.36093804  1
  P  P214  1  0.55235196  0.91778527  0.60942613  1
  P  P215  1  0.55477885  0.91549123  0.86126565  1
  P  P216  1  0.44670984  0.08441652  0.13962903  1
  P  P217  1  0.44549727  0.08366046  0.39026591  1
  P  P218  1  0.44556855  0.08321237  0.63975871  1
  P  P219  1  0.44598946  0.08332195  0.88963150  1
  P  P220  1  0.44586325  0.41616214  0.13957540  1
  P  P221  1  0.44678578  0.41661018  0.39017355  1
  P  P222  1  0.44345246  0.41665329  0.63931562  1
  P  P223  1  0.44521928  0.41767385  0.88898208  1
  P  P224  1  0.44491928  0.74983424  0.13913468  1
  P  P225  1  0.44527198  0.74983945  0.38985239  1
  P  P226  1  0.44446835  0.75024602  0.63828318  1
  P  P227  1  0.44688944  0.74949624  0.89131594  1
  P  P228  1  0.94502714  0.08406966  0.13905248  1
  P  P229  1  0.94600380  0.08342116  0.39041084  1
  P  P230  1  0.94545218  0.08256444  0.63864602  1
  P  P231  1  0.94701656  0.08428183  0.89068508  1
  P  P232  1  0.94648700  0.41632716  0.14065341  1
  P  P233  1  0.94802248  0.41756629  0.39051906  1
  P  P234  1  0.94638912  0.41624825  0.63838965  1
  P  P235  1  0.94835862  0.41663474  0.88967659  1
  P  P236  1  0.94707728  0.74945895  0.14093681  1
  P  P237  1  0.94713836  0.74896222  0.38846877  1
  P  P238  1  0.94717849  0.75097659  0.63991622  1
  P  P239  1  0.94731778  0.74886314  0.89013854  1
  P  P240  1  0.19640815  0.08334968  0.23524580  1
  P  P241  1  0.19909666  0.08405522  0.48541494  1
  P  P242  1  0.19701362  0.08368045  0.73571114  1
  P  P243  1  0.19547177  0.08373518  0.98415972  1
  P  P244  1  0.19520272  0.41693084  0.23647866  1
  P  P245  1  0.19828781  0.41652254  0.48453932  1
  P  P246  1  0.19671285  0.41734814  0.73626339  1
  P  P247  1  0.19544377  0.41564887  0.98444067  1
  P  P248  1  0.19408840  0.74975465  0.23582555  1
  P  P249  1  0.19757747  0.74941929  0.48445868  1
  P  P250  1  0.19737455  0.74904145  0.73482562  1
  P  P251  1  0.19665333  0.75039588  0.98629920  1
  P  P252  1  0.69571975  0.08335959  0.23567109  1
  P  P253  1  0.69581892  0.08261143  0.48663220  1
  P  P254  1  0.69558626  0.08467363  0.73389704  1
  P  P255  1  0.69808027  0.08353178  0.98519216  1
  P  P256  1  0.69461942  0.41730836  0.23669135  1
  P  P257  1  0.69681292  0.41691624  0.48404064  1
  P  P258  1  0.69669566  0.41606505  0.73454944  1
  P  P259  1  0.69691754  0.41608738  0.98531936  1
  P  P260  1  0.69747335  0.74903068  0.23550379  1
  P  P261  1  0.69642546  0.75066264  0.48517884  1
  P  P262  1  0.69504791  0.74895773  0.73576143  1
  P  P263  1  0.69600704  0.75039154  0.98423633  1
  P  P264  1  0.30174390  0.24999759  0.01553931  1
  P  P265  1  0.30398559  0.24994150  0.26425100  1
  P  P266  1  0.30492690  0.25046977  0.51415125  1
  P  P267  1  0.30515143  0.24990767  0.76393103  1
  P  P268  1  0.30495606  0.58415083  0.01478625  1
  P  P269  1  0.30352542  0.58333875  0.26419522  1
  P  P270  1  0.30434540  0.58321986  0.51347893  1
  P  P271  1  0.30392262  0.58256799  0.76489366  1
  P  P272  1  0.30151310  0.91617987  0.01509198  1
  P  P273  1  0.30231091  0.91673195  0.26545156  1
  P  P274  1  0.30563800  0.91660161  0.51426745  1
  P  P275  1  0.30510362  0.91758309  0.76404943  1
  P  P276  1  0.80464679  0.24932375  0.01474254  1
  P  P277  1  0.80267866  0.25007220  0.26421013  1
  P  P278  1  0.80316181  0.25050183  0.51429213  1
  P  P279  1  0.80293472  0.25016761  0.76547707  1
  P  P280  1  0.80564387  0.58303046  0.01468084  1
  P  P281  1  0.80463169  0.58440104  0.26476171  1
  P  P282  1  0.80488352  0.58221001  0.51346074  1
  P  P283  1  0.80408925  0.58280624  0.76573930  1
  P  P284  1  0.80203305  0.91740838  0.01491502  1
  P  P285  1  0.80163106  0.91528058  0.26509003  1
  P  P286  1  0.80241403  0.91716659  0.51562637  1
  P  P287  1  0.80452748  0.91680743  0.76395011  1
  O  O288  1  0.05907552  0.24967399  0.18751949  1
  O  O289  1  0.06078686  0.24984184  0.43772271  1
  O  O290  1  0.05785605  0.24963243  0.68547658  1
  O  O291  1  0.05741315  0.24969991  0.93782027  1
  O  O292  1  0.05811860  0.58342970  0.18830237  1
  O  O293  1  0.06024203  0.58285964  0.43797264  1
  O  O294  1  0.06069073  0.58311305  0.68679750  1
  O  O295  1  0.05640744  0.58297985  0.93618369  1
  O  O296  1  0.05909952  0.91690616  0.18755581  1
  O  O297  1  0.05741434  0.91697357  0.43626082  1
  O  O298  1  0.05596246  0.91720594  0.68599718  1
  O  O299  1  0.05909895  0.91683287  0.93794446  1
  O  O300  1  0.55847778  0.25008615  0.18674613  1
  O  O301  1  0.55543992  0.25033552  0.43675585  1
  O  O302  1  0.55763712  0.25019311  0.68821350  1
  O  O303  1  0.56031930  0.24995589  0.93715973  1
  O  O304  1  0.55849423  0.58356487  0.18769768  1
  O  O305  1  0.55544803  0.58321930  0.43620853  1
  O  O306  1  0.55523606  0.58329894  0.68644651  1
  O  O307  1  0.55522741  0.58339972  0.93666146  1
  O  O308  1  0.55932582  0.91645736  0.18745246  1
  O  O309  1  0.55801170  0.91647511  0.43758959  1
  O  O310  1  0.55597282  0.91702306  0.68620531  1
  O  O311  1  0.55912874  0.91689744  0.93806105  1
  O  O312  1  0.44363478  0.08355266  0.06284286  1
  O  O313  1  0.44307540  0.08350770  0.31344738  1
  O  O314  1  0.44133080  0.08366875  0.56294644  1
  O  O315  1  0.44168686  0.08338040  0.81284906  1
  O  O316  1  0.44304860  0.41603179  0.06280703  1
  O  O317  1  0.44354239  0.41651320  0.31342939  1
  O  O318  1  0.43979679  0.41655537  0.56246046  1
  O  O319  1  0.44111520  0.41679494  0.81220553  1
  O  O320  1  0.44089479  0.75085211  0.06239267  1
  O  O321  1  0.44262049  0.75012645  0.31302442  1
  O  O322  1  0.44056204  0.74973335  0.56156025  1
  O  O323  1  0.44350975  0.75055574  0.81448327  1
  O  O324  1  0.94095899  0.08310683  0.06230061  1
  O  O325  1  0.94283413  0.08347307  0.31355447  1
  O  O326  1  0.94084829  0.08339615  0.56188517  1
  O  O327  1  0.94338604  0.08372098  0.81391218  1
  O  O328  1  0.94391683  0.41613517  0.06384811  1
  O  O329  1  0.94393641  0.41677248  0.31379908  1
  O  O330  1  0.94174024  0.41614661  0.56170439  1
  O  O331  1  0.94533018  0.41630431  0.81293164  1
  O  O332  1  0.94334395  0.75034054  0.06419811  1
  O  O333  1  0.94200892  0.74993655  0.31187319  1
  O  O334  1  0.94438447  0.75008532  0.56304798  1
  O  O335  1  0.94422988  0.74989181  0.81337665  1
  O  O336  1  0.19288935  0.08390831  0.06098588  1
  O  O337  1  0.19429946  0.08347076  0.31204160  1
  O  O338  1  0.19526969  0.08324815  0.56208812  1
  O  O339  1  0.19141819  0.08387402  0.81230892  1
  O  O340  1  0.19261859  0.41652153  0.06130107  1
  O  O341  1  0.19193375  0.41722947  0.31323387  1
  O  O342  1  0.19544376  0.41657458  0.56131098  1
  O  O343  1  0.19156442  0.41660834  0.81290470  1
  O  O344  1  0.19176301  0.74940712  0.06296871  1
  O  O345  1  0.19086808  0.74945599  0.31271289  1
  O  O346  1  0.19450953  0.75015198  0.56120326  1
  O  O347  1  0.19412052  0.74978705  0.81164425  1
  O  O348  1  0.69464004  0.08362855  0.06190069  1
  O  O349  1  0.69283725  0.08368977  0.31248937  1
  O  O350  1  0.69070501  0.08358653  0.56324216  1
  O  O351  1  0.69323434  0.08355005  0.81073882  1
  O  O352  1  0.69375633  0.41720146  0.06211628  1
  O  O353  1  0.69025413  0.41721530  0.31340502  1
  O  O354  1  0.69262605  0.41702821  0.56076807  1
  O  O355  1  0.69356219  0.41712684  0.81133979  1
  O  O356  1  0.69317101  0.74908094  0.06108131  1
  O  O357  1  0.69378221  0.74877412  0.31221249  1
  O  O358  1  0.69306358  0.74959694  0.56196766  1
  O  O359  1  0.69057686  0.74875078  0.81248509  1
  O  O360  1  0.30867600  0.25018760  0.18761851  1
  O  O361  1  0.30889773  0.25044723  0.43734708  1
  O  O362  1  0.30890894  0.24965297  0.68710970  1
  O  O363  1  0.30614733  0.25025926  0.93882262  1
  O  O364  1  0.30840996  0.58296658  0.18750794  1
  O  O365  1  0.30857426  0.58310011  0.43671580  1
  O  O366  1  0.30801169  0.58346635  0.68808545  1
  O  O367  1  0.30871458  0.58362437  0.93795206  1
  O  O368  1  0.30597920  0.91666714  0.18873808  1
  O  O369  1  0.30883911  0.91668731  0.43740058  1
  O  O370  1  0.30946326  0.91706459  0.68728117  1
  O  O371  1  0.30551388  0.91650656  0.93838261  1
  O  O372  1  0.80789670  0.25057254  0.18755354  1
  O  O373  1  0.80619922  0.25029534  0.43752691  1
  O  O374  1  0.80706252  0.25031187  0.68877551  1
  O  O375  1  0.80942212  0.25045179  0.93799743  1
  O  O376  1  0.80936663  0.58355167  0.18798858  1
  O  O377  1  0.80944093  0.58293163  0.43669912  1
  O  O378  1  0.80756254  0.58301814  0.68890671  1
  O  O379  1  0.81036712  0.58264997  0.93795863  1
  O  O380  1  0.80562440  0.91574580  0.18842037  1
  O  O381  1  0.80616449  0.91642219  0.43886878  1
  O  O382  1  0.80886029  0.91656571  0.68722687  1
  O  O383  1  0.80586593  0.91670228  0.93817601  1
  O  O384  1  0.23147753  0.24978692  0.03938257  1
  O  O385  1  0.23358741  0.24989742  0.28777526  1
  O  O386  1  0.23463702  0.25040456  0.53847730  1
  O  O387  1  0.23516289  0.25008459  0.78826433  1
  O  O388  1  0.23485575  0.58304206  0.03895653  1
  O  O389  1  0.23311746  0.58376252  0.28751674  1
  O  O390  1  0.23393004  0.58271328  0.53742242  1
  O  O391  1  0.23370795  0.58333565  0.78912310  1
  O  O392  1  0.23141560  0.91691787  0.03945479  1
  O  O393  1  0.23222473  0.91682589  0.28986642  1
  O  O394  1  0.23576167  0.91660431  0.53928955  1
  O  O395  1  0.23505607  0.91681141  0.78807547  1
  O  O396  1  0.73417627  0.24995137  0.03833783  1
  O  O397  1  0.73220324  0.24995895  0.28764811  1
  O  O398  1  0.73344005  0.25070484  0.53949314  1
  O  O399  1  0.73275983  0.24975880  0.78955335  1
  O  O400  1  0.73536917  0.58342873  0.03827145  1
  O  O401  1  0.73418586  0.58344711  0.28827868  1
  O  O402  1  0.73479372  0.58302738  0.53765129  1
  O  O403  1  0.73427475  0.58248487  0.79050400  1
  O  O404  1  0.73199099  0.91675776  0.03948720  1
  O  O405  1  0.73153795  0.91596697  0.28969292  1
  O  O406  1  0.73233261  0.91660415  0.54024936  1
  O  O407  1  0.73434259  0.91719679  0.78760275  1
  O  O408  1  0.26580789  0.08327187  0.20916922  1
  O  O409  1  0.26920321  0.08386022  0.46097141  1
  O  O410  1  0.26745784  0.08387267  0.71245839  1
  O  O411  1  0.26512655  0.08351418  0.95871483  1
  O  O412  1  0.26498979  0.41647332  0.21143376  1
  O  O413  1  0.26829530  0.41678280  0.45950043  1
  O  O414  1  0.26702633  0.41665032  0.71254640  1
  O  O415  1  0.26517794  0.41633296  0.95945056  1
  O  O416  1  0.26406583  0.75001470  0.21132881  1
  O  O417  1  0.26762614  0.74995686  0.45967336  1
  O  O418  1  0.26703715  0.74899912  0.70983086  1
  O  O419  1  0.26691484  0.75024645  0.96219619  1
  O  O420  1  0.76532677  0.08311117  0.21019233  1
  O  O421  1  0.76616349  0.08296242  0.46278061  1
  O  O422  1  0.76527863  0.08401634  0.70878909  1
  O  O423  1  0.76794222  0.08359821  0.95992060  1
  O  O424  1  0.76469271  0.41730276  0.21248089  1
  O  O425  1  0.76692077  0.41637519  0.45963387  1
  O  O426  1  0.76634381  0.41651965  0.70936830  1
  O  O427  1  0.76664976  0.41576309  0.96027414  1
  O  O428  1  0.76736030  0.74952997  0.21032606  1
  O  O429  1  0.76620179  0.75043537  0.46028409  1
  O  O430  1  0.76514826  0.74928626  0.71174933  1
  O  O431  1  0.76574899  0.75024560  0.95914552  1
  O  O432  1  0.01508144  0.08388663  0.16330638  1
  O  O433  1  0.01592501  0.08305211  0.41504161  1
  O  O434  1  0.01544932  0.08342783  0.66296885  1
  O  O435  1  0.01704116  0.08390014  0.91533247  1
  O  O436  1  0.01607713  0.41675333  0.16609254  1
  O  O437  1  0.01825815  0.41718664  0.41461522  1
  O  O438  1  0.01656420  0.41613382  0.66213986  1
  O  O439  1  0.01811554  0.41649333  0.91528411  1
  O  O440  1  0.01721824  0.74967073  0.16518069  1
  O  O441  1  0.01764628  0.74916106  0.41196505  1
  O  O442  1  0.01674191  0.75063485  0.66545481  1
  O  O443  1  0.01696737  0.74883892  0.91549248  1
  O  O444  1  0.51624458  0.08395794  0.16511057  1
  O  O445  1  0.51512441  0.08384103  0.41584851  1
  O  O446  1  0.51583876  0.08326001  0.66390287  1
  O  O447  1  0.51605488  0.08351534  0.91359195  1
  O  O448  1  0.51543865  0.41655128  0.16496993  1
  O  O449  1  0.51672530  0.41667384  0.41539403  1
  O  O450  1  0.51349133  0.41699907  0.66372340  1
  O  O451  1  0.51512813  0.41730034  0.91347796  1
  O  O452  1  0.51488090  0.74999938  0.16359373  1
  O  O453  1  0.51491570  0.74941448  0.41530515  1
  O  O454  1  0.51435131  0.75062913  0.66302199  1
  O  O455  1  0.51679647  0.74939046  0.91614133  1
  O  O456  1  0.48350607  0.25048091  0.08607852  1
  O  O457  1  0.48178910  0.25047024  0.33557670  1
  O  O458  1  0.48210701  0.24979815  0.58817014  1
  O  O459  1  0.48532820  0.25031598  0.83701266  1
  O  O460  1  0.48266045  0.58299936  0.08789961  1
  O  O461  1  0.48163659  0.58307295  0.33515046  1
  O  O462  1  0.48056756  0.58280470  0.58599468  1
  O  O463  1  0.48115736  0.58445962  0.83530955  1
  O  O464  1  0.48507904  0.91675977  0.08661478  1
  O  O465  1  0.48251534  0.91670664  0.33748677  1
  O  O466  1  0.48218660  0.91709186  0.58523684  1
  O  O467  1  0.48476680  0.91610147  0.83704820  1
  O  O468  1  0.98350348  0.25024318  0.08756011  1
  O  O469  1  0.98594022  0.25031499  0.33713344  1
  O  O470  1  0.98503058  0.24978587  0.58387599  1
  O  O471  1  0.98303865  0.24998032  0.83656462  1
  O  O472  1  0.98299382  0.58340966  0.08798376  1
  O  O473  1  0.98491473  0.58300068  0.33771392  1
  O  O474  1  0.98630819  0.58366873  0.58624816  1
  O  O475  1  0.98334089  0.58271774  0.83426951  1
  O  O476  1  0.98508912  0.91612355  0.08654929  1
  O  O477  1  0.98443609  0.91669210  0.33441211  1
  O  O478  1  0.98204027  0.91633611  0.58444252  1
  O  O479  1  0.98487331  0.91749685  0.83704558  1
  O  O480  1  0.08744123  0.31486907  0.07741091  1
  O  O481  1  0.08941000  0.31613272  0.32821147  1
  O  O482  1  0.08936377  0.31442857  0.57625323  1
  O  O483  1  0.08695327  0.31486044  0.82806444  1
  O  O484  1  0.08631970  0.64933672  0.07826133  1
  O  O485  1  0.08883509  0.64767100  0.32770079  1
  O  O486  1  0.09013314  0.64847078  0.57690564  1
  O  O487  1  0.08789985  0.64676003  0.82661205  1
  O  O488  1  0.08911327  0.98035789  0.07730512  1
  O  O489  1  0.08859472  0.98124279  0.32683867  1
  O  O490  1  0.08575104  0.98188678  0.57632448  1
  O  O491  1  0.08812110  0.98329112  0.82836528  1
  O  O492  1  0.58755645  0.31524947  0.07690254  1
  O  O493  1  0.58570929  0.31623984  0.32747486  1
  O  O494  1  0.58573883  0.31429366  0.57773141  1
  O  O495  1  0.58896013  0.31537997  0.82704332  1
  O  O496  1  0.58614457  0.64830528  0.07743373  1
  O  O497  1  0.58608690  0.64721497  0.32631794  1
  O  O498  1  0.58420431  0.64828573  0.57657620  1
  O  O499  1  0.58499280  0.64962274  0.82756618  1
  O  O500  1  0.58885345  0.98174781  0.07744183  1
  O  O501  1  0.58653308  0.98146232  0.32760803  1
  O  O502  1  0.58578394  0.98313804  0.57687937  1
  O  O503  1  0.58854923  0.98032943  0.82776934  1
  O  O504  1  0.41237256  0.01946469  0.17226788  1
  O  O505  1  0.41124315  0.01856547  0.42256339  1
  O  O506  1  0.41220984  0.01789179  0.67259808  1
  O  O507  1  0.41259095  0.01822607  0.92277373  1
  O  O508  1  0.41197753  0.35086179  0.17193211  1
  O  O509  1  0.41264442  0.35161218  0.42280177  1
  O  O510  1  0.40998453  0.35149324  0.67243682  1
  O  O511  1  0.41152556  0.35276373  0.92238739  1
  O  O512  1  0.41125796  0.68453682  0.17160738  1
  O  O513  1  0.41070442  0.68476042  0.42187316  1
  O  O514  1  0.41108369  0.68499581  0.67147083  1
  O  O515  1  0.41231226  0.68451816  0.92322537  1
  O  O516  1  0.91160475  0.01890274  0.17227366  1
  O  O517  1  0.91152455  0.01846802  0.42266636  1
  O  O518  1  0.91231975  0.01717220  0.67144842  1
  O  O519  1  0.91281928  0.01942632  0.92378001  1
  O  O520  1  0.91253919  0.35109273  0.17309764  1
  O  O521  1  0.91395857  0.35265172  0.42346574  1
  O  O522  1  0.91302529  0.35121315  0.67181136  1
  O  O523  1  0.91412295  0.35166892  0.92234586  1
  O  O524  1  0.91321368  0.68440438  0.17359066  1
  O  O525  1  0.91411986  0.68379746  0.42178987  1
  O  O526  1  0.91294470  0.68585329  0.67230807  1
  O  O527  1  0.91318708  0.68359487  0.92191629  1
  O  O528  1  0.16196242  0.01822647  0.20329930  1
  O  O529  1  0.16517660  0.01908779  0.45249421  1
  O  O530  1  0.16409687  0.01851063  0.70199672  1
  O  O531  1  0.16100370  0.01872107  0.95204075  1
  O  O532  1  0.16119828  0.35175718  0.20406021  1
  O  O533  1  0.16422322  0.35146035  0.45212241  1
  O  O534  1  0.16327317  0.35246450  0.70254909  1
  O  O535  1  0.16153446  0.35036006  0.95225549  1
  O  O536  1  0.16055987  0.68461299  0.20268156  1
  O  O537  1  0.16386573  0.68419326  0.45194084  1
  O  O538  1  0.16326963  0.68387856  0.70290999  1
  O  O539  1  0.16344272  0.68525398  0.95272618  1
  O  O540  1  0.66156802  0.01807444  0.20377945  1
  O  O541  1  0.66262300  0.01729274  0.45365998  1
  O  O542  1  0.66074013  0.02000953  0.70124917  1
  O  O543  1  0.66402647  0.01846948  0.95259971  1
  O  O544  1  0.66113409  0.35210154  0.20365592  1
  O  O545  1  0.66230908  0.35207240  0.45144522  1
  O  O546  1  0.66277760  0.35059444  0.70253701  1
  O  O547  1  0.66261500  0.35098985  0.95349800  1
  O  O548  1  0.66382702  0.68374608  0.20263049  1
  O  O549  1  0.66234266  0.68572458  0.45224416  1
  O  O550  1  0.66171120  0.68391584  0.70234290  1
  O  O551  1  0.66163623  0.68548633  0.95143775  1
  O  O552  1  0.33536975  0.31501506  0.04871796  1
  O  O553  1  0.33728354  0.31486786  0.29800987  1
  O  O554  1  0.33827572  0.31567444  0.54708405  1
  O  O555  1  0.33861565  0.31516757  0.79675903  1
  O  O556  1  0.33820444  0.64941996  0.04765997  1
  O  O557  1  0.33712069  0.64816786  0.29752876  1
  O  O558  1  0.33723138  0.64856747  0.54680313  1
  O  O559  1  0.33792880  0.64728189  0.79833049  1
  O  O560  1  0.33543068  0.98126788  0.04785506  1
  O  O561  1  0.33654402  0.98159378  0.29808789  1
  O  O562  1  0.33958823  0.98168656  0.54703536  1
  O  O563  1  0.33827947  0.98283800  0.79710430  1
  O  O564  1  0.83830858  0.31408392  0.04860194  1
  O  O565  1  0.83592125  0.31507458  0.29787033  1
  O  O566  1  0.83736282  0.31571225  0.54641795  1
  O  O567  1  0.83663270  0.31517166  0.79865262  1
  O  O568  1  0.83933754  0.64805157  0.04785831  1
  O  O569  1  0.83777419  0.64971806  0.29773268  1
  O  O570  1  0.83876177  0.64710213  0.54673421  1
  O  O571  1  0.83823842  0.64772353  0.79846911  1
  O  O572  1  0.83566260  0.98256130  0.04749773  1
  O  O573  1  0.83559445  0.98023234  0.29797927  1
  O  O574  1  0.83626071  0.98235977  0.54808857  1
  O  O575  1  0.83802938  0.98194676  0.79696141  1
  O  O576  1  0.41267522  0.14979987  0.17149218  1
  O  O577  1  0.41122189  0.14879467  0.42251784  1
  O  O578  1  0.41188436  0.14810951  0.67313610  1
  O  O579  1  0.41236106  0.14834356  0.92264197  1
  O  O580  1  0.41143672  0.48114788  0.17196146  1
  O  O581  1  0.41250669  0.48169858  0.42251503  1
  O  O582  1  0.40942563  0.48171009  0.67202814  1
  O  O583  1  0.41164052  0.48297373  0.92143127  1
  O  O584  1  0.41127285  0.81481890  0.17238826  1
  O  O585  1  0.41111781  0.81492152  0.42226456  1
  O  O586  1  0.41093111  0.81544766  0.67115190  1
  O  O587  1  0.41288742  0.81443552  0.92449224  1
  O  O588  1  0.91163188  0.14940049  0.17175006  1
  O  O589  1  0.91204823  0.14854334  0.42290160  1
  O  O590  1  0.91171349  0.14755285  0.67196697  1
  O  O591  1  0.91305286  0.14943999  0.92307728  1
  O  O592  1  0.91215747  0.48145008  0.17274767  1
  O  O593  1  0.91421449  0.48266793  0.42308268  1
  O  O594  1  0.91316738  0.48139340  0.67165287  1
  O  O595  1  0.91435716  0.48183245  0.92199034  1
  O  O596  1  0.91308426  0.81441217  0.17405348  1
  O  O597  1  0.91390087  0.81397722  0.42212490  1
  O  O598  1  0.91294907  0.81615745  0.67180992  1
  O  O599  1  0.91338920  0.81397889  0.92305346  1
  O  O600  1  0.08711539  0.18501618  0.07700407  1
  O  O601  1  0.08979953  0.18585974  0.32739893  1
  O  O602  1  0.08905216  0.18457667  0.57615083  1
  O  O603  1  0.08659407  0.18459252  0.82787546  1
  O  O604  1  0.08694287  0.51934213  0.07804234  1
  O  O605  1  0.08849005  0.51756218  0.32781874  1
  O  O606  1  0.09004194  0.51852387  0.57665111  1
  O  O607  1  0.08710643  0.51673739  0.82709203  1
  O  O608  1  0.08855503  0.85013145  0.07831974  1
  O  O609  1  0.08837298  0.85110718  0.32739930  1
  O  O610  1  0.08631844  0.85193978  0.57686786  1
  O  O611  1  0.08861538  0.85283757  0.82784310  1
  O  O612  1  0.58742546  0.18536472  0.07661630  1
  O  O613  1  0.58613769  0.18622288  0.32699285  1
  O  O614  1  0.58541272  0.18413292  0.57813781  1
  O  O615  1  0.58902414  0.18530994  0.82697649  1
  O  O616  1  0.58631350  0.51832525  0.07738151  1
  O  O617  1  0.58559222  0.51721887  0.32709720  1
  O  O618  1  0.58463259  0.51825403  0.57683041  1
  O  O619  1  0.58486965  0.51944203  0.82669808  1
  O  O620  1  0.58898827  0.85179533  0.07760072  1
  O  O621  1  0.58623951  0.85142620  0.32732149  1
  O  O622  1  0.58653442  0.85307627  0.57629318  1
  O  O623  1  0.58777321  0.84987815  0.82875528  1
  O  O624  1  0.33575523  0.18506403  0.04835022  1
  O  O625  1  0.33749354  0.18504977  0.29761746  1
  O  O626  1  0.33856250  0.18545260  0.54742757  1
  O  O627  1  0.33869573  0.18488581  0.79703577  1
  O  O628  1  0.33907499  0.51928142  0.04786908  1
  O  O629  1  0.33675049  0.51839509  0.29789971  1
  O  O630  1  0.33787165  0.51829015  0.54676455  1
  O  O631  1  0.33713688  0.51728520  0.79773410  1
  O  O632  1  0.33500721  0.85111595  0.04801607  1
  O  O633  1  0.33619150  0.85176618  0.29831185  1
  O  O634  1  0.33945291  0.85138457  0.54676150  1
  O  O635  1  0.33877329  0.85254127  0.79726653  1
  O  O636  1  0.83771485  0.18395649  0.04759069  1
  O  O637  1  0.83612154  0.18507453  0.29736432  1
  O  O638  1  0.83699930  0.18529985  0.54687962  1
  O  O639  1  0.83698915  0.18524922  0.79834897  1
  O  O640  1  0.83893413  0.51795397  0.04823774  1
  O  O641  1  0.83863336  0.51972840  0.29837314  1
  O  O642  1  0.83796725  0.51666717  0.54614198  1
  O  O643  1  0.83852026  0.51785011  0.79822077  1
  O  O644  1  0.83601491  0.85241661  0.04785695  1
  O  O645  1  0.83525879  0.85007298  0.29779302  1
  O  O646  1  0.83674640  0.85231611  0.54847379  1
  O  O647  1  0.83775859  0.85179592  0.79747036  1
  O  O648  1  0.16208053  0.14848098  0.20305721  1
  O  O649  1  0.16539428  0.14913877  0.45279602  1
  O  O650  1  0.16377801  0.14866171  0.70216794  1
  O  O651  1  0.16131396  0.14895935  0.95177701  1
  O  O652  1  0.16177162  0.48218821  0.20341099  1
  O  O653  1  0.16393712  0.48137537  0.45193012  1
  O  O654  1  0.16398043  0.48268598  0.70296819  1
  O  O655  1  0.16094922  0.48051698  0.95187710  1
  O  O656  1  0.16021219  0.81490117  0.20338684  1
  O  O657  1  0.16310532  0.81421444  0.45178965  1
  O  O658  1  0.16356757  0.81422259  0.70200163  1
  O  O659  1  0.16323648  0.81547135  0.95324467  1
  O  O660  1  0.66179506  0.14857275  0.20310478  1
  O  O661  1  0.66239841  0.14752104  0.45287682  1
  O  O662  1  0.66153860  0.15004634  0.70203743  1
  O  O663  1  0.66405729  0.14866647  0.95273254  1
  O  O664  1  0.66137114  0.48270858  0.20365258  1
  O  O665  1  0.66300680  0.48197092  0.45109360  1
  O  O666  1  0.66223858  0.48085368  0.70174346  1
  O  O667  1  0.66308281  0.48119110  0.95234530  1
  O  O668  1  0.66300656  0.81403468  0.20331178  1
  O  O669  1  0.66235467  0.81597371  0.45326098  1
  O  O670  1  0.66141389  0.81417026  0.70281472  1
  O  O671  1  0.66182365  0.81565852  0.95248204  1
