# generated using pymatgen
data_Na2MnFe(PO4)2
_symmetry_space_group_name_H-M   'P 1'
_cell_length_a   21.07934100
_cell_length_b   18.93159993
_cell_length_c   20.03944159
_cell_angle_alpha   89.99967560
_cell_angle_beta   90.00167682
_cell_angle_gamma   90.00003396
_symmetry_Int_Tables_number   1
_chemical_formula_structural   Na2MnFe(PO4)2
_chemical_formula_sum   'Na96 Mn48 Fe48 P96 O384'
_cell_volume   7997.05279358
_cell_formula_units_Z   48
loop_
 _symmetry_equiv_pos_site_id
 _symmetry_equiv_pos_as_xyz
  1  'x, y, z'
loop_
 _atom_site_type_symbol
 _atom_site_label
 _atom_site_symmetry_multiplicity
 _atom_site_fract_x
 _atom_site_fract_y
 _atom_site_fract_z
 _atom_site_occupancy
  Na  Na0  1  -0.00199665  -0.00016733  0.00020094  1
  Na  Na1  1  -0.00144521  -0.00006834  0.25044362  1
  Na  Na2  1  -0.00018520  -0.00007534  0.49975899  1
  Na  Na3  1  0.00137939  0.00087071  0.74967942  1
  Na  Na4  1  0.00083873  0.33451064  0.00015258  1
  Na  Na5  1  -0.00068779  0.33318547  0.25073721  1
  Na  Na6  1  -0.00057533  0.33313496  0.49966049  1
  Na  Na7  1  -0.00112263  0.33317486  0.74913427  1
  Na  Na8  1  -0.00151282  0.66632673  -0.00061217  1
  Na  Na9  1  -0.00231103  0.66572456  0.25018722  1
  Na  Na10  1  0.00040324  0.66759082  0.49970767  1
  Na  Na11  1  -0.00004808  0.66705481  0.75009139  1
  Na  Na12  1  0.49918278  -0.00051328  -0.00017303  1
  Na  Na13  1  0.49992820  0.00069397  0.24982828  1
  Na  Na14  1  0.49841334  -0.00084827  0.50088190  1
  Na  Na15  1  0.50136356  0.00072059  0.74896477  1
  Na  Na16  1  0.50103909  0.33351487  0.00009687  1
  Na  Na17  1  0.50123733  0.33307939  0.24960521  1
  Na  Na18  1  0.50162884  0.33325140  0.50045370  1
  Na  Na19  1  0.50117755  0.33347980  0.75095114  1
  Na  Na20  1  0.50059193  0.66662895  0.00083542  1
  Na  Na21  1  0.50079059  0.66705069  0.24933322  1
  Na  Na22  1  0.49964807  0.66587502  0.50099164  1
  Na  Na23  1  0.50288812  0.66776231  0.74951383  1
  Na  Na24  1  0.25110188  0.00069607  0.12362919  1
  Na  Na25  1  0.24945207  0.00036885  0.37557828  1
  Na  Na26  1  0.24951108  0.00032691  0.62622444  1
  Na  Na27  1  0.25041600  0.00021756  0.87468936  1
  Na  Na28  1  0.24912366  0.33316098  0.12336173  1
  Na  Na29  1  0.24913168  0.33293745  0.37520799  1
  Na  Na30  1  0.25017338  0.33312660  0.62520046  1
  Na  Na31  1  0.25164065  0.33442125  0.87602742  1
  Na  Na32  1  0.24963578  0.66659797  0.12450124  1
  Na  Na33  1  0.24975315  0.66706665  0.37549484  1
  Na  Na34  1  0.24836452  0.66659253  0.62589129  1
  Na  Na35  1  0.24875705  0.66628731  0.87431921  1
  Na  Na36  1  0.75191899  0.00093570  0.12506361  1
  Na  Na37  1  0.75147388  0.00031924  0.37442018  1
  Na  Na38  1  0.75130710  0.00080821  0.62629329  1
  Na  Na39  1  0.74895968  -0.00081018  0.87371376  1
  Na  Na40  1  0.74802131  0.33228918  0.12365774  1
  Na  Na41  1  0.75134481  0.33401224  0.37592815  1
  Na  Na42  1  0.74957809  0.33327716  0.62564661  1
  Na  Na43  1  0.74889989  0.33335913  0.87550413  1
  Na  Na44  1  0.75199349  0.66675637  0.12394236  1
  Na  Na45  1  0.75119277  0.66705650  0.37474720  1
  Na  Na46  1  0.74911344  0.66640110  0.62595176  1
  Na  Na47  1  0.75160830  0.66754441  0.87467540  1
  Na  Na48  1  -0.00082399  0.16752788  0.00120418  1
  Na  Na49  1  -0.00032329  0.16703309  0.24945620  1
  Na  Na50  1  0.00079507  0.16680432  0.50015802  1
  Na  Na51  1  0.00159034  0.16605807  0.74895175  1
  Na  Na52  1  -0.00080046  0.49975553  -0.00106697  1
  Na  Na53  1  -0.00073166  0.49971513  0.25134828  1
  Na  Na54  1  -0.00071091  0.49956449  0.49955522  1
  Na  Na55  1  -0.00135879  0.50006441  0.74998023  1
  Na  Na56  1  -0.00143103  0.83260595  -0.00065215  1
  Na  Na57  1  -0.00262977  0.83344185  0.25057276  1
  Na  Na58  1  -0.00060621  0.83321274  0.49932339  1
  Na  Na59  1  -0.00025027  0.83297183  0.74990966  1
  Na  Na60  1  0.50077381  0.16679353  0.00080832  1
  Na  Na61  1  0.50081512  0.16699996  0.24954984  1
  Na  Na62  1  0.49964176  0.16775904  0.50096962  1
  Na  Na63  1  0.50125690  0.16699131  0.74924781  1
  Na  Na64  1  0.50180456  0.49916076  0.00000874  1
  Na  Na65  1  0.50187270  0.49926899  0.24934881  1
  Na  Na66  1  0.50121499  0.49975084  0.50052375  1
  Na  Na67  1  0.50189516  0.49940673  0.75062421  1
  Na  Na68  1  0.49945556  0.83321032  0.00018008  1
  Na  Na69  1  0.49913107  0.83307736  0.24970967  1
  Na  Na70  1  0.49977999  0.83294282  0.50074847  1
  Na  Na71  1  0.50122196  0.83273490  0.74932919  1
  Na  Na72  1  0.25001514  0.16798237  0.12375440  1
  Na  Na73  1  0.25041606  0.16655521  0.37586157  1
  Na  Na74  1  0.24901303  0.16720486  0.62565402  1
  Na  Na75  1  0.25162491  0.16611685  0.87451984  1
  Na  Na76  1  0.24787057  0.50022446  0.12452587  1
  Na  Na77  1  0.24857572  0.50006555  0.37480090  1
  Na  Na78  1  0.25015626  0.49952169  0.62572522  1
  Na  Na79  1  0.24949808  0.49937998  0.87533753  1
  Na  Na80  1  0.25022175  0.83318540  0.12343478  1
  Na  Na81  1  0.24936699  0.83295712  0.37554016  1
  Na  Na82  1  0.24888773  0.83307160  0.62612519  1
  Na  Na83  1  0.25005487  0.83268594  0.87497054  1
  Na  Na84  1  0.74893281  0.16767145  0.12444812  1
  Na  Na85  1  0.75027820  0.16727764  0.37482853  1
  Na  Na86  1  0.74857068  0.16777147  0.62602438  1
  Na  Na87  1  0.74916421  0.16708225  0.87446412  1
  Na  Na88  1  0.74990823  0.50025163  0.12347761  1
  Na  Na89  1  0.75047623  0.49942904  0.37505196  1
  Na  Na90  1  0.75052475  0.49908430  0.62605893  1
  Na  Na91  1  0.74915344  0.50022647  0.87574742  1
  Na  Na92  1  0.75259226  0.83238466  0.12476954  1
  Na  Na93  1  0.75226663  0.83269848  0.37532547  1
  Na  Na94  1  0.75113759  0.83252392  0.62580612  1
  Na  Na95  1  0.75028138  0.83345598  0.87384311  1
  Mn  Mn96  1  0.10779724  0.08364434  0.37288148  1
  Mn  Mn97  1  0.60815554  0.75020786  0.37320051  1
  Mn  Mn98  1  0.35794128  0.74920402  0.75273382  1
  Mn  Mn99  1  0.35803119  0.08367663  0.75269354  1
  Mn  Mn100  1  0.39256337  0.58280489  0.62734278  1
  Mn  Mn101  1  0.14114573  0.58277493  0.24696923  1
  Mn  Mn102  1  0.39271759  0.25080621  0.62706393  1
  Mn  Mn103  1  0.60767762  0.08299444  0.37372122  1
  Mn  Mn104  1  0.64329326  0.91730517  0.49754093  1
  Mn  Mn105  1  0.60883615  0.41656853  0.37238318  1
  Mn  Mn106  1  0.35772639  0.08392350  0.25256575  1
  Mn  Mn107  1  0.60832293  0.08332952  0.62184696  1
  Mn  Mn108  1  0.64310898  0.58394091  0.99717053  1
  Mn  Mn109  1  0.39216607  0.58275228  0.37721643  1
  Mn  Mn110  1  0.35790136  0.41702965  0.50229849  1
  Mn  Mn111  1  0.39309773  0.58359883  0.87774718  1
  Mn  Mn112  1  0.89207352  0.58403645  0.62742986  1
  Mn  Mn113  1  0.64267265  0.91691142  0.99749290  1
  Mn  Mn114  1  0.89223832  0.24928635  0.62731962  1
  Mn  Mn115  1  0.39166201  0.91653805  0.12704585  1
  Mn  Mn116  1  0.14144159  0.58265241  0.74788544  1
  Mn  Mn117  1  0.35762347  0.74984237  0.25259365  1
  Mn  Mn118  1  0.89123311  0.58253683  0.37771380  1
  Mn  Mn119  1  0.14172052  0.91665119  0.74813983  1
  Mn  Mn120  1  0.14241295  0.25017867  0.99677567  1
  Mn  Mn121  1  0.89185415  0.25072107  0.12737570  1
  Mn  Mn122  1  0.14199268  0.91637760  0.99733806  1
  Mn  Mn123  1  0.35757493  0.41655431  0.25178627  1
  Mn  Mn124  1  0.14152262  0.91712225  0.24678668  1
  Mn  Mn125  1  0.89176445  0.91756676  0.37814852  1
  Mn  Mn126  1  0.10646268  0.74940780  0.12256968  1
  Mn  Mn127  1  0.39131164  0.91694546  0.37792896  1
  Mn  Mn128  1  0.39219961  0.58279024  0.12678427  1
  Mn  Mn129  1  0.85759351  0.41620878  0.00225149  1
  Mn  Mn130  1  0.14248906  0.25032146  0.74899790  1
  Mn  Mn131  1  0.39199960  0.91616885  0.62735172  1
  Mn  Mn132  1  0.60868515  0.75006153  0.12257826  1
  Mn  Mn133  1  0.85780858  0.08379126  0.75283641  1
  Mn  Mn134  1  0.10743315  0.08316779  0.12225033  1
  Mn  Mn135  1  0.64275249  0.58319040  0.49755873  1
  Mn  Mn136  1  0.10736144  0.75009283  0.37292608  1
  Mn  Mn137  1  0.60852337  0.08317063  0.12222008  1
  Mn  Mn138  1  0.64273556  0.91633997  0.24775559  1
  Mn  Mn139  1  0.85765431  0.08432940  0.25251266  1
  Mn  Mn140  1  0.10706013  0.41631511  0.37300437  1
  Mn  Mn141  1  0.10752720  0.41680405  0.62273146  1
  Mn  Mn142  1  0.89191623  0.91743850  0.87708498  1
  Mn  Mn143  1  0.39293691  0.25036597  0.12711715  1
  Fe  Fe144  1  0.89261434  0.58301260  0.12677361  1
  Fe  Fe145  1  0.35726384  0.74932054  0.00057129  1
  Fe  Fe146  1  0.35644440  0.08304402  0.50160862  1
  Fe  Fe147  1  0.14251493  0.58336736  0.49871394  1
  Fe  Fe148  1  0.39261355  0.25014664  0.37684769  1
  Fe  Fe149  1  0.10648331  0.74984005  0.87358756  1
  Fe  Fe150  1  0.85662940  0.41680694  0.75209391  1
  Fe  Fe151  1  0.85790996  0.75086524  0.00135843  1
  Fe  Fe152  1  0.39361142  0.91683370  0.87595960  1
  Fe  Fe153  1  0.89232768  0.25015511  0.87622241  1
  Fe  Fe154  1  0.10667573  0.75050548  0.62305102  1
  Fe  Fe155  1  0.64257364  0.91619516  0.74802709  1
  Fe  Fe156  1  0.89209517  0.91627555  0.12652166  1
  Fe  Fe157  1  0.64289820  0.25059474  0.24901486  1
  Fe  Fe158  1  0.14231882  0.25000265  0.24864075  1
  Fe  Fe159  1  0.35729186  0.41739379  0.00176737  1
  Fe  Fe160  1  0.60720943  0.41674120  0.87299385  1
  Fe  Fe161  1  0.89323622  0.91687777  0.62620823  1
  Fe  Fe162  1  0.64271816  0.24926871  0.99736892  1
  Fe  Fe163  1  0.14242578  0.91650850  0.49896558  1
  Fe  Fe164  1  0.85777323  0.08370868  0.50227915  1
  Fe  Fe165  1  0.85765634  0.75016900  0.50290721  1
  Fe  Fe166  1  0.85685111  0.41637269  0.50241921  1
  Fe  Fe167  1  0.14168221  0.58336796  0.99824145  1
  Fe  Fe168  1  0.85713141  0.74908270  0.25154949  1
  Fe  Fe169  1  0.85684152  0.41676001  0.25078439  1
  Fe  Fe170  1  0.64336916  0.58335888  0.74904086  1
  Fe  Fe171  1  0.14280699  0.25019511  0.49792646  1
  Fe  Fe172  1  0.35840733  0.41682478  0.75247908  1
  Fe  Fe173  1  0.10669259  0.41701866  0.12340482  1
  Fe  Fe174  1  0.35654996  0.75016323  0.50200188  1
  Fe  Fe175  1  0.64271694  0.25034441  0.74892033  1
  Fe  Fe176  1  0.85701257  0.74942513  0.75144844  1
  Fe  Fe177  1  0.60801847  0.74979600  0.62270946  1
  Fe  Fe178  1  0.64353522  0.24972513  0.49797560  1
  Fe  Fe179  1  0.64341103  0.58295977  0.24820753  1
  Fe  Fe180  1  0.10736386  0.08271696  0.62257125  1
  Fe  Fe181  1  0.60822005  0.75038776  0.87350017  1
  Fe  Fe182  1  0.60833007  0.41682331  0.12334348  1
  Fe  Fe183  1  0.89252449  0.58264596  0.87628152  1
  Fe  Fe184  1  0.35823821  0.08336140  0.00073557  1
  Fe  Fe185  1  0.39412645  0.24967550  0.87656732  1
  Fe  Fe186  1  0.89204653  0.24973132  0.37702049  1
  Fe  Fe187  1  0.10686587  0.41629103  0.87302844  1
  Fe  Fe188  1  0.60812639  0.41710140  0.62384777  1
  Fe  Fe189  1  0.85724769  0.08331578  0.00062679  1
  Fe  Fe190  1  0.60747479  0.08289577  0.87380209  1
  Fe  Fe191  1  0.10739555  0.08375687  0.87421439  1
  P  P192  1  0.05436856  0.25121367  0.11108035  1
  P  P193  1  0.05341849  0.24987372  0.36048291  1
  P  P194  1  0.05431507  0.24961323  0.60949165  1
  P  P195  1  0.05180109  0.25016402  0.86013744  1
  P  P196  1  0.05185643  0.58239241  0.10915283  1
  P  P197  1  0.05384458  0.58332666  0.36118773  1
  P  P198  1  0.05341189  0.58409742  0.60932993  1
  P  P199  1  0.05309798  0.58302632  0.86119791  1
  P  P200  1  0.05118811  0.91621199  0.10956987  1
  P  P201  1  0.05415348  0.91680860  0.36093450  1
  P  P202  1  0.05283661  0.91634536  0.60957286  1
  P  P203  1  0.05291954  0.91684726  0.86029926  1
  P  P204  1  0.55627609  0.25102627  0.11039321  1
  P  P205  1  0.55411903  0.24961155  0.36066789  1
  P  P206  1  0.55615454  0.25137953  0.61078987  1
  P  P207  1  0.55450784  0.24964225  0.86096475  1
  P  P208  1  0.55548321  0.58257799  0.11086254  1
  P  P209  1  0.55432201  0.58347879  0.35903758  1
  P  P210  1  0.55565016  0.58303500  0.61168894  1
  P  P211  1  0.55456741  0.58370812  0.85972182  1
  P  P212  1  0.55342520  0.91652880  0.10956390  1
  P  P213  1  0.55282363  0.91669966  0.35996864  1
  P  P214  1  0.55508098  0.91563758  0.61079494  1
  P  P215  1  0.55322339  0.91668271  0.85948476  1
  P  P216  1  0.44583662  0.08364436  0.13896668  1
  P  P217  1  0.44589382  0.08468589  0.39122318  1
  P  P218  1  0.44536612  0.08362695  0.63883466  1
  P  P219  1  0.44802588  0.08351422  0.88987998  1
  P  P220  1  0.44732354  0.41670354  0.13890299  1
  P  P221  1  0.44733311  0.41566373  0.39005459  1
  P  P222  1  0.44794370  0.41664010  0.64106867  1
  P  P223  1  0.44670511  0.41609621  0.88968370  1
  P  P224  1  0.44547134  0.74944842  0.13878067  1
  P  P225  1  0.44612120  0.74953866  0.39140617  1
  P  P226  1  0.44661208  0.74957026  0.63910705  1
  P  P227  1  0.44823899  0.75058901  0.89016927  1
  P  P228  1  0.94495990  0.08286302  0.13876841  1
  P  P229  1  0.94581253  0.08480363  0.39091372  1
  P  P230  1  0.94679995  0.08251349  0.63883330  1
  P  P231  1  0.94739828  0.08475205  0.89032450  1
  P  P232  1  0.94698526  0.41756607  0.14055257  1
  P  P233  1  0.94389039  0.41543896  0.38950984  1
  P  P234  1  0.94449105  0.41665321  0.63970947  1
  P  P235  1  0.94584873  0.41619534  0.88834426  1
  P  P236  1  0.94425198  0.74960885  0.13911637  1
  P  P237  1  0.94417419  0.74955725  0.38982618  1
  P  P238  1  0.94588904  0.75099597  0.63952598  1
  P  P239  1  0.94532696  0.74915806  0.88864290  1
  P  P240  1  0.19656513  0.08467760  0.23446215  1
  P  P241  1  0.19592582  0.08318797  0.48671825  1
  P  P242  1  0.19455902  0.08363307  0.73583277  1
  P  P243  1  0.19770713  0.08353566  0.98412254  1
  P  P244  1  0.19549801  0.41522915  0.23404631  1
  P  P245  1  0.19627153  0.41675349  0.48533339  1
  P  P246  1  0.19678646  0.41614826  0.73636289  1
  P  P247  1  0.19530381  0.41765883  0.98548609  1
  P  P248  1  0.19624613  0.75003550  0.23427000  1
  P  P249  1  0.19579099  0.75008811  0.48683290  1
  P  P250  1  0.19416160  0.74977321  0.73576024  1
  P  P251  1  0.19651511  0.74887336  0.98437070  1
  P  P252  1  0.69671624  0.08431319  0.23519539  1
  P  P253  1  0.69873612  0.08405075  0.48513482  1
  P  P254  1  0.69492613  0.08344956  0.73654546  1
  P  P255  1  0.69755957  0.08362893  0.98394357  1
  P  P256  1  0.69759000  0.41660332  0.23424901  1
  P  P257  1  0.69688057  0.41582882  0.48659962  1
  P  P258  1  0.69580001  0.41680315  0.73659861  1
  P  P259  1  0.69477411  0.41590481  0.98531919  1
  P  P260  1  0.69826142  0.74905659  0.23497374  1
  P  P261  1  0.69769905  0.75024941  0.48620350  1
  P  P262  1  0.69572167  0.74974804  0.73606382  1
  P  P263  1  0.69827348  0.75045141  0.98407358  1
  P  P264  1  0.30572818  0.25037007  0.01285240  1
  P  P265  1  0.30268831  0.25050490  0.26542195  1
  P  P266  1  0.30328878  0.24948570  0.51413358  1
  P  P267  1  0.30474849  0.25110861  0.76600323  1
  P  P268  1  0.30209168  0.58308411  0.01431969  1
  P  P269  1  0.30257263  0.58284003  0.26502840  1
  P  P270  1  0.30198886  0.58400317  0.51537015  1
  P  P271  1  0.30346384  0.58231122  0.76545142  1
  P  P272  1  0.30509983  0.91641920  0.01259595  1
  P  P273  1  0.30249677  0.91688593  0.26523920  1
  P  P274  1  0.30171093  0.91655590  0.51558093  1
  P  P275  1  0.30393872  0.91638006  0.76600285  1
  P  P276  1  0.80342294  0.24909620  0.01319091  1
  P  P277  1  0.80271615  0.25159288  0.26527282  1
  P  P278  1  0.80362561  0.24977966  0.51441665  1
  P  P279  1  0.80268015  0.25091123  0.76561949  1
  P  P280  1  0.80589152  0.58399546  0.01374423  1
  P  P281  1  0.80356422  0.58248449  0.26332820  1
  P  P282  1  0.80330438  0.58314077  0.51563954  1
  P  P283  1  0.80304124  0.58319353  0.76544791  1
  P  P284  1  0.80415136  0.91712413  0.01480469  1
  P  P285  1  0.80486074  0.91585331  0.26392657  1
  P  P286  1  0.80437263  0.91722183  0.51634868  1
  P  P287  1  0.80367277  0.91590561  0.76325143  1
  O  O288  1  0.05814190  0.25030014  0.18780040  1
  O  O289  1  0.05874949  0.24998730  0.43717164  1
  O  O290  1  0.05732587  0.25059792  0.68626925  1
  O  O291  1  0.05531705  0.25050783  0.93690021  1
  O  O292  1  0.05517657  0.58309513  0.18594420  1
  O  O293  1  0.05864512  0.58342886  0.43789692  1
  O  O294  1  0.05594790  0.58306277  0.68620147  1
  O  O295  1  0.05748444  0.58306661  0.93787818  1
  O  O296  1  0.05479164  0.91643470  0.18632833  1
  O  O297  1  0.05903412  0.91664324  0.43767421  1
  O  O298  1  0.05607646  0.91648699  0.68631619  1
  O  O299  1  0.05546360  0.91653006  0.93709660  1
  O  O300  1  0.56024110  0.25038750  0.18721730  1
  O  O301  1  0.55928670  0.24974466  0.43739248  1
  O  O302  1  0.56004925  0.25055315  0.68762056  1
  O  O303  1  0.55862040  0.24948298  0.93772339  1
  O  O304  1  0.55986192  0.58326902  0.18761321  1
  O  O305  1  0.55748967  0.58331757  0.43592070  1
  O  O306  1  0.55977161  0.58322463  0.68841468  1
  O  O307  1  0.55711081  0.58372490  0.93655620  1
  O  O308  1  0.55697085  0.91654171  0.18634263  1
  O  O309  1  0.55656109  0.91666918  0.43677748  1
  O  O310  1  0.55949269  0.91629100  0.68758271  1
  O  O311  1  0.55646608  0.91657398  0.93623215  1
  O  O312  1  0.44133864  0.08360600  0.06219125  1
  O  O313  1  0.44349073  0.08414306  0.31434548  1
  O  O314  1  0.44017427  0.08343555  0.56215140  1
  O  O315  1  0.44477160  0.08387437  0.81311823  1
  O  O316  1  0.44196446  0.41710974  0.06224159  1
  O  O317  1  0.44414066  0.41613080  0.31328505  1
  O  O318  1  0.44369865  0.41665433  0.56433300  1
  O  O319  1  0.44221009  0.41690206  0.81298606  1
  O  O320  1  0.44060205  0.74915764  0.06202449  1
  O  O321  1  0.44315145  0.74965282  0.31454410  1
  O  O322  1  0.44062685  0.74961684  0.56251977  1
  O  O323  1  0.44457759  0.74961077  0.81343253  1
  O  O324  1  0.94082142  0.08385292  0.06202275  1
  O  O325  1  0.94267335  0.08438605  0.31407639  1
  O  O326  1  0.94180839  0.08355065  0.56221864  1
  O  O327  1  0.94402725  0.08405999  0.81351044  1
  O  O328  1  0.94341684  0.41654336  0.06376496  1
  O  O329  1  0.93991501  0.41638869  0.31276081  1
  O  O330  1  0.94019839  0.41650322  0.56290919  1
  O  O331  1  0.94091639  0.41625174  0.81165992  1
  O  O332  1  0.94115367  0.74985357  0.06223122  1
  O  O333  1  0.93985000  0.74909841  0.31300704  1
  O  O334  1  0.94132170  0.75003055  0.56278435  1
  O  O335  1  0.94069927  0.74974973  0.81189766  1
  O  O336  1  0.19339709  0.08375573  0.06081368  1
  O  O337  1  0.19360702  0.08387368  0.31129681  1
  O  O338  1  0.19159903  0.08315892  0.56348198  1
  O  O339  1  0.19000894  0.08362204  0.81260614  1
  O  O340  1  0.19032964  0.41699705  0.06211616  1
  O  O341  1  0.19239901  0.41611229  0.31084597  1
  O  O342  1  0.19369259  0.41655390  0.56214074  1
  O  O343  1  0.19115228  0.41616609  0.81303328  1
  O  O344  1  0.19258340  0.74963176  0.06106561  1
  O  O345  1  0.19290072  0.75006242  0.31108934  1
  O  O346  1  0.19126107  0.75025847  0.56355923  1
  O  O347  1  0.18941875  0.74983191  0.81250792  1
  O  O348  1  0.69438498  0.08317555  0.06068194  1
  O  O349  1  0.69372590  0.08347770  0.31195394  1
  O  O350  1  0.69492983  0.08347856  0.56187248  1
  O  O351  1  0.69073882  0.08299305  0.81328370  1
  O  O352  1  0.69137211  0.41669136  0.06208044  1
  O  O353  1  0.69478377  0.41669117  0.31107556  1
  O  O354  1  0.69252043  0.41650969  0.56325889  1
  O  O355  1  0.69118393  0.41673828  0.81333369  1
  O  O356  1  0.69444611  0.75010534  0.06076107  1
  O  O357  1  0.69470293  0.74981870  0.31170492  1
  O  O358  1  0.69256932  0.75008631  0.56288646  1
  O  O359  1  0.69140272  0.75035411  0.81279737  1
  O  O360  1  0.30681604  0.25072170  0.18864889  1
  O  O361  1  0.30802126  0.25016277  0.43749790  1
  O  O362  1  0.30724466  0.25046800  0.68916337  1
  O  O363  1  0.31025932  0.25011004  0.93615654  1
  O  O364  1  0.30618457  0.58266973  0.18824112  1
  O  O365  1  0.30564081  0.58340615  0.43866968  1
  O  O366  1  0.30673979  0.58300846  0.68868266  1
  O  O367  1  0.30614201  0.58293828  0.93764890  1
  O  O368  1  0.30582415  0.91680245  0.18839586  1
  O  O369  1  0.30506042  0.91655234  0.43884742  1
  O  O370  1  0.30690120  0.91637890  0.68918946  1
  O  O371  1  0.30951244  0.91655002  0.93586642  1
  O  O372  1  0.80607159  0.25070327  0.18848008  1
  O  O373  1  0.80780300  0.24966844  0.43773378  1
  O  O374  1  0.80649487  0.25011828  0.68892159  1
  O  O375  1  0.80834117  0.25002947  0.93656566  1
  O  O376  1  0.80783759  0.58246179  0.18662207  1
  O  O377  1  0.80564022  0.58322297  0.43878704  1
  O  O378  1  0.80628999  0.58322530  0.68874833  1
  O  O379  1  0.80969326  0.58288896  0.93694250  1
  O  O380  1  0.80849840  0.91661449  0.18714084  1
  O  O381  1  0.80655473  0.91725683  0.43944518  1
  O  O382  1  0.80890364  0.91671503  0.68671657  1
  O  O383  1  0.80636344  0.91696875  0.93790584  1
  O  O384  1  0.23550871  0.25063601  0.03667187  1
  O  O385  1  0.23255812  0.25003568  0.28970217  1
  O  O386  1  0.23297095  0.25006613  0.53812667  1
  O  O387  1  0.23508365  0.25050657  0.79139288  1
  O  O388  1  0.23197774  0.58319502  0.03885757  1
  O  O389  1  0.23275975  0.58294831  0.28970254  1
  O  O390  1  0.23199776  0.58329372  0.54026248  1
  O  O391  1  0.23365682  0.58265126  0.79023898  1
  O  O392  1  0.23498720  0.91660991  0.03696704  1
  O  O393  1  0.23287439  0.91685210  0.29040653  1
  O  O394  1  0.23176050  0.91666726  0.54068592  1
  O  O395  1  0.23409854  0.91642756  0.79064487  1
  O  O396  1  0.73305838  0.24957844  0.03677148  1
  O  O397  1  0.73266513  0.25093082  0.28996712  1
  O  O398  1  0.73350915  0.25006647  0.53895268  1
  O  O399  1  0.73239632  0.25051933  0.78958591  1
  O  O400  1  0.73577598  0.58335571  0.03768993  1
  O  O401  1  0.73349673  0.58275045  0.28805746  1
  O  O402  1  0.73385141  0.58281755  0.54139133  1
  O  O403  1  0.73294600  0.58356206  0.79011728  1
  O  O404  1  0.73468153  0.91673900  0.04069428  1
  O  O405  1  0.73510282  0.91636912  0.28900484  1
  O  O406  1  0.73486432  0.91696537  0.54204930  1
  O  O407  1  0.73320072  0.91594730  0.78675560  1
  O  O408  1  0.26611558  0.08463120  0.20895361  1
  O  O409  1  0.26612377  0.08323165  0.46242023  1
  O  O410  1  0.26482776  0.08368434  0.71239684  1
  O  O411  1  0.26799120  0.08341241  0.96022773  1
  O  O412  1  0.26517479  0.41639941  0.20879747  1
  O  O413  1  0.26581514  0.41668281  0.45965249  1
  O  O414  1  0.26718081  0.41627897  0.71299693  1
  O  O415  1  0.26589573  0.41699631  0.96230718  1
  O  O416  1  0.26589980  0.74988027  0.20919766  1
  O  O417  1  0.26602251  0.75010915  0.46258325  1
  O  O418  1  0.26446494  0.74972470  0.71244399  1
  O  O419  1  0.26674730  0.74926009  0.96003083  1
  O  O420  1  0.76640805  0.08458282  0.20995200  1
  O  O421  1  0.76866213  0.08374887  0.46039056  1
  O  O422  1  0.76508818  0.08407793  0.71245928  1
  O  O423  1  0.76747947  0.08318373  0.95886619  1
  O  O424  1  0.76740441  0.41637832  0.20871436  1
  O  O425  1  0.76710483  0.41643036  0.46248247  1
  O  O426  1  0.76629208  0.41652629  0.71297272  1
  O  O427  1  0.76489118  0.41663574  0.96119108  1
  O  O428  1  0.76826547  0.74911109  0.21019297  1
  O  O429  1  0.76810766  0.75038407  0.46283406  1
  O  O430  1  0.76629144  0.74935038  0.71248703  1
  O  O431  1  0.76845879  0.75070111  0.95994113  1
  O  O432  1  0.01487466  0.08337982  0.16337464  1
  O  O433  1  0.01558008  0.08386044  0.41564318  1
  O  O434  1  0.01726668  0.08287313  0.66219933  1
  O  O435  1  0.01735629  0.08387353  0.91532485  1
  O  O436  1  0.01692300  0.41688285  0.16531454  1
  O  O437  1  0.01399117  0.41609584  0.41361082  1
  O  O438  1  0.01468335  0.41673575  0.66340965  1
  O  O439  1  0.01619169  0.41666509  0.91219410  1
  O  O440  1  0.01403251  0.74930977  0.16431189  1
  O  O441  1  0.01432604  0.75004708  0.41348807  1
  O  O442  1  0.01626693  0.75026107  0.66312443  1
  O  O443  1  0.01574750  0.74969025  0.91240585  1
  O  O444  1  0.51590377  0.08392316  0.16290397  1
  O  O445  1  0.51545418  0.08359069  0.41694760  1
  O  O446  1  0.51564606  0.08392508  0.66207081  1
  O  O447  1  0.51814621  0.08324729  0.91472664  1
  O  O448  1  0.51768741  0.41631696  0.16242730  1
  O  O449  1  0.51706575  0.41616355  0.41517324  1
  O  O450  1  0.51815388  0.41656942  0.66503980  1
  O  O451  1  0.51732473  0.41650158  0.91291177  1
  O  O452  1  0.51564589  0.74984242  0.16252373  1
  O  O453  1  0.51591686  0.74943497  0.41638693  1
  O  O454  1  0.51722191  0.74987142  0.66185910  1
  O  O455  1  0.51847195  0.74997418  0.91461240  1
  O  O456  1  0.48615968  0.25033660  0.08640206  1
  O  O457  1  0.48380870  0.24988582  0.33695248  1
  O  O458  1  0.48600529  0.25066054  0.58687312  1
  O  O459  1  0.48416896  0.25001520  0.83684758  1
  O  O460  1  0.48552090  0.58280518  0.08643730  1
  O  O461  1  0.48462302  0.58315687  0.33404424  1
  O  O462  1  0.48569451  0.58282114  0.58713438  1
  O  O463  1  0.48491534  0.58371702  0.83429489  1
  O  O464  1  0.48370816  0.91634416  0.08478654  1
  O  O465  1  0.48307015  0.91693864  0.33513938  1
  O  O466  1  0.48494701  0.91575829  0.58696415  1
  O  O467  1  0.48316146  0.91687815  0.83448553  1
  O  O468  1  0.98433343  0.25111736  0.08668510  1
  O  O469  1  0.98292789  0.25004122  0.33726093  1
  O  O470  1  0.98441657  0.25001919  0.58481818  1
  O  O471  1  0.98198789  0.24989713  0.83476478  1
  O  O472  1  0.98183221  0.58297389  0.08449913  1
  O  O473  1  0.98364551  0.58285537  0.33756518  1
  O  O474  1  0.98375516  0.58367822  0.58406189  1
  O  O475  1  0.98282468  0.58301644  0.83686517  1
  O  O476  1  0.98120955  0.91601171  0.08490875  1
  O  O477  1  0.98390720  0.91696578  0.33751787  1
  O  O478  1  0.98282372  0.91650517  0.58472281  1
  O  O479  1  0.98335844  0.91706422  0.83453905  1
  O  O480  1  0.08782070  0.31651468  0.07831484  1
  O  O481  1  0.08687350  0.31475449  0.32696520  1
  O  O482  1  0.08850297  0.31446933  0.57654645  1
  O  O483  1  0.08572950  0.31526105  0.82739171  1
  O  O484  1  0.08613311  0.64717823  0.07612530  1
  O  O485  1  0.08676560  0.64841346  0.32762203  1
  O  O486  1  0.08747264  0.64944927  0.57749965  1
  O  O487  1  0.08644014  0.64816263  0.82813165  1
  O  O488  1  0.08518954  0.98120814  0.07685065  1
  O  O489  1  0.08726065  0.98206506  0.32775701  1
  O  O490  1  0.08711397  0.98120758  0.57684845  1
  O  O491  1  0.08718908  0.98208924  0.82844863  1
  O  O492  1  0.58960957  0.31621349  0.07743904  1
  O  O493  1  0.58788072  0.31449929  0.32720716  1
  O  O494  1  0.58939540  0.31676163  0.57808298  1
  O  O495  1  0.58811739  0.31477507  0.82789083  1
  O  O496  1  0.58921768  0.64751230  0.07749335  1
  O  O497  1  0.58860109  0.64852807  0.32671432  1
  O  O498  1  0.58914328  0.64817547  0.57849038  1
  O  O499  1  0.58904435  0.64868336  0.82752509  1
  O  O500  1  0.58725140  0.98169523  0.07692518  1
  O  O501  1  0.58697861  0.98180657  0.32765762  1
  O  O502  1  0.58828265  0.98084948  0.57746388  1
  O  O503  1  0.58738517  0.98172167  0.82696099  1
  O  O504  1  0.41239833  0.01858744  0.17209637  1
  O  O505  1  0.41069909  0.02003958  0.42358315  1
  O  O506  1  0.41230567  0.01852714  0.67234807  1
  O  O507  1  0.41386200  0.01841776  0.92221484  1
  O  O508  1  0.41400763  0.35165035  0.17224625  1
  O  O509  1  0.41343928  0.35044115  0.42249236  1
  O  O510  1  0.41410982  0.35165466  0.67397860  1
  O  O511  1  0.41359890  0.35097624  0.92288465  1
  O  O512  1  0.41241327  0.68427662  0.17217203  1
  O  O513  1  0.41182190  0.68447661  0.42376417  1
  O  O514  1  0.41395297  0.68439915  0.67296214  1
  O  O515  1  0.41397783  0.68584263  0.92338443  1
  O  O516  1  0.91164308  0.01742670  0.17129981  1
  O  O517  1  0.91120458  0.02005206  0.42353287  1
  O  O518  1  0.91374344  0.01736476  0.67213305  1
  O  O519  1  0.91269065  0.01991769  0.92273036  1
  O  O520  1  0.91238824  0.35294133  0.17347147  1
  O  O521  1  0.91064481  0.35007336  0.42236053  1
  O  O522  1  0.91086011  0.35170183  0.67292612  1
  O  O523  1  0.91291648  0.35097690  0.92192302  1
  O  O524  1  0.91029548  0.68429767  0.17160807  1
  O  O525  1  0.91085393  0.68452785  0.42327301  1
  O  O526  1  0.91211327  0.68622963  0.67321025  1
  O  O527  1  0.91217728  0.68405844  0.92178038  1
  O  O528  1  0.16237348  0.01964421  0.20174815  1
  O  O529  1  0.16252111  0.01807814  0.45362126  1
  O  O530  1  0.16108130  0.01857605  0.70249827  1
  O  O531  1  0.16359565  0.01863378  0.95140339  1
  O  O532  1  0.16196576  0.34969109  0.20193931  1
  O  O533  1  0.16196124  0.35162938  0.45302929  1
  O  O534  1  0.16358388  0.35112245  0.70294075  1
  O  O535  1  0.16179325  0.35280742  0.95157668  1
  O  O536  1  0.16201237  0.68488359  0.20198306  1
  O  O537  1  0.16241169  0.68487751  0.45371977  1
  O  O538  1  0.16054652  0.68489331  0.70245869  1
  O  O539  1  0.16263481  0.68366077  0.95188543  1
  O  O540  1  0.66294165  0.01921644  0.20231352  1
  O  O541  1  0.66483233  0.01902632  0.45232298  1
  O  O542  1  0.66187609  0.01827726  0.70312928  1
  O  O543  1  0.66317572  0.01872201  0.95131032  1
  O  O544  1  0.66315862  0.35153087  0.20217869  1
  O  O545  1  0.66384598  0.35055050  0.45336445  1
  O  O546  1  0.66238216  0.35184549  0.70322315  1
  O  O547  1  0.66135894  0.35065758  0.95254254  1
  O  O548  1  0.66458505  0.68391860  0.20235686  1
  O  O549  1  0.66460100  0.68515957  0.45277228  1
  O  O550  1  0.66244015  0.68446763  0.70310895  1
  O  O551  1  0.66451258  0.68550255  0.95103929  1
  O  O552  1  0.33899228  0.31573311  0.04595935  1
  O  O553  1  0.33638159  0.31558762  0.29837686  1
  O  O554  1  0.33693713  0.31447752  0.54757181  1
  O  O555  1  0.33902936  0.31621366  0.79806814  1
  O  O556  1  0.33605159  0.64821215  0.04677725  1
  O  O557  1  0.33660653  0.64781606  0.29762820  1
  O  O558  1  0.33560662  0.64916382  0.54812474  1
  O  O559  1  0.33749691  0.64736615  0.79812799  1
  O  O560  1  0.33860087  0.98161406  0.04564851  1
  O  O561  1  0.33651675  0.98209912  0.29756038  1
  O  O562  1  0.33580581  0.98164820  0.54802147  1
  O  O563  1  0.33823774  0.98141547  0.79830598  1
  O  O564  1  0.83671159  0.31405726  0.04700344  1
  O  O565  1  0.83640272  0.31686547  0.29753502  1
  O  O566  1  0.83721640  0.31482997  0.54749968  1
  O  O567  1  0.83631315  0.31594603  0.79847070  1
  O  O568  1  0.83909840  0.64938981  0.04626413  1
  O  O569  1  0.83739979  0.64733815  0.29652503  1
  O  O570  1  0.83736056  0.64837327  0.54792908  1
  O  O571  1  0.83741059  0.64814202  0.79782375  1
  O  O572  1  0.83837443  0.98242574  0.04667010  1
  O  O573  1  0.83885082  0.98083682  0.29691258  1
  O  O574  1  0.83873626  0.98241785  0.54843174  1
  O  O575  1  0.83668724  0.98099428  0.79706497  1
  O  O576  1  0.41242597  0.14874593  0.17213346  1
  O  O577  1  0.41201440  0.15018258  0.42315230  1
  O  O578  1  0.41217828  0.14871261  0.67218473  1
  O  O579  1  0.41420210  0.14851454  0.92284989  1
  O  O580  1  0.41419263  0.48164999  0.17255646  1
  O  O581  1  0.41321040  0.48072118  0.42275855  1
  O  O582  1  0.41407442  0.48158675  0.67406312  1
  O  O583  1  0.41329080  0.48101644  0.92346656  1
  O  O584  1  0.41192044  0.81447384  0.17192021  1
  O  O585  1  0.41178989  0.81458065  0.42390266  1
  O  O586  1  0.41340537  0.81444263  0.67286757  1
  O  O587  1  0.41449122  0.81585243  0.92239486  1
  O  O588  1  0.91124928  0.14790087  0.17201335  1
  O  O589  1  0.91206980  0.15005504  0.42338871  1
  O  O590  1  0.91352506  0.14744180  0.67266169  1
  O  O591  1  0.91350113  0.14989445  0.92273736  1
  O  O592  1  0.91324510  0.48293503  0.17280432  1
  O  O593  1  0.90990722  0.48015496  0.42303299  1
  O  O594  1  0.91088707  0.48163899  0.67293056  1
  O  O595  1  0.91231683  0.48112795  0.92164664  1
  O  O596  1  0.91036699  0.81465930  0.17184271  1
  O  O597  1  0.91046300  0.81452566  0.42290031  1
  O  O598  1  0.91270853  0.81623644  0.67251238  1
  O  O599  1  0.91177749  0.81412974  0.92207788  1
  O  O600  1  0.08807559  0.18639279  0.07751165  1
  O  O601  1  0.08669818  0.18488018  0.32696151  1
  O  O602  1  0.08820023  0.18434029  0.57726937  1
  O  O603  1  0.08607649  0.18503002  0.82811143  1
  O  O604  1  0.08570225  0.51715595  0.07676479  1
  O  O605  1  0.08722339  0.51823243  0.32801467  1
  O  O606  1  0.08797320  0.51927247  0.57680135  1
  O  O607  1  0.08644203  0.51789268  0.82787624  1
  O  O608  1  0.08514717  0.85116457  0.07698110  1
  O  O609  1  0.08713486  0.85170159  0.32749352  1
  O  O610  1  0.08662276  0.85112730  0.57694766  1
  O  O611  1  0.08690930  0.85164726  0.82800625  1
  O  O612  1  0.59022537  0.18621233  0.07691083  1
  O  O613  1  0.58751974  0.18457368  0.32739112  1
  O  O614  1  0.59015149  0.18668885  0.57720143  1
  O  O615  1  0.58780209  0.18461991  0.82762489  1
  O  O616  1  0.58905188  0.51737740  0.07813809  1
  O  O617  1  0.58893813  0.51852707  0.32673893  1
  O  O618  1  0.58915506  0.51768394  0.57889667  1
  O  O619  1  0.58890099  0.51852168  0.82756029  1
  O  O620  1  0.58762387  0.85160133  0.07694567  1
  O  O621  1  0.58671719  0.85148311  0.32745308  1
  O  O622  1  0.58862373  0.85050491  0.57798941  1
  O  O623  1  0.58724541  0.85152933  0.82690672  1
  O  O624  1  0.33885840  0.18515360  0.04609325  1
  O  O625  1  0.33690397  0.18570586  0.29832790  1
  O  O626  1  0.33636245  0.18428995  0.54740307  1
  O  O627  1  0.33941886  0.18620209  0.79837535  1
  O  O628  1  0.33587685  0.51788700  0.04721585  1
  O  O629  1  0.33644815  0.51768116  0.29765019  1
  O  O630  1  0.33626865  0.51897488  0.54801030  1
  O  O631  1  0.33745828  0.51717560  0.79774919  1
  O  O632  1  0.33820601  0.85092071  0.04546892  1
  O  O633  1  0.33669006  0.85191980  0.29776708  1
  O  O634  1  0.33562880  0.85138279  0.54818143  1
  O  O635  1  0.33824221  0.85143588  0.79838772  1
  O  O636  1  0.83645086  0.18388156  0.04630489  1
  O  O637  1  0.83721435  0.18700231  0.29837418  1
  O  O638  1  0.83689148  0.18459846  0.54782534  1
  O  O639  1  0.83672938  0.18602698  0.79860502  1
  O  O640  1  0.83970938  0.51921170  0.04728975  1
  O  O641  1  0.83681198  0.51717614  0.29640953  1
  O  O642  1  0.83777072  0.51809650  0.54761181  1
  O  O643  1  0.83681229  0.51807656  0.79827787  1
  O  O644  1  0.83890128  0.85212406  0.04677512  1
  O  O645  1  0.83841835  0.85057284  0.29641353  1
  O  O646  1  0.83904870  0.85221466  0.54838562  1
  O  O647  1  0.83690798  0.85084059  0.79645106  1
  O  O648  1  0.16230448  0.14995652  0.20262993  1
  O  O649  1  0.16258560  0.14837651  0.45352001  1
  O  O650  1  0.16109562  0.14861433  0.70261166  1
  O  O651  1  0.16396751  0.14856430  0.95102481  1
  O  O652  1  0.16038685  0.47978111  0.20131538  1
  O  O653  1  0.16197108  0.48192921  0.45328024  1
  O  O654  1  0.16328982  0.48106986  0.70291297  1
  O  O655  1  0.16213124  0.48284428  0.95220276  1
  O  O656  1  0.16220426  0.81504432  0.20161350  1
  O  O657  1  0.16239675  0.81523558  0.45361693  1
  O  O658  1  0.16074812  0.81482466  0.70240424  1
  O  O659  1  0.16235773  0.81374475  0.95134125  1
  O  O660  1  0.66268005  0.14959398  0.20325383  1
  O  O661  1  0.66471802  0.14915796  0.45280706  1
  O  O662  1  0.66138634  0.14872602  0.70387911  1
  O  O663  1  0.66329614  0.14861034  0.95152456  1
  O  O664  1  0.66341415  0.48161888  0.20171469  1
  O  O665  1  0.66332245  0.48059919  0.45296030  1
  O  O666  1  0.66286033  0.48209172  0.70325738  1
  O  O667  1  0.66075565  0.48064884  0.95204532  1
  O  O668  1  0.66457344  0.81413828  0.20199314  1
  O  O669  1  0.66457048  0.81527145  0.45266054  1
  O  O670  1  0.66249228  0.81462453  0.70229529  1
  O  O671  1  0.66420624  0.81535731  0.95130466  1
