# generated using pymatgen
data_Na2MnFe(PO4)2
_symmetry_space_group_name_H-M   'P 1'
_cell_length_a   21.08787026
_cell_length_b   18.94047320
_cell_length_c   20.04630891
_cell_angle_alpha   90.00007476
_cell_angle_beta   90.00144143
_cell_angle_gamma   90.00077433
_symmetry_Int_Tables_number   1
_chemical_formula_structural   Na2MnFe(PO4)2
_chemical_formula_sum   'Na96 Mn48 Fe48 P96 O384'
_cell_volume   8006.78126788
_cell_formula_units_Z   48
loop_
 _symmetry_equiv_pos_site_id
 _symmetry_equiv_pos_as_xyz
  1  'x, y, z'
loop_
 _atom_site_type_symbol
 _atom_site_label
 _atom_site_symmetry_multiplicity
 _atom_site_fract_x
 _atom_site_fract_y
 _atom_site_fract_z
 _atom_site_occupancy
  Na  Na0  1  0.00005793  -0.00084789  -0.00050130  1
  Na  Na1  1  -0.00027649  -0.00110410  0.24959390  1
  Na  Na2  1  -0.00154136  -0.00139856  0.50061397  1
  Na  Na3  1  -0.00139909  -0.00135516  0.75018548  1
  Na  Na4  1  0.00061029  0.33385319  -0.00097608  1
  Na  Na5  1  -0.00062009  0.33298239  0.25046727  1
  Na  Na6  1  -0.00021059  0.33299616  0.50005593  1
  Na  Na7  1  0.00102494  0.33398827  0.75092107  1
  Na  Na8  1  0.00206073  0.66694341  0.00069141  1
  Na  Na9  1  0.00079312  0.66667038  0.24979358  1
  Na  Na10  1  0.00001949  0.66593447  0.50044635  1
  Na  Na11  1  0.00239340  0.66754634  0.74974093  1
  Na  Na12  1  0.50028838  -0.00019132  -0.00084917  1
  Na  Na13  1  0.49887041  -0.00089931  0.25105192  1
  Na  Na14  1  0.49849798  -0.00156886  0.50127199  1
  Na  Na15  1  0.50119913  -0.00012431  0.74884270  1
  Na  Na16  1  0.50015554  0.33393136  -0.00001358  1
  Na  Na17  1  0.49781918  0.33310943  0.25159640  1
  Na  Na18  1  0.50040451  0.33408713  0.49934226  1
  Na  Na19  1  0.50233426  0.33466777  0.74875814  1
  Na  Na20  1  0.49796769  0.66651227  -0.00050792  1
  Na  Na21  1  0.49678960  0.66606877  0.25064687  1
  Na  Na22  1  0.50052907  0.66776371  0.50009683  1
  Na  Na23  1  0.50065122  0.66731324  0.74939893  1
  Na  Na24  1  0.24909649  -0.00151545  0.12530968  1
  Na  Na25  1  0.25229877  -0.00009776  0.37538167  1
  Na  Na26  1  0.25190165  0.00004009  0.62428063  1
  Na  Na27  1  0.24869856  -0.00127506  0.87402681  1
  Na  Na28  1  0.25140316  0.33393847  0.12526879  1
  Na  Na29  1  0.25118213  0.33407819  0.37514181  1
  Na  Na30  1  0.24790635  0.33343946  0.62584428  1
  Na  Na31  1  0.24627547  0.33242842  0.87455462  1
  Na  Na32  1  0.24983773  0.66638456  0.12523354  1
  Na  Na33  1  0.25168361  0.66755743  0.37539063  1
  Na  Na34  1  0.24801163  0.66638644  0.62480773  1
  Na  Na35  1  0.24724435  0.66639089  0.87439168  1
  Na  Na36  1  0.75065951  -0.00049828  0.12422700  1
  Na  Na37  1  0.75056393  -0.00062870  0.37436173  1
  Na  Na38  1  0.75142663  -0.00119978  0.62454367  1
  Na  Na39  1  0.75159873  -0.00062336  0.87636489  1
  Na  Na40  1  0.75050136  0.33439300  0.12501190  1
  Na  Na41  1  0.74850350  0.33329720  0.37463419  1
  Na  Na42  1  0.74985166  0.33367846  0.62550931  1
  Na  Na43  1  0.75057574  0.33398320  0.87501486  1
  Na  Na44  1  0.75112484  0.66700351  0.12620560  1
  Na  Na45  1  0.74955622  0.66726781  0.37532518  1
  Na  Na46  1  0.74828350  0.66645725  0.62401763  1
  Na  Na47  1  0.75099810  0.66691887  0.87469919  1
  Na  Na48  1  0.00055221  0.16656643  -0.00157178  1
  Na  Na49  1  0.00008295  0.16708435  0.25082094  1
  Na  Na50  1  -0.00018907  0.16696595  0.50026772  1
  Na  Na51  1  -0.00096818  0.16755738  0.75041032  1
  Na  Na52  1  0.00151731  0.49981783  0.00040032  1
  Na  Na53  1  0.00039636  0.50070184  0.24946536  1
  Na  Na54  1  0.00235716  0.49969764  0.50076055  1
  Na  Na55  1  0.00173245  0.49977153  0.75060600  1
  Na  Na56  1  0.00006349  0.83395753  0.00049265  1
  Na  Na57  1  -0.00058342  0.83355383  0.24946786  1
  Na  Na58  1  -0.00226025  0.83402746  0.50043497  1
  Na  Na59  1  0.00083150  0.83264103  0.74953525  1
  Na  Na60  1  0.49984756  0.16687370  -0.00042950  1
  Na  Na61  1  0.49920587  0.16688593  0.25123515  1
  Na  Na62  1  0.50108279  0.16616067  0.50031091  1
  Na  Na63  1  0.50056151  0.16662401  0.74889726  1
  Na  Na64  1  0.49979574  0.49965370  0.00006666  1
  Na  Na65  1  0.49753292  0.50089409  0.25133129  1
  Na  Na66  1  0.49983263  0.49993268  0.49993272  1
  Na  Na67  1  0.50211746  0.49903059  0.74878143  1
  Na  Na68  1  0.49852356  0.83357622  -0.00113506  1
  Na  Na69  1  0.49728617  0.83368858  0.25081783  1
  Na  Na70  1  0.49913993  0.83332343  0.50051666  1
  Na  Na71  1  0.50116636  0.83280594  0.74923793  1
  Na  Na72  1  0.25030394  0.16652933  0.12543744  1
  Na  Na73  1  0.25041050  0.16705035  0.37422935  1
  Na  Na74  1  0.24878541  0.16725498  0.62538202  1
  Na  Na75  1  0.24744096  0.16749924  0.87480682  1
  Na  Na76  1  0.24975026  0.50067828  0.12485484  1
  Na  Na77  1  0.25153927  0.50010121  0.37585520  1
  Na  Na78  1  0.24711815  0.50080273  0.62493447  1
  Na  Na79  1  0.24668035  0.50097334  0.87420811  1
  Na  Na80  1  0.25131093  0.83299253  0.12534412  1
  Na  Na81  1  0.25181187  0.83311286  0.37602432  1
  Na  Na82  1  0.25108249  0.83283045  0.62474530  1
  Na  Na83  1  0.24823021  0.83395595  0.87403654  1
  Na  Na84  1  0.74962226  0.16720700  0.12497911  1
  Na  Na85  1  0.74880475  0.16725208  0.37406215  1
  Na  Na86  1  0.75144355  0.16636966  0.62548166  1
  Na  Na87  1  0.75195401  0.16614916  0.87561859  1
  Na  Na88  1  0.74959007  0.49995224  0.12482542  1
  Na  Na89  1  0.74982146  0.49985947  0.37568242  1
  Na  Na90  1  0.74912391  0.50053489  0.62443043  1
  Na  Na91  1  0.75040449  0.49923031  0.87552958  1
  Na  Na92  1  0.75236373  0.83256571  0.12580423  1
  Na  Na93  1  0.74971906  0.83325896  0.37455924  1
  Na  Na94  1  0.74933862  0.83377828  0.62419291  1
  Na  Na95  1  0.75138502  0.83334058  0.87480368  1
  Mn  Mn96  1  0.64186927  0.25036170  0.99837634  1
  Mn  Mn97  1  0.64112804  0.58334927  0.24788202  1
  Mn  Mn98  1  0.10748931  0.08284775  0.87224514  1
  Mn  Mn99  1  0.85746640  0.41721553  0.50255430  1
  Mn  Mn100  1  0.85809929  0.74951044  0.25295390  1
  Mn  Mn101  1  0.10830668  0.08231364  0.37332749  1
  Mn  Mn102  1  0.89202619  0.25013313  0.37774546  1
  Mn  Mn103  1  0.10860842  0.75050220  0.12315606  1
  Mn  Mn104  1  0.35729360  0.41655966  0.00128226  1
  Mn  Mn105  1  0.10819548  0.08369293  0.12278281  1
  Mn  Mn106  1  0.85830470  0.08354065  0.00347878  1
  Mn  Mn107  1  0.85777582  0.08311383  0.50216003  1
  Mn  Mn108  1  0.10838983  0.41694558  0.37268715  1
  Mn  Mn109  1  0.35681503  0.41708027  0.75204993  1
  Mn  Mn110  1  0.39164009  0.25037641  0.87656804  1
  Mn  Mn111  1  0.10775793  0.75039479  0.37334453  1
  Mn  Mn112  1  0.39230266  0.25001602  0.62707187  1
  Mn  Mn113  1  0.60655266  0.41756465  0.37293648  1
  Mn  Mn114  1  0.14298286  0.91694360  0.49787902  1
  Mn  Mn115  1  0.35682271  0.75005079  0.00143301  1
  Mn  Mn116  1  0.64262001  0.91586211  0.99858966  1
  Mn  Mn117  1  0.64130028  0.25012613  0.24685371  1
  Mn  Mn118  1  0.64242902  0.58396324  0.74776123  1
  Mn  Mn119  1  0.39206764  0.91693621  0.87607276  1
  Mn  Mn120  1  0.60866458  0.08366524  0.87220273  1
  Mn  Mn121  1  0.64159550  0.91663217  0.24750569  1
  Mn  Mn122  1  0.89294698  0.25026966  0.87762336  1
  Mn  Mn123  1  0.14269249  0.25016241  0.24722781  1
  Mn  Mn124  1  0.64169707  0.58370820  0.99856169  1
  Mn  Mn125  1  0.89283856  0.58289705  0.62706971  1
  Mn  Mn126  1  0.39246135  0.58363672  0.62734040  1
  Mn  Mn127  1  0.35747524  0.08330314  0.00190534  1
  Mn  Mn128  1  0.60844133  0.74962273  0.87292746  1
  Mn  Mn129  1  0.85771309  0.41719563  0.25217916  1
  Mn  Mn130  1  0.35842084  0.08295210  0.25211559  1
  Mn  Mn131  1  0.60869664  0.08312173  0.62223132  1
  Mn  Mn132  1  0.64327412  0.24920029  0.74768227  1
  Mn  Mn133  1  0.39148192  0.58267050  0.87611249  1
  Mn  Mn134  1  0.85823052  0.74963465  0.75189071  1
  Mn  Mn135  1  0.60743787  0.08238579  0.37313702  1
  Mn  Mn136  1  0.60657097  0.74992584  0.12256791  1
  Mn  Mn137  1  0.89284984  0.58308896  0.12741989  1
  Mn  Mn138  1  0.89322143  0.58418865  0.87725116  1
  Mn  Mn139  1  0.10704931  0.08322501  0.62229733  1
  Mn  Mn140  1  0.39181008  0.24970516  0.37873763  1
  Mn  Mn141  1  0.35719302  0.08345258  0.75245457  1
  Mn  Mn142  1  0.10853078  0.41591241  0.12300492  1
  Mn  Mn143  1  0.85789832  0.08358394  0.25192981  1
  Fe  Fe144  1  0.39241140  0.91626861  0.37757761  1
  Fe  Fe145  1  0.39360356  0.91631309  0.62715190  1
  Fe  Fe146  1  0.64389513  0.91671063  0.74850080  1
  Fe  Fe147  1  0.60731380  0.74996056  0.62272720  1
  Fe  Fe148  1  0.85788215  0.08327388  0.75148275  1
  Fe  Fe149  1  0.85766094  0.41723926  0.00209180  1
  Fe  Fe150  1  0.14334869  0.58339124  0.49760660  1
  Fe  Fe151  1  0.35747226  0.74976135  0.50278888  1
  Fe  Fe152  1  0.39120748  0.58309560  0.12662004  1
  Fe  Fe153  1  0.14226492  0.91652164  0.99813785  1
  Fe  Fe154  1  0.89358000  0.91726230  0.12680789  1
  Fe  Fe155  1  0.14223655  0.24995308  0.99895884  1
  Fe  Fe156  1  0.39171746  0.91695206  0.12648262  1
  Fe  Fe157  1  0.14259078  0.58340142  0.99815686  1
  Fe  Fe158  1  0.89296979  0.58375118  0.37706494  1
  Fe  Fe159  1  0.89341013  0.91565511  0.87664763  1
  Fe  Fe160  1  0.39217729  0.25009331  0.12597710  1
  Fe  Fe161  1  0.60591727  0.75006788  0.37362898  1
  Fe  Fe162  1  0.64293993  0.91653305  0.49800802  1
  Fe  Fe163  1  0.10688828  0.41662873  0.62319174  1
  Fe  Fe164  1  0.14220179  0.91656430  0.74725326  1
  Fe  Fe165  1  0.14164058  0.24960096  0.74713659  1
  Fe  Fe166  1  0.35624470  0.41658053  0.50277887  1
  Fe  Fe167  1  0.14327773  0.91610964  0.24883410  1
  Fe  Fe168  1  0.35764037  0.41734616  0.25129939  1
  Fe  Fe169  1  0.35624407  0.74978375  0.75108760  1
  Fe  Fe170  1  0.14260925  0.25006574  0.49880633  1
  Fe  Fe171  1  0.14378297  0.58389494  0.24924846  1
  Fe  Fe172  1  0.35735379  0.74970907  0.25177935  1
  Fe  Fe173  1  0.89254558  0.91592641  0.37651038  1
  Fe  Fe174  1  0.89292807  0.24969403  0.12629550  1
  Fe  Fe175  1  0.85769037  0.41676813  0.75163237  1
  Fe  Fe176  1  0.10748031  0.75025202  0.87296035  1
  Fe  Fe177  1  0.85632651  0.74967666  0.50139912  1
  Fe  Fe178  1  0.60811530  0.41666727  0.87334521  1
  Fe  Fe179  1  0.60816399  0.41705440  0.62266447  1
  Fe  Fe180  1  0.60656645  0.08337981  0.12373356  1
  Fe  Fe181  1  0.64242348  0.58391395  0.49762746  1
  Fe  Fe182  1  0.39190310  0.58402118  0.37800818  1
  Fe  Fe183  1  0.85873560  0.74905379  0.00164526  1
  Fe  Fe184  1  0.10716315  0.41722765  0.87334839  1
  Fe  Fe185  1  0.10731808  0.75015087  0.62252854  1
  Fe  Fe186  1  0.89258058  0.25014882  0.62667524  1
  Fe  Fe187  1  0.64303352  0.24980279  0.49898063  1
  Fe  Fe188  1  0.89227827  0.91643333  0.62700141  1
  Fe  Fe189  1  0.35751163  0.08393593  0.50224731  1
  Fe  Fe190  1  0.60584774  0.41663491  0.12373869  1
  Fe  Fe191  1  0.14196369  0.58370916  0.74772680  1
  P  P192  1  0.05253674  0.24994029  0.10915691  1
  P  P193  1  0.05496410  0.24994002  0.36116012  1
  P  P194  1  0.05340672  0.25071009  0.61060605  1
  P  P195  1  0.05557436  0.25071802  0.86055247  1
  P  P196  1  0.05610790  0.58335726  0.11098868  1
  P  P197  1  0.05431002  0.58378831  0.36055846  1
  P  P198  1  0.05581110  0.58341971  0.61058030  1
  P  P199  1  0.05561291  0.58380975  0.86086337  1
  P  P200  1  0.05445008  0.91669907  0.11066435  1
  P  P201  1  0.05277011  0.91601369  0.35968694  1
  P  P202  1  0.05315831  0.91589886  0.61093887  1
  P  P203  1  0.05420562  0.91564624  0.86028379  1
  P  P204  1  0.55139449  0.25034152  0.11050804  1
  P  P205  1  0.55439420  0.24991266  0.36156538  1
  P  P206  1  0.55451794  0.25075137  0.60917545  1
  P  P207  1  0.55352614  0.25101354  0.85946980  1
  P  P208  1  0.55073847  0.58282718  0.11051829  1
  P  P209  1  0.55249009  0.58472850  0.36156883  1
  P  P210  1  0.55444252  0.58377521  0.60918610  1
  P  P211  1  0.55325323  0.58252457  0.85976952  1
  P  P212  1  0.55122577  0.91691141  0.11011759  1
  P  P213  1  0.55301183  0.91536379  0.36180449  1
  P  P214  1  0.55494445  0.91565703  0.61074129  1
  P  P215  1  0.55451607  0.91645102  0.85879093  1
  P  P216  1  0.44746564  0.08334636  0.13967434  1
  P  P217  1  0.44583779  0.08220468  0.39138563  1
  P  P218  1  0.44570278  0.08273353  0.63890180  1
  P  P219  1  0.44693845  0.08341681  0.88956517  1
  P  P220  1  0.44633487  0.41670437  0.14038659  1
  P  P221  1  0.44356369  0.41792333  0.39004527  1
  P  P222  1  0.44661650  0.41682064  0.63862686  1
  P  P223  1  0.44788861  0.41673257  0.88945374  1
  P  P224  1  0.44484183  0.75006770  0.14023562  1
  P  P225  1  0.44472175  0.74992940  0.38990862  1
  P  P226  1  0.44592230  0.75053492  0.63940227  1
  P  P227  1  0.44521823  0.74981466  0.88809167  1
  P  P228  1  0.94716446  0.08367662  0.13986212  1
  P  P229  1  0.94688337  0.08217184  0.39018417  1
  P  P230  1  0.94568853  0.08332012  0.64050769  1
  P  P231  1  0.94526344  0.08213895  0.88866516  1
  P  P232  1  0.94609054  0.41573013  0.13895866  1
  P  P233  1  0.94686084  0.41806646  0.39033919  1
  P  P234  1  0.94736583  0.41622567  0.64059769  1
  P  P235  1  0.94647882  0.41737961  0.88943272  1
  P  P236  1  0.94607590  0.75047959  0.13908760  1
  P  P237  1  0.94601874  0.74959518  0.39086416  1
  P  P238  1  0.94659098  0.74998736  0.63848696  1
  P  P239  1  0.94806505  0.75049657  0.89034623  1
  P  P240  1  0.19705093  0.08193867  0.23534631  1
  P  P241  1  0.19822184  0.08386663  0.48522216  1
  P  P242  1  0.19588676  0.08272552  0.73442661  1
  P  P243  1  0.19629172  0.08296265  0.98490516  1
  P  P244  1  0.19837955  0.41787276  0.23542701  1
  P  P245  1  0.19607136  0.41666407  0.48654785  1
  P  P246  1  0.19382123  0.41691178  0.73549273  1
  P  P247  1  0.19577780  0.41665753  0.98457223  1
  P  P248  1  0.19805763  0.75026831  0.23599462  1
  P  P249  1  0.19687578  0.74977833  0.48634014  1
  P  P250  1  0.19498273  0.75040264  0.73505246  1
  P  P251  1  0.19564828  0.75030186  0.98448788  1
  P  P252  1  0.69576005  0.08287778  0.23382734  1
  P  P253  1  0.69695974  0.08288857  0.48495277  1
  P  P254  1  0.69876939  0.08203430  0.73507628  1
  P  P255  1  0.69558786  0.08328774  0.98644297  1
  P  P256  1  0.69524565  0.41721515  0.23418405  1
  P  P257  1  0.69504477  0.41676630  0.48611511  1
  P  P258  1  0.69648675  0.41672660  0.73545788  1
  P  P259  1  0.69576642  0.41688117  0.98599586  1
  P  P260  1  0.69504666  0.74999289  0.23611975  1
  P  P261  1  0.69510363  0.75042580  0.48536054  1
  P  P262  1  0.69643944  0.75101270  0.73401504  1
  P  P263  1  0.69858288  0.74982333  0.98538129  1
  P  P264  1  0.30201419  0.25007998  0.01505802  1
  P  P265  1  0.30519747  0.25078383  0.26386706  1
  P  P266  1  0.30190025  0.25029400  0.51550622  1
  P  P267  1  0.30116193  0.25043351  0.76476692  1
  P  P268  1  0.30210151  0.58325085  0.01473842  1
  P  P269  1  0.30440917  0.58354544  0.26459979  1
  P  P270  1  0.30348228  0.58355042  0.51440735  1
  P  P271  1  0.30130454  0.58424941  0.76414025  1
  P  P272  1  0.30221113  0.91665835  0.01483229  1
  P  P273  1  0.30453910  0.91571008  0.26476454  1
  P  P274  1  0.30589516  0.91644536  0.51473111  1
  P  P275  1  0.30301387  0.91541966  0.76303239  1
  P  P276  1  0.80420702  0.25134598  0.01565865  1
  P  P277  1  0.80412251  0.25030312  0.26394297  1
  P  P278  1  0.80276017  0.25030520  0.51566954  1
  P  P279  1  0.80552345  0.25032628  0.76388730  1
  P  P280  1  0.80385749  0.58336597  0.01501745  1
  P  P281  1  0.80367509  0.58315756  0.26636443  1
  P  P282  1  0.80310512  0.58449101  0.51366159  1
  P  P283  1  0.80381716  0.58244032  0.76476962  1
  P  P284  1  0.80610096  0.91509111  0.01465124  1
  P  P285  1  0.80511900  0.91674547  0.26447594  1
  P  P286  1  0.80424409  0.91521825  0.51390328  1
  P  P287  1  0.80489688  0.91693135  0.76442892  1
  O  O288  1  0.05644853  0.25024381  0.18593246  1
  O  O289  1  0.05967943  0.25006463  0.43793912  1
  O  O290  1  0.05787497  0.24988471  0.68734965  1
  O  O291  1  0.05960222  0.24983591  0.93729631  1
  O  O292  1  0.06071349  0.58352786  0.18776123  1
  O  O293  1  0.05950067  0.58362674  0.43728429  1
  O  O294  1  0.05926861  0.58382056  0.68745225  1
  O  O295  1  0.05902495  0.58351975  0.93768525  1
  O  O296  1  0.05953709  0.91613353  0.18729579  1
  O  O297  1  0.05703222  0.91604279  0.43639883  1
  O  O298  1  0.05815727  0.91629988  0.68757854  1
  O  O299  1  0.05869073  0.91656096  0.93699766  1
  O  O300  1  0.55435264  0.25034549  0.18725250  1
  O  O301  1  0.55925398  0.24989357  0.43822171  1
  O  O302  1  0.55778308  0.25004723  0.68595215  1
  O  O303  1  0.55631745  0.25028773  0.93623988  1
  O  O304  1  0.55434821  0.58358383  0.18719875  1
  O  O305  1  0.55791817  0.58411043  0.43815699  1
  O  O306  1  0.55726321  0.58361258  0.68597596  1
  O  O307  1  0.55589426  0.58350917  0.93655288  1
  O  O308  1  0.55483463  0.91610676  0.18683849  1
  O  O309  1  0.55813074  0.91606037  0.43842376  1
  O  O310  1  0.55998189  0.91661937  0.68733149  1
  O  O311  1  0.55762262  0.91622849  0.93559157  1
  O  O312  1  0.44418188  0.08321315  0.06296508  1
  O  O313  1  0.44300632  0.08306088  0.31457013  1
  O  O314  1  0.44110311  0.08377726  0.56220311  1
  O  O315  1  0.44335843  0.08331814  0.81275849  1
  O  O316  1  0.44315570  0.41678089  0.06364567  1
  O  O317  1  0.43974186  0.41731004  0.31326227  1
  O  O318  1  0.44060684  0.41666574  0.56204020  1
  O  O319  1  0.44365829  0.41688286  0.81275297  1
  O  O320  1  0.44222672  0.75012714  0.06339943  1
  O  O321  1  0.44036430  0.74976763  0.31321132  1
  O  O322  1  0.44110749  0.74967021  0.56268384  1
  O  O323  1  0.44066296  0.74975833  0.81136718  1
  O  O324  1  0.94480312  0.08351449  0.06302118  1
  O  O325  1  0.94404993  0.08297342  0.31345284  1
  O  O326  1  0.94306947  0.08326171  0.56368971  1
  O  O327  1  0.94137502  0.08286927  0.81194349  1
  O  O328  1  0.94218306  0.41681044  0.06219438  1
  O  O329  1  0.94382526  0.41763010  0.31356936  1
  O  O330  1  0.94340862  0.41690988  0.56388492  1
  O  O331  1  0.94166639  0.41732906  0.81277223  1
  O  O332  1  0.94252027  0.74947269  0.06236109  1
  O  O333  1  0.94377921  0.74941468  0.31402508  1
  O  O334  1  0.94115159  0.74943934  0.56196852  1
  O  O335  1  0.94426870  0.74959842  0.81361728  1
  O  O336  1  0.19405870  0.08283489  0.06170057  1
  O  O337  1  0.19424835  0.08255510  0.31210390  1
  O  O338  1  0.19394663  0.08298011  0.56188056  1
  O  O339  1  0.19294024  0.08238655  0.81118973  1
  O  O340  1  0.19397051  0.41647315  0.06140166  1
  O  O341  1  0.19490840  0.41723808  0.31213060  1
  O  O342  1  0.19119966  0.41651578  0.56318927  1
  O  O343  1  0.19016956  0.41693803  0.81225885  1
  O  O344  1  0.19371394  0.75057769  0.06132601  1
  O  O345  1  0.19457377  0.75048068  0.31263885  1
  O  O346  1  0.19164596  0.75050790  0.56293989  1
  O  O347  1  0.19082657  0.75075678  0.81176288  1
  O  O348  1  0.69021595  0.08337864  0.06312100  1
  O  O349  1  0.69242073  0.08264137  0.31063986  1
  O  O350  1  0.69477867  0.08250049  0.56178869  1
  O  O351  1  0.69534138  0.08270240  0.81181075  1
  O  O352  1  0.68989573  0.41683455  0.06259132  1
  O  O353  1  0.69165121  0.41728017  0.31098092  1
  O  O354  1  0.69164152  0.41708777  0.56294625  1
  O  O355  1  0.69200426  0.41674964  0.81218589  1
  O  O356  1  0.69400193  0.74993308  0.06206303  1
  O  O357  1  0.68999373  0.75013839  0.31279635  1
  O  O358  1  0.69092852  0.75029262  0.56208089  1
  O  O359  1  0.69384825  0.75015422  0.81081746  1
  O  O360  1  0.30940105  0.24998217  0.18709545  1
  O  O361  1  0.30546688  0.25026080  0.43874442  1
  O  O362  1  0.30587232  0.25059200  0.68814196  1
  O  O363  1  0.30543409  0.25020524  0.93834305  1
  O  O364  1  0.30826747  0.58334526  0.18781499  1
  O  O365  1  0.30785817  0.58397064  0.43768775  1
  O  O366  1  0.30551491  0.58349231  0.68751277  1
  O  O367  1  0.30569246  0.58319965  0.93804243  1
  O  O368  1  0.30880288  0.91671879  0.18801276  1
  O  O369  1  0.30936507  0.91617755  0.43786936  1
  O  O370  1  0.30846488  0.91603070  0.68646433  1
  O  O371  1  0.30617891  0.91676941  0.93814048  1
  O  O372  1  0.80891608  0.25018509  0.18729095  1
  O  O373  1  0.80614230  0.25054058  0.43889208  1
  O  O374  1  0.80911271  0.25059089  0.68712226  1
  O  O375  1  0.80743311  0.25053209  0.93882514  1
  O  O376  1  0.80747859  0.58318669  0.18960619  1
  O  O377  1  0.80821490  0.58373477  0.43711629  1
  O  O378  1  0.80675418  0.58314622  0.68798784  1
  O  O379  1  0.80699629  0.58330847  0.93826872  1
  O  O380  1  0.80987711  0.91677541  0.18775803  1
  O  O381  1  0.80881905  0.91591001  0.43723735  1
  O  O382  1  0.80924955  0.91593790  0.68761450  1
  O  O383  1  0.81001405  0.91570004  0.93783802  1
  O  O384  1  0.23198274  0.25022017  0.03983370  1
  O  O385  1  0.23520864  0.25031585  0.28812498  1
  O  O386  1  0.23187102  0.25042292  0.54020097  1
  O  O387  1  0.23084173  0.25013622  0.78827744  1
  O  O388  1  0.23200309  0.58349649  0.03913327  1
  O  O389  1  0.23415770  0.58396882  0.28900925  1
  O  O390  1  0.23316053  0.58343335  0.53820231  1
  O  O391  1  0.23110407  0.58393748  0.78813402  1
  O  O392  1  0.23204700  0.91597564  0.03904164  1
  O  O393  1  0.23432167  0.91635859  0.28902008  1
  O  O394  1  0.23579659  0.91623647  0.53894207  1
  O  O395  1  0.23255042  0.91588125  0.78634963  1
  O  O396  1  0.73438799  0.25092404  0.04038510  1
  O  O397  1  0.73398855  0.25034041  0.28766937  1
  O  O398  1  0.73277634  0.24999362  0.54030221  1
  O  O399  1  0.73572394  0.25001302  0.78889917  1
  O  O400  1  0.73426928  0.58351780  0.04056049  1
  O  O401  1  0.73375328  0.58322605  0.29068722  1
  O  O402  1  0.73266767  0.58409373  0.53707963  1
  O  O403  1  0.73425537  0.58308284  0.79012085  1
  O  O404  1  0.73604991  0.91586135  0.03898110  1
  O  O405  1  0.73489652  0.91654263  0.28797273  1
  O  O406  1  0.73381080  0.91586257  0.53742947  1
  O  O407  1  0.73463147  0.91623278  0.78835844  1
  O  O408  1  0.26662560  0.08224445  0.20992911  1
  O  O409  1  0.26830132  0.08349502  0.46085008  1
  O  O410  1  0.26554181  0.08313159  0.70924520  1
  O  O411  1  0.26558694  0.08308320  0.95855859  1
  O  O412  1  0.26827746  0.41766709  0.21049739  1
  O  O413  1  0.26641314  0.41695044  0.46279566  1
  O  O414  1  0.26382671  0.41725925  0.71097968  1
  O  O415  1  0.26515779  0.41675976  0.95829911  1
  O  O416  1  0.26794681  0.74964950  0.21096116  1
  O  O417  1  0.26733882  0.75027680  0.46314031  1
  O  O418  1  0.26528137  0.74993945  0.71093322  1
  O  O419  1  0.26510477  0.75022016  0.95853666  1
  O  O420  1  0.76554830  0.08301725  0.20915517  1
  O  O421  1  0.76635960  0.08307079  0.45891384  1
  O  O422  1  0.76865486  0.08255203  0.71015464  1
  O  O423  1  0.76588944  0.08312936  0.96321214  1
  O  O424  1  0.76515005  0.41737094  0.20991705  1
  O  O425  1  0.76493042  0.41682275  0.46135391  1
  O  O426  1  0.76682155  0.41677866  0.71161039  1
  O  O427  1  0.76638751  0.41674807  0.96314162  1
  O  O428  1  0.76532707  0.74987742  0.21287759  1
  O  O429  1  0.76543894  0.75037319  0.46142380  1
  O  O430  1  0.76611254  0.75001084  0.70876442  1
  O  O431  1  0.76864773  0.74975091  0.96099015  1
  O  O432  1  0.01655068  0.08336276  0.16584285  1
  O  O433  1  0.01637451  0.08232891  0.41601300  1
  O  O434  1  0.01531470  0.08308808  0.66593800  1
  O  O435  1  0.01525887  0.08265063  0.91297651  1
  O  O436  1  0.01598511  0.41646021  0.16370312  1
  O  O437  1  0.01653651  0.41703187  0.41548081  1
  O  O438  1  0.01757637  0.41696004  0.66463815  1
  O  O439  1  0.01700997  0.41717093  0.91263798  1
  O  O440  1  0.01598902  0.75018575  0.16381795  1
  O  O441  1  0.01560285  0.74995567  0.41645101  1
  O  O442  1  0.01703214  0.74978522  0.66189380  1
  O  O443  1  0.01815751  0.75032130  0.91469139  1
  O  O444  1  0.51719885  0.08324600  0.16535138  1
  O  O445  1  0.51553409  0.08219239  0.41641298  1
  O  O446  1  0.51591536  0.08298347  0.66260431  1
  O  O447  1  0.51664431  0.08324600  0.91436009  1
  O  O448  1  0.51619650  0.41682806  0.16580460  1
  O  O449  1  0.51373135  0.41735841  0.41378131  1
  O  O450  1  0.51732609  0.41707285  0.66097408  1
  O  O451  1  0.51781997  0.41677087  0.91411408  1
  O  O452  1  0.51438528  0.74991330  0.16596526  1
  O  O453  1  0.51502819  0.75006763  0.41384246  1
  O  O454  1  0.51647883  0.75009045  0.66240563  1
  O  O455  1  0.51519786  0.74995701  0.91240308  1
  O  O456  1  0.48154624  0.25042877  0.08504301  1
  O  O457  1  0.48408898  0.24992093  0.33822140  1
  O  O458  1  0.48470463  0.25031401  0.58433590  1
  O  O459  1  0.48409138  0.25071915  0.83350987  1
  O  O460  1  0.48069103  0.58315681  0.08577039  1
  O  O461  1  0.48197749  0.58415952  0.33852337  1
  O  O462  1  0.48464414  0.58378472  0.58422593  1
  O  O463  1  0.48387114  0.58279983  0.83364386  1
  O  O464  1  0.48120706  0.91659604  0.08526372  1
  O  O465  1  0.48255038  0.91590242  0.33844205  1
  O  O466  1  0.48438255  0.91582673  0.58760887  1
  O  O467  1  0.48473983  0.91653724  0.83384940  1
  O  O468  1  0.98270306  0.24992032  0.08430717  1
  O  O469  1  0.98484526  0.25023184  0.33750451  1
  O  O470  1  0.98301112  0.25003863  0.58693501  1
  O  O471  1  0.98539963  0.25038722  0.83678734  1
  O  O472  1  0.98598007  0.58331432  0.08726162  1
  O  O473  1  0.98394664  0.58416586  0.33716161  1
  O  O474  1  0.98575277  0.58292869  0.58635314  1
  O  O475  1  0.98576668  0.58396019  0.83598187  1
  O  O476  1  0.98405437  0.91681793  0.08724466  1
  O  O477  1  0.98257210  0.91565906  0.33576794  1
  O  O478  1  0.98265181  0.91639404  0.58771427  1
  O  O479  1  0.98383355  0.91575568  0.83656306  1
  O  O480  1  0.08679781  0.31480655  0.07651935  1
  O  O481  1  0.08842207  0.31490436  0.32775874  1
  O  O482  1  0.08651825  0.31604089  0.57767763  1
  O  O483  1  0.08876618  0.31598517  0.82777785  1
  O  O484  1  0.08963252  0.64835815  0.07778528  1
  O  O485  1  0.08797149  0.64874268  0.32736078  1
  O  O486  1  0.08933049  0.64845396  0.57737507  1
  O  O487  1  0.08942383  0.64897677  0.82814801  1
  O  O488  1  0.08769384  0.98165717  0.07714760  1
  O  O489  1  0.08655726  0.98094585  0.32676571  1
  O  O490  1  0.08633334  0.98091378  0.57733469  1
  O  O491  1  0.08758473  0.98051293  0.82651495  1
  O  O492  1  0.58539763  0.31555369  0.07820147  1
  O  O493  1  0.58736661  0.31506524  0.32816043  1
  O  O494  1  0.58852565  0.31583405  0.57687149  1
  O  O495  1  0.58791104  0.31622028  0.82774256  1
  O  O496  1  0.58471600  0.64770938  0.07741557  1
  O  O497  1  0.58522678  0.64992090  0.32810144  1
  O  O498  1  0.58848767  0.64904985  0.57696011  1
  O  O499  1  0.58777768  0.64746534  0.82739159  1
  O  O500  1  0.58522539  0.98200493  0.07787701  1
  O  O501  1  0.58637391  0.98017361  0.32807666  1
  O  O502  1  0.58828786  0.98045721  0.57675071  1
  O  O503  1  0.58885595  0.98141529  0.82629433  1
  O  O504  1  0.41330413  0.01825320  0.17214286  1
  O  O505  1  0.41152230  0.01718864  0.42328191  1
  O  O506  1  0.41256963  0.01726830  0.67159625  1
  O  O507  1  0.41281559  0.01834547  0.92196080  1
  O  O508  1  0.41225147  0.35161414  0.17282274  1
  O  O509  1  0.40979146  0.35304277  0.42341511  1
  O  O510  1  0.41380988  0.35184533  0.67251824  1
  O  O511  1  0.41399951  0.35173139  0.92221018  1
  O  O512  1  0.41035734  0.68499915  0.17243443  1
  O  O513  1  0.41124972  0.68495054  0.42340893  1
  O  O514  1  0.41235974  0.68573265  0.67302460  1
  O  O515  1  0.41166300  0.68476225  0.92116943  1
  O  O516  1  0.91264762  0.01859522  0.17178926  1
  O  O517  1  0.91273790  0.01685428  0.42203457  1
  O  O518  1  0.91122825  0.01824421  0.67259754  1
  O  O519  1  0.91208771  0.01683286  0.92138203  1
  O  O520  1  0.91281152  0.35028291  0.17147008  1
  O  O521  1  0.91221321  0.35328147  0.42276914  1
  O  O522  1  0.91388670  0.35102956  0.67327265  1
  O  O523  1  0.91303857  0.35249072  0.92286633  1
  O  O524  1  0.91230077  0.68565692  0.17240800  1
  O  O525  1  0.91176654  0.68450712  0.42325166  1
  O  O526  1  0.91369293  0.68493129  0.67236941  1
  O  O527  1  0.91418256  0.68565042  0.92360585  1
  O  O528  1  0.16300047  0.01666970  0.20344344  1
  O  O529  1  0.16458132  0.01868771  0.45228502  1
  O  O530  1  0.16207376  0.01759423  0.70176292  1
  O  O531  1  0.16188342  0.01780590  0.95282060  1
  O  O532  1  0.16441712  0.35288111  0.20257609  1
  O  O533  1  0.16305863  0.35154643  0.45313758  1
  O  O534  1  0.16021631  0.35173591  0.70252621  1
  O  O535  1  0.16109171  0.35169292  0.95266066  1
  O  O536  1  0.16381843  0.68540009  0.20347281  1
  O  O537  1  0.16399625  0.68455148  0.45303610  1
  O  O538  1  0.16123657  0.68534412  0.70215771  1
  O  O539  1  0.16119832  0.68515774  0.95262351  1
  O  O540  1  0.66162355  0.01792560  0.20121016  1
  O  O541  1  0.66277081  0.01759731  0.45284399  1
  O  O542  1  0.66500680  0.01692701  0.70252980  1
  O  O543  1  0.66252016  0.01814675  0.95314229  1
  O  O544  1  0.66126635  0.35224784  0.20141851  1
  O  O545  1  0.66149235  0.35147583  0.45365056  1
  O  O546  1  0.66295307  0.35175357  0.70225310  1
  O  O547  1  0.66263854  0.35193021  0.95213985  1
  O  O548  1  0.66185471  0.68488018  0.20279426  1
  O  O549  1  0.66140726  0.68548893  0.45204668  1
  O  O550  1  0.66144423  0.68644781  0.70145846  1
  O  O551  1  0.66469147  0.68479450  0.95260854  1
  O  O552  1  0.33622547  0.31502621  0.04758058  1
  O  O553  1  0.33839837  0.31609839  0.29660977  1
  O  O554  1  0.33571539  0.31535180  0.54821674  1
  O  O555  1  0.33436707  0.31561219  0.79786519  1
  O  O556  1  0.33609180  0.64808890  0.04761426  1
  O  O557  1  0.33808437  0.64860403  0.29764440  1
  O  O558  1  0.33669603  0.64862731  0.54775593  1
  O  O559  1  0.33473022  0.64946550  0.79672472  1
  O  O560  1  0.33566906  0.98176867  0.04795091  1
  O  O561  1  0.33869703  0.98032867  0.29812371  1
  O  O562  1  0.33949656  0.98162588  0.54739416  1
  O  O563  1  0.33625093  0.98031232  0.79681365  1
  O  O564  1  0.83826454  0.31650794  0.04772139  1
  O  O565  1  0.83749574  0.31532599  0.29731238  1
  O  O566  1  0.83678555  0.31522056  0.54851695  1
  O  O567  1  0.83899183  0.31565498  0.79669792  1
  O  O568  1  0.83820025  0.64839962  0.04729781  1
  O  O569  1  0.83782279  0.64809724  0.29907293  1
  O  O570  1  0.83607444  0.64971226  0.54700593  1
  O  O571  1  0.83826044  0.64743507  0.79713506  1
  O  O572  1  0.84012483  0.97998825  0.04784323  1
  O  O573  1  0.83855595  0.98169932  0.29780105  1
  O  O574  1  0.83800424  0.97991607  0.54754981  1
  O  O575  1  0.83819565  0.98208815  0.79731259  1
  O  O576  1  0.41345741  0.14850320  0.17204347  1
  O  O577  1  0.41163384  0.14725738  0.42407202  1
  O  O578  1  0.41225433  0.14766532  0.67234575  1
  O  O579  1  0.41296956  0.14853745  0.92194700  1
  O  O580  1  0.41206767  0.48176399  0.17288442  1
  O  O581  1  0.41029369  0.48314898  0.42294604  1
  O  O582  1  0.41371371  0.48191761  0.67230429  1
  O  O583  1  0.41388877  0.48169108  0.92222298  1
  O  O584  1  0.41058107  0.81516170  0.17256632  1
  O  O585  1  0.41128139  0.81491518  0.42315620  1
  O  O586  1  0.41269804  0.81565049  0.67255374  1
  O  O587  1  0.41162993  0.81487616  0.92112457  1
  O  O588  1  0.91303857  0.14897880  0.17181757  1
  O  O589  1  0.91258038  0.14716632  0.42267169  1
  O  O590  1  0.91158078  0.14851036  0.67268919  1
  O  O591  1  0.91153153  0.14704555  0.92186092  1
  O  O592  1  0.91215079  0.48052476  0.17222444  1
  O  O593  1  0.91343565  0.48352274  0.42282918  1
  O  O594  1  0.91335408  0.48108586  0.67367565  1
  O  O595  1  0.91341721  0.48238352  0.92300956  1
  O  O596  1  0.91251341  0.81576776  0.17152658  1
  O  O597  1  0.91131371  0.81458098  0.42279750  1
  O  O598  1  0.91350936  0.81505571  0.67197196  1
  O  O599  1  0.91409435  0.81553586  0.92271968  1
  O  O600  1  0.08668420  0.18496821  0.07661687  1
  O  O601  1  0.08820765  0.18474763  0.32811043  1
  O  O602  1  0.08718772  0.18598376  0.57703116  1
  O  O603  1  0.08905813  0.18579840  0.82694082  1
  O  O604  1  0.08961042  0.51843594  0.07770992  1
  O  O605  1  0.08767832  0.51884652  0.32705872  1
  O  O606  1  0.08963890  0.51828491  0.57795693  1
  O  O607  1  0.08935489  0.51878883  0.82792373  1
  O  O608  1  0.08770349  0.85175967  0.07698786  1
  O  O609  1  0.08666265  0.85106833  0.32670716  1
  O  O610  1  0.08621758  0.85090960  0.57741589  1
  O  O611  1  0.08757577  0.85052795  0.82725828  1
  O  O612  1  0.58552267  0.18533968  0.07807311  1
  O  O613  1  0.58753331  0.18480804  0.32825417  1
  O  O614  1  0.58893888  0.18572758  0.57675775  1
  O  O615  1  0.58802450  0.18601090  0.82702882  1
  O  O616  1  0.58459107  0.51762144  0.07824773  1
  O  O617  1  0.58562010  0.51978118  0.32784889  1
  O  O618  1  0.58876514  0.51890604  0.57667855  1
  O  O619  1  0.58760139  0.51727714  0.82806789  1
  O  O620  1  0.58510550  0.85188514  0.07711603  1
  O  O621  1  0.58574813  0.85012654  0.32833086  1
  O  O622  1  0.58792673  0.85045972  0.57734946  1
  O  O623  1  0.58878189  0.85150239  0.82632085  1
  O  O624  1  0.33602978  0.18507965  0.04771583  1
  O  O625  1  0.33889963  0.18581586  0.29710400  1
  O  O626  1  0.33573583  0.18516516  0.54798329  1
  O  O627  1  0.33472501  0.18540387  0.79769119  1
  O  O628  1  0.33584842  0.51818793  0.04756417  1
  O  O629  1  0.33778707  0.51852367  0.29777777  1
  O  O630  1  0.33671932  0.51843955  0.54756083  1
  O  O631  1  0.33487444  0.51924820  0.79733223  1
  O  O632  1  0.33644223  0.85189613  0.04760262  1
  O  O633  1  0.33770179  0.85031277  0.29756341  1
  O  O634  1  0.33970201  0.85146905  0.54775494  1
  O  O635  1  0.33581279  0.85013530  0.79636013  1
  O  O636  1  0.83852129  0.18646637  0.04841569  1
  O  O637  1  0.83744935  0.18520661  0.29728267  1
  O  O638  1  0.83710495  0.18536923  0.54801217  1
  O  O639  1  0.83932281  0.18514303  0.79644021  1
  O  O640  1  0.83792324  0.51810889  0.04732471  1
  O  O641  1  0.83778873  0.51824745  0.29906684  1
  O  O642  1  0.83649752  0.51968442  0.54751200  1
  O  O643  1  0.83778356  0.51727454  0.79692893  1
  O  O644  1  0.83957291  0.84991715  0.04737675  1
  O  O645  1  0.83871129  0.85185184  0.29792716  1
  O  O646  1  0.83727499  0.84999498  0.54727012  1
  O  O647  1  0.83876495  0.85204812  0.79775608  1
  O  O648  1  0.16283298  0.14695130  0.20284724  1
  O  O649  1  0.16454024  0.14901949  0.45283763  1
  O  O650  1  0.16157370  0.14793159  0.70247086  1
  O  O651  1  0.16170339  0.14811063  0.95321236  1
  O  O652  1  0.16444632  0.48294985  0.20325115  1
  O  O653  1  0.16294865  0.48189836  0.45322689  1
  O  O654  1  0.15995753  0.48188832  0.70255545  1
  O  O655  1  0.16118043  0.48181047  0.95272468  1
  O  O656  1  0.16447393  0.81549538  0.20319035  1
  O  O657  1  0.16363036  0.81466611  0.45264856  1
  O  O658  1  0.16162816  0.81535947  0.70141590  1
  O  O659  1  0.16121058  0.81526208  0.95217804  1
  O  O660  1  0.66146646  0.14788159  0.20145595  1
  O  O661  1  0.66256883  0.14810974  0.45333091  1
  O  O662  1  0.66455015  0.14691235  0.70236020  1
  O  O663  1  0.66274651  0.14856747  0.95297925  1
  O  O664  1  0.66108512  0.48213409  0.20153603  1
  O  O665  1  0.66127772  0.48189122  0.45322955  1
  O  O666  1  0.66283350  0.48164510  0.70217733  1
  O  O667  1  0.66274096  0.48194953  0.95233212  1
  O  O668  1  0.66193295  0.81498707  0.20252644  1
  O  O669  1  0.66166379  0.81556565  0.45220900  1
  O  O670  1  0.66272063  0.81639464  0.70186363  1
  O  O671  1  0.66487509  0.81480713  0.95242208  1
