# generated using pymatgen
data_Na2MnFe(PO4)2
_symmetry_space_group_name_H-M   'P 1'
_cell_length_a   21.08638986
_cell_length_b   18.93869900
_cell_length_c   20.04525828
_cell_angle_alpha   90.00028442
_cell_angle_beta   89.99822088
_cell_angle_gamma   90.00012898
_symmetry_Int_Tables_number   1
_chemical_formula_structural   Na2MnFe(PO4)2
_chemical_formula_sum   'Na96 Mn48 Fe48 P96 O384'
_cell_volume   8005.04964858
_cell_formula_units_Z   48
loop_
 _symmetry_equiv_pos_site_id
 _symmetry_equiv_pos_as_xyz
  1  'x, y, z'
loop_
 _atom_site_type_symbol
 _atom_site_label
 _atom_site_symmetry_multiplicity
 _atom_site_fract_x
 _atom_site_fract_y
 _atom_site_fract_z
 _atom_site_occupancy
  Na  Na0  1  0.00182858  0.00039955  0.00060188  1
  Na  Na1  1  0.00208960  0.00133750  0.24954357  1
  Na  Na2  1  -0.00201728  -0.00077380  0.50056066  1
  Na  Na3  1  0.00112475  0.00089263  0.74967377  1
  Na  Na4  1  0.00325766  0.33435673  -0.00024151  1
  Na  Na5  1  0.00065661  0.33340203  0.24984612  1
  Na  Na6  1  -0.00364244  0.33239146  0.50065937  1
  Na  Na7  1  -0.00031691  0.33311714  0.74970270  1
  Na  Na8  1  0.00096443  0.66709566  0.00010454  1
  Na  Na9  1  0.00096082  0.66736123  0.24939121  1
  Na  Na10  1  -0.00067611  0.66707774  0.50001536  1
  Na  Na11  1  0.00014185  0.66722161  0.74967909  1
  Na  Na12  1  0.49912644  -0.00080205  0.00066227  1
  Na  Na13  1  0.50131019  0.00018251  0.25003842  1
  Na  Na14  1  0.50247308  0.00059425  0.49935947  1
  Na  Na15  1  0.50316366  0.00071973  0.74994747  1
  Na  Na16  1  0.49848428  0.33282818  0.00076656  1
  Na  Na17  1  0.49995538  0.33335476  0.24904055  1
  Na  Na18  1  0.50077220  0.33294967  0.50014064  1
  Na  Na19  1  0.50072442  0.33316016  0.75010035  1
  Na  Na20  1  0.49815662  0.66666859  0.00000845  1
  Na  Na21  1  0.49811057  0.66626771  0.25059788  1
  Na  Na22  1  0.50020892  0.66651426  0.50104613  1
  Na  Na23  1  0.50146693  0.66738595  0.74906417  1
  Na  Na24  1  0.24931186  0.00041674  0.12418472  1
  Na  Na25  1  0.24865244  0.00013313  0.37616727  1
  Na  Na26  1  0.24763484  -0.00027236  0.62472028  1
  Na  Na27  1  0.24689079  -0.00075454  0.87517381  1
  Na  Na28  1  0.24983718  0.33278980  0.12495960  1
  Na  Na29  1  0.25209654  0.33326523  0.37487688  1
  Na  Na30  1  0.25175912  0.33324651  0.62527142  1
  Na  Na31  1  0.25119013  0.33351438  0.87410470  1
  Na  Na32  1  0.24973093  0.66696549  0.12566763  1
  Na  Na33  1  0.24966858  0.66685294  0.37522641  1
  Na  Na34  1  0.24875538  0.66702262  0.62440373  1
  Na  Na35  1  0.24873030  0.66689364  0.87490498  1
  Na  Na36  1  0.74919387  -0.00028169  0.12564547  1
  Na  Na37  1  0.75005955  0.00041677  0.37544681  1
  Na  Na38  1  0.74899519  -0.00044781  0.62470149  1
  Na  Na39  1  0.74990334  -0.00014852  0.87388647  1
  Na  Na40  1  0.74944120  0.33304578  0.12539256  1
  Na  Na41  1  0.75003342  0.33364592  0.37573338  1
  Na  Na42  1  0.75070641  0.33400418  0.62512573  1
  Na  Na43  1  0.74745839  0.33239050  0.87424110  1
  Na  Na44  1  0.75173139  0.66776694  0.12543352  1
  Na  Na45  1  0.75081221  0.66694395  0.37450336  1
  Na  Na46  1  0.75041757  0.66671526  0.62568869  1
  Na  Na47  1  0.74995601  0.66676822  0.87436558  1
  Na  Na48  1  0.00270756  0.16624144  -0.00031716  1
  Na  Na49  1  -0.00031314  0.16709414  0.24931629  1
  Na  Na50  1  -0.00254876  0.16729103  0.50019605  1
  Na  Na51  1  0.00116154  0.16602310  0.75035125  1
  Na  Na52  1  0.00244163  0.49977998  0.00026002  1
  Na  Na53  1  0.00255897  0.49901840  0.25021217  1
  Na  Na54  1  -0.00241922  0.50114157  0.50071397  1
  Na  Na55  1  0.00096292  0.49922453  0.74922109  1
  Na  Na56  1  0.00028403  0.83285285  0.00037384  1
  Na  Na57  1  0.00153938  0.83205665  0.24935450  1
  Na  Na58  1  -0.00118788  0.83291947  0.50040239  1
  Na  Na59  1  -0.00007733  0.83240010  0.74964468  1
  Na  Na60  1  0.49737026  0.16749692  0.00086902  1
  Na  Na61  1  0.49865550  0.16687245  0.25033110  1
  Na  Na62  1  0.50057055  0.16659716  0.49948562  1
  Na  Na63  1  0.50000537  0.16700485  0.75039378  1
  Na  Na64  1  0.49858323  0.50049089  -0.00027830  1
  Na  Na65  1  0.49959053  0.50042916  0.24997495  1
  Na  Na66  1  0.50283041  0.50001364  0.50007228  1
  Na  Na67  1  0.50430111  0.49872549  0.74982559  1
  Na  Na68  1  0.49987711  0.83312576  0.00073335  1
  Na  Na69  1  0.50146702  0.83210481  0.24964151  1
  Na  Na70  1  0.49984471  0.83371147  0.50081030  1
  Na  Na71  1  0.50172227  0.83237353  0.74917914  1
  Na  Na72  1  0.25011072  0.16725361  0.12430645  1
  Na  Na73  1  0.25238061  0.16606847  0.37603803  1
  Na  Na74  1  0.25057620  0.16675100  0.62505727  1
  Na  Na75  1  0.24971547  0.16708540  0.87418783  1
  Na  Na76  1  0.25109207  0.49956636  0.12487090  1
  Na  Na77  1  0.24925939  0.50108269  0.37480003  1
  Na  Na78  1  0.24948407  0.50063213  0.62413252  1
  Na  Na79  1  0.24905400  0.50041816  0.87517310  1
  Na  Na80  1  0.24764729  0.83341760  0.12569374  1
  Na  Na81  1  0.24831818  0.83318380  0.37542725  1
  Na  Na82  1  0.24780217  0.83296859  0.62521194  1
  Na  Na83  1  0.24854092  0.83249244  0.87471121  1
  Na  Na84  1  0.75095644  0.16620574  0.12598797  1
  Na  Na85  1  0.75049810  0.16639243  0.37567907  1
  Na  Na86  1  0.74958144  0.16711690  0.62423039  1
  Na  Na87  1  0.74977618  0.16700915  0.87437923  1
  Na  Na88  1  0.74968005  0.49945920  0.12539756  1
  Na  Na89  1  0.75006402  0.49976053  0.37512307  1
  Na  Na90  1  0.74800534  0.50046738  0.62592978  1
  Na  Na91  1  0.74722882  0.50072448  0.87398084  1
  Na  Na92  1  0.75129991  0.83228608  0.12492061  1
  Na  Na93  1  0.74972664  0.83329347  0.37487466  1
  Na  Na94  1  0.75273432  0.83185384  0.62518875  1
  Na  Na95  1  0.74961664  0.83384487  0.87424822  1
  Mn  Mn96  1  0.85735844  0.08326085  0.75206897  1
  Mn  Mn97  1  0.85815387  0.41662730  0.25194915  1
  Mn  Mn98  1  0.35676357  0.75022793  0.75194138  1
  Mn  Mn99  1  0.85820959  0.41655312  0.00165596  1
  Mn  Mn100  1  0.14289085  0.58282064  0.99754465  1
  Mn  Mn101  1  0.64179461  0.58367078  0.24765522  1
  Mn  Mn102  1  0.10725227  0.41653785  0.37351593  1
  Mn  Mn103  1  0.64262897  0.91662607  0.99772954  1
  Mn  Mn104  1  0.89265094  0.25022354  0.87737912  1
  Mn  Mn105  1  0.85667233  0.41693979  0.75287016  1
  Mn  Mn106  1  0.85784598  0.08313702  0.25200149  1
  Mn  Mn107  1  0.14098362  0.91662392  0.49784891  1
  Mn  Mn108  1  0.89229943  0.58283769  0.37712008  1
  Mn  Mn109  1  0.10721072  0.08365464  0.37285426  1
  Mn  Mn110  1  0.89270258  0.91706539  0.87718759  1
  Mn  Mn111  1  0.60737702  0.08350199  0.12275082  1
  Mn  Mn112  1  0.60774573  0.74938993  0.12279598  1
  Mn  Mn113  1  0.14261450  0.24992546  0.24848556  1
  Mn  Mn114  1  0.60808925  0.08324626  0.87328162  1
  Mn  Mn115  1  0.89289809  0.91704173  0.12731030  1
  Mn  Mn116  1  0.35846779  0.41765719  0.75190379  1
  Mn  Mn117  1  0.39247148  0.91624396  0.37707399  1
  Mn  Mn118  1  0.14213018  0.25045481  0.49793855  1
  Mn  Mn119  1  0.89303918  0.58263082  0.12676948  1
  Mn  Mn120  1  0.60694815  0.41693339  0.12258433  1
  Mn  Mn121  1  0.89221130  0.91711997  0.37658531  1
  Mn  Mn122  1  0.39138211  0.91657725  0.12801652  1
  Mn  Mn123  1  0.14167825  0.58294303  0.49781637  1
  Mn  Mn124  1  0.14190948  0.91681493  0.99731969  1
  Mn  Mn125  1  0.39207955  0.91663328  0.87619931  1
  Mn  Mn126  1  0.35701159  0.08293027  0.00182269  1
  Mn  Mn127  1  0.89323942  0.25064208  0.12637942  1
  Mn  Mn128  1  0.39243244  0.58342112  0.87615085  1
  Mn  Mn129  1  0.64284096  0.25042764  0.49741719  1
  Mn  Mn130  1  0.89258884  0.58268595  0.87728212  1
  Mn  Mn131  1  0.35768721  0.41643394  0.25291234  1
  Mn  Mn132  1  0.64169542  0.24939679  0.99827534  1
  Mn  Mn133  1  0.14268474  0.25027136  0.74705178  1
  Mn  Mn134  1  0.60874305  0.75016980  0.62210887  1
  Mn  Mn135  1  0.64170792  0.58375839  0.99798281  1
  Mn  Mn136  1  0.64316496  0.91577388  0.49752479  1
  Mn  Mn137  1  0.35759994  0.08234288  0.75179194  1
  Mn  Mn138  1  0.35865267  0.08225525  0.50268338  1
  Mn  Mn139  1  0.39230906  0.91739503  0.62771866  1
  Mn  Mn140  1  0.35928326  0.41733470  0.50222405  1
  Mn  Mn141  1  0.10690451  0.41637182  0.62196665  1
  Mn  Mn142  1  0.35682515  0.75106655  0.25299964  1
  Mn  Mn143  1  0.39317311  0.58266349  0.62750266  1
  Fe  Fe144  1  0.14298211  0.58358579  0.24827873  1
  Fe  Fe145  1  0.60777827  0.41671046  0.37329398  1
  Fe  Fe146  1  0.35717148  0.74973629  0.00125431  1
  Fe  Fe147  1  0.10734231  0.74980354  0.87285221  1
  Fe  Fe148  1  0.10701149  0.74990843  0.37351867  1
  Fe  Fe149  1  0.64274532  0.91666863  0.24861647  1
  Fe  Fe150  1  0.89174379  0.58340635  0.62707321  1
  Fe  Fe151  1  0.39169675  0.25002842  0.12734515  1
  Fe  Fe152  1  0.14227408  0.91696062  0.24850709  1
  Fe  Fe153  1  0.60781569  0.08334085  0.37272691  1
  Fe  Fe154  1  0.10712003  0.74969011  0.12293901  1
  Fe  Fe155  1  0.60765109  0.74981035  0.37365524  1
  Fe  Fe156  1  0.85783230  0.75017556  0.00113226  1
  Fe  Fe157  1  0.60681497  0.41688735  0.87414832  1
  Fe  Fe158  1  0.14372072  0.25056263  0.99795503  1
  Fe  Fe159  1  0.39406224  0.24985053  0.62627333  1
  Fe  Fe160  1  0.39295862  0.24995519  0.87631460  1
  Fe  Fe161  1  0.10550394  0.75008163  0.62297585  1
  Fe  Fe162  1  0.64269340  0.58395171  0.74833275  1
  Fe  Fe163  1  0.64166660  0.24957509  0.74808198  1
  Fe  Fe164  1  0.35694011  0.08257669  0.25165872  1
  Fe  Fe165  1  0.39160857  0.58339894  0.12692469  1
  Fe  Fe166  1  0.60797732  0.41582959  0.62298471  1
  Fe  Fe167  1  0.89259013  0.91679435  0.62706390  1
  Fe  Fe168  1  0.60780238  0.74976804  0.87367621  1
  Fe  Fe169  1  0.10615892  0.08352800  0.62312788  1
  Fe  Fe170  1  0.85859101  0.08323010  0.00147548  1
  Fe  Fe171  1  0.85766224  0.74968235  0.50132063  1
  Fe  Fe172  1  0.35737179  0.41712351  0.00112711  1
  Fe  Fe173  1  0.10841105  0.08396617  0.12321172  1
  Fe  Fe174  1  0.64242721  0.24944887  0.24852882  1
  Fe  Fe175  1  0.85699096  0.08322853  0.50218437  1
  Fe  Fe176  1  0.39398248  0.25018500  0.37665658  1
  Fe  Fe177  1  0.14126132  0.91612681  0.74771696  1
  Fe  Fe178  1  0.35694372  0.75031141  0.50139425  1
  Fe  Fe179  1  0.60785805  0.08377552  0.62336723  1
  Fe  Fe180  1  0.10865288  0.41683485  0.87243900  1
  Fe  Fe181  1  0.89142162  0.25015433  0.37634050  1
  Fe  Fe182  1  0.64307785  0.91661412  0.74802582  1
  Fe  Fe183  1  0.14178514  0.58362220  0.74771193  1
  Fe  Fe184  1  0.10878698  0.41654067  0.12290791  1
  Fe  Fe185  1  0.64355160  0.58390272  0.49811493  1
  Fe  Fe186  1  0.85649286  0.41727775  0.50204831  1
  Fe  Fe187  1  0.10747244  0.08344805  0.87247178  1
  Fe  Fe188  1  0.89207367  0.24978432  0.62722025  1
  Fe  Fe189  1  0.85701867  0.74985669  0.75219304  1
  Fe  Fe190  1  0.85764969  0.75008326  0.25182166  1
  Fe  Fe191  1  0.39298539  0.58343724  0.37700005  1
  P  P192  1  0.05533186  0.25017379  0.10939643  1
  P  P193  1  0.05128029  0.25008368  0.36029308  1
  P  P194  1  0.05175122  0.24941073  0.61000905  1
  P  P195  1  0.05533277  0.25029385  0.86089234  1
  P  P196  1  0.05545439  0.58334002  0.11124513  1
  P  P197  1  0.05385657  0.58413693  0.35952195  1
  P  P198  1  0.05239083  0.58420127  0.61109853  1
  P  P199  1  0.05437433  0.58329692  0.85932152  1
  P  P200  1  0.05531410  0.91661115  0.11137457  1
  P  P201  1  0.05349325  0.91592000  0.35940913  1
  P  P202  1  0.05264710  0.91636277  0.61142041  1
  P  P203  1  0.05394489  0.91646999  0.85938336  1
  P  P204  1  0.55241355  0.24980780  0.11136611  1
  P  P205  1  0.55350285  0.25016193  0.35967129  1
  P  P206  1  0.55432339  0.24964133  0.61093102  1
  P  P207  1  0.55277324  0.25057663  0.86014894  1
  P  P208  1  0.55129057  0.58347660  0.10990557  1
  P  P209  1  0.55388141  0.58392402  0.36156682  1
  P  P210  1  0.55630018  0.58265700  0.61040768  1
  P  P211  1  0.55404096  0.58391997  0.85955689  1
  P  P212  1  0.55428125  0.91642602  0.11116040  1
  P  P213  1  0.55442108  0.91593553  0.35966120  1
  P  P214  1  0.55517648  0.91750957  0.61084197  1
  P  P215  1  0.55423625  0.91545406  0.85946766  1
  P  P216  1  0.44511495  0.08371226  0.14089639  1
  P  P217  1  0.44706855  0.08336211  0.38855659  1
  P  P218  1  0.44845039  0.08382304  0.64007124  1
  P  P219  1  0.44677993  0.08352393  0.88993691  1
  P  P220  1  0.44429167  0.41702751  0.13873116  1
  P  P221  1  0.44843948  0.41690539  0.38970638  1
  P  P222  1  0.44882656  0.41616847  0.63990582  1
  P  P223  1  0.44716152  0.41622810  0.89005427  1
  P  P224  1  0.44472619  0.74923957  0.13929571  1
  P  P225  1  0.44734798  0.74954653  0.39080507  1
  P  P226  1  0.44576360  0.75005618  0.63892534  1
  P  P227  1  0.44736860  0.75022936  0.88995231  1
  P  P228  1  0.94754394  0.08378120  0.13865489  1
  P  P229  1  0.94550086  0.08405328  0.39053497  1
  P  P230  1  0.94577490  0.08336784  0.63897591  1
  P  P231  1  0.94785942  0.08339246  0.89039127  1
  P  P232  1  0.94900733  0.41662748  0.13976505  1
  P  P233  1  0.94560435  0.41604368  0.39085107  1
  P  P234  1  0.94413676  0.41681527  0.63901654  1
  P  P235  1  0.94885250  0.41676313  0.88981579  1
  P  P236  1  0.94602512  0.74986229  0.13916534  1
  P  P237  1  0.94600531  0.75003026  0.38923749  1
  P  P238  1  0.94449960  0.74974644  0.63927330  1
  P  P239  1  0.94656346  0.74981127  0.88920346  1
  P  P240  1  0.19721394  0.08315618  0.23483412  1
  P  P241  1  0.19529141  0.08383341  0.48629087  1
  P  P242  1  0.19441754  0.08259072  0.73489885  1
  P  P243  1  0.19470256  0.08466893  0.98513909  1
  P  P244  1  0.19618048  0.41730520  0.23493673  1
  P  P245  1  0.19751890  0.41637760  0.48469352  1
  P  P246  1  0.19574605  0.41758875  0.73513925  1
  P  P247  1  0.19683599  0.41582734  0.98529299  1
  P  P248  1  0.19416437  0.74995129  0.23623135  1
  P  P249  1  0.19506617  0.74980409  0.48554205  1
  P  P250  1  0.19353392  0.74970265  0.73520451  1
  P  P251  1  0.19597629  0.74968689  0.98553710  1
  P  P252  1  0.69515277  0.08347555  0.23646892  1
  P  P253  1  0.69617675  0.08346605  0.48562591  1
  P  P254  1  0.69572523  0.08346739  0.73432620  1
  P  P255  1  0.69873304  0.08330273  0.98506726  1
  P  P256  1  0.69501031  0.41564829  0.23625265  1
  P  P257  1  0.69608850  0.41754864  0.48589958  1
  P  P258  1  0.69378613  0.41630620  0.73590548  1
  P  P259  1  0.69605492  0.41652120  0.98430644  1
  P  P260  1  0.69659769  0.75066813  0.23619202  1
  P  P261  1  0.69807001  0.74902881  0.48452966  1
  P  P262  1  0.69644570  0.75022492  0.73614902  1
  P  P263  1  0.69775870  0.75005089  0.98436642  1
  P  P264  1  0.30450658  0.25090685  0.01381875  1
  P  P265  1  0.30521657  0.24878977  0.26486879  1
  P  P266  1  0.30617627  0.24998041  0.51479464  1
  P  P267  1  0.30593022  0.24989831  0.76404207  1
  P  P268  1  0.30422341  0.58355424  0.01499242  1
  P  P269  1  0.30372944  0.58364228  0.26487590  1
  P  P270  1  0.30492654  0.58452693  0.51394082  1
  P  P271  1  0.30153720  0.58374537  0.76466048  1
  P  P272  1  0.30305144  0.91545704  0.01474834  1
  P  P273  1  0.30123660  0.91767450  0.26546697  1
  P  P274  1  0.30304565  0.91547012  0.51527960  1
  P  P275  1  0.30076003  0.91658810  0.76482276  1
  P  P276  1  0.80334870  0.24936270  0.01503984  1
  P  P277  1  0.80269013  0.25004198  0.26552500  1
  P  P278  1  0.80510337  0.25013991  0.51436999  1
  P  P279  1  0.80272808  0.24992876  0.76390742  1
  P  P280  1  0.80318275  0.58376616  0.01489897  1
  P  P281  1  0.80355213  0.58367536  0.26478014  1
  P  P282  1  0.80290902  0.58338519  0.51544950  1
  P  P283  1  0.80326998  0.58393953  0.76394203  1
  P  P284  1  0.80412136  0.91683253  0.01477096  1
  P  P285  1  0.80240898  0.91614769  0.26482249  1
  P  P286  1  0.80454312  0.91652107  0.51529030  1
  P  P287  1  0.80379861  0.91612511  0.76349595  1
  O  O288  1  0.05758262  0.24991167  0.18622900  1
  O  O289  1  0.05514937  0.25009133  0.43693321  1
  O  O290  1  0.05615904  0.25003206  0.68666326  1
  O  O291  1  0.05945756  0.25071736  0.93758247  1
  O  O292  1  0.05895723  0.58326893  0.18795843  1
  O  O293  1  0.05610344  0.58364412  0.43638745  1
  O  O294  1  0.05722962  0.58340392  0.68768938  1
  O  O295  1  0.05742295  0.58339776  0.93615672  1
  O  O296  1  0.05885580  0.91691115  0.18813519  1
  O  O297  1  0.05558032  0.91640999  0.43627688  1
  O  O298  1  0.05697662  0.91643130  0.68807093  1
  O  O299  1  0.05658456  0.91613031  0.93622892  1
  O  O300  1  0.55773346  0.24952609  0.18792282  1
  O  O301  1  0.55707821  0.24997760  0.43643539  1
  O  O302  1  0.55828201  0.24960384  0.68763708  1
  O  O303  1  0.55591156  0.24972833  0.93690879  1
  O  O304  1  0.55555866  0.58378674  0.18661565  1
  O  O305  1  0.55895195  0.58415987  0.43820626  1
  O  O306  1  0.56030139  0.58402052  0.68720361  1
  O  O307  1  0.55598111  0.58411512  0.93636682  1
  O  O308  1  0.55917338  0.91622083  0.18786018  1
  O  O309  1  0.55745078  0.91603277  0.43648540  1
  O  O310  1  0.55961573  0.91629558  0.68756974  1
  O  O311  1  0.55676305  0.91619495  0.93632844  1
  O  O312  1  0.44188238  0.08278384  0.06410046  1
  O  O313  1  0.44169992  0.08226784  0.31202757  1
  O  O314  1  0.44494819  0.08277024  0.56333052  1
  O  O315  1  0.44386908  0.08265750  0.81319320  1
  O  O316  1  0.44055369  0.41693266  0.06196882  1
  O  O317  1  0.44445805  0.41708269  0.31302447  1
  O  O318  1  0.44525117  0.41721340  0.56322872  1
  O  O319  1  0.44417162  0.41706812  0.81331186  1
  O  O320  1  0.44049128  0.75025447  0.06257298  1
  O  O321  1  0.44317727  0.75025353  0.31406373  1
  O  O322  1  0.44107595  0.75029754  0.56228148  1
  O  O323  1  0.44336683  0.75024888  0.81320956  1
  O  O324  1  0.94258860  0.08336299  0.06202718  1
  O  O325  1  0.94307595  0.08334618  0.31365706  1
  O  O326  1  0.94109160  0.08319049  0.56233127  1
  O  O327  1  0.94326489  0.08337002  0.81370257  1
  O  O328  1  0.94475263  0.41686612  0.06312771  1
  O  O329  1  0.94344666  0.41688370  0.31401522  1
  O  O330  1  0.93983251  0.41738045  0.56227824  1
  O  O331  1  0.94376518  0.41664982  0.81317397  1
  O  O332  1  0.94114799  0.74990612  0.06244914  1
  O  O333  1  0.94121704  0.75006758  0.31252461  1
  O  O334  1  0.94037551  0.74946912  0.56248337  1
  O  O335  1  0.94123707  0.74983261  0.81252679  1
  O  O336  1  0.19123821  0.08399070  0.06195387  1
  O  O337  1  0.19366119  0.08403480  0.31160083  1
  O  O338  1  0.18997963  0.08410089  0.56298850  1
  O  O339  1  0.19066689  0.08343301  0.81174156  1
  O  O340  1  0.19244768  0.41639797  0.06200605  1
  O  O341  1  0.19310910  0.41655116  0.31170924  1
  O  O342  1  0.19356416  0.41608468  0.56146953  1
  O  O343  1  0.19193354  0.41678835  0.81196662  1
  O  O344  1  0.19128085  0.74975179  0.06223132  1
  O  O345  1  0.19063237  0.74977055  0.31303252  1
  O  O346  1  0.18979455  0.74975615  0.56220240  1
  O  O347  1  0.19010703  0.74973587  0.81205900  1
  O  O348  1  0.69444136  0.08356572  0.06175768  1
  O  O349  1  0.69142202  0.08364219  0.31329320  1
  O  O350  1  0.69135201  0.08380048  0.56227355  1
  O  O351  1  0.69311913  0.08370178  0.81114766  1
  O  O352  1  0.69296000  0.41654687  0.06115473  1
  O  O353  1  0.69091722  0.41655081  0.31308072  1
  O  O354  1  0.69161405  0.41627158  0.56259970  1
  O  O355  1  0.68966291  0.41601726  0.81266606  1
  O  O356  1  0.69373992  0.74976471  0.06109368  1
  O  O357  1  0.69159612  0.74970369  0.31282360  1
  O  O358  1  0.69460078  0.74974458  0.56124467  1
  O  O359  1  0.69198455  0.75017263  0.81276567  1
  O  O360  1  0.30850642  0.24989907  0.18802529  1
  O  O361  1  0.31102004  0.25006184  0.43799269  1
  O  O362  1  0.31075260  0.24988264  0.68729279  1
  O  O363  1  0.30913027  0.25024324  0.93707098  1
  O  O364  1  0.30823742  0.58351181  0.18817910  1
  O  O365  1  0.30952089  0.58353553  0.43716886  1
  O  O366  1  0.30607147  0.58345878  0.68798643  1
  O  O367  1  0.30690145  0.58366465  0.93819177  1
  O  O368  1  0.30493883  0.91690265  0.18878646  1
  O  O369  1  0.30660387  0.91631192  0.43852641  1
  O  O370  1  0.30526678  0.91695533  0.68816151  1
  O  O371  1  0.30604051  0.91589288  0.93799116  1
  O  O372  1  0.80707430  0.25018988  0.18884181  1
  O  O373  1  0.80839616  0.25003629  0.43757771  1
  O  O374  1  0.80804620  0.24992125  0.68725972  1
  O  O375  1  0.80641280  0.25019459  0.93821419  1
  O  O376  1  0.80704525  0.58301342  0.18804309  1
  O  O377  1  0.80636710  0.58322808  0.43874034  1
  O  O378  1  0.80801804  0.58319838  0.68730451  1
  O  O379  1  0.80600850  0.58288271  0.93808192  1
  O  O380  1  0.80641670  0.91665280  0.18814888  1
  O  O381  1  0.80696600  0.91669745  0.43850826  1
  O  O382  1  0.80875398  0.91675089  0.68685633  1
  O  O383  1  0.80672181  0.91708570  0.93794429  1
  O  O384  1  0.23414335  0.25026143  0.03756343  1
  O  O385  1  0.23528986  0.24964306  0.28958970  1
  O  O386  1  0.23596759  0.25004195  0.53843033  1
  O  O387  1  0.23564945  0.25007901  0.78729738  1
  O  O388  1  0.23454574  0.58333371  0.04028202  1
  O  O389  1  0.23329574  0.58399025  0.28830343  1
  O  O390  1  0.23479659  0.58390332  0.53779876  1
  O  O391  1  0.23151159  0.58385862  0.78894217  1
  O  O392  1  0.23334159  0.91635419  0.03982847  1
  O  O393  1  0.23125646  0.91700482  0.29019294  1
  O  O394  1  0.23318696  0.91604876  0.53986778  1
  O  O395  1  0.23061910  0.91598109  0.78884288  1
  O  O396  1  0.73375997  0.24950939  0.04050215  1
  O  O397  1  0.73259384  0.24981631  0.28985730  1
  O  O398  1  0.73504696  0.25048488  0.53878882  1
  O  O399  1  0.73222210  0.24975993  0.78695976  1
  O  O400  1  0.73367856  0.58371978  0.04068908  1
  O  O401  1  0.73382658  0.58345435  0.28973282  1
  O  O402  1  0.73282944  0.58340884  0.54012662  1
  O  O403  1  0.73284342  0.58377125  0.78736318  1
  O  O404  1  0.73462929  0.91617209  0.04055121  1
  O  O405  1  0.73249558  0.91679415  0.28961643  1
  O  O406  1  0.73484532  0.91585073  0.54057781  1
  O  O407  1  0.73344806  0.91675682  0.78709200  1
  O  O408  1  0.26712670  0.08357228  0.20989184  1
  O  O409  1  0.26553932  0.08310920  0.46301092  1
  O  O410  1  0.26445180  0.08319922  0.71059357  1
  O  O411  1  0.26461833  0.08327015  0.96056409  1
  O  O412  1  0.26596425  0.41645085  0.21007765  1
  O  O413  1  0.26727487  0.41710741  0.46002159  1
  O  O414  1  0.26570207  0.41718483  0.71068876  1
  O  O415  1  0.26717661  0.41693148  0.96139684  1
  O  O416  1  0.26418977  0.75006802  0.21184070  1
  O  O417  1  0.26543747  0.75000130  0.46201797  1
  O  O418  1  0.26352232  0.74994417  0.71073783  1
  O  O419  1  0.26630597  0.74937732  0.96177144  1
  O  O420  1  0.76508706  0.08317471  0.21188445  1
  O  O421  1  0.76668475  0.08330885  0.46245146  1
  O  O422  1  0.76540273  0.08334241  0.70902319  1
  O  O423  1  0.76865451  0.08330311  0.96023793  1
  O  O424  1  0.76497209  0.41610135  0.21183705  1
  O  O425  1  0.76653142  0.41697104  0.46242568  1
  O  O426  1  0.76392544  0.41675833  0.71189207  1
  O  O427  1  0.76563894  0.41657414  0.95885198  1
  O  O428  1  0.76699157  0.75019726  0.21252957  1
  O  O429  1  0.76823891  0.74996590  0.46024909  1
  O  O430  1  0.76672563  0.74982596  0.71205831  1
  O  O431  1  0.76790835  0.75042413  0.96008768  1
  O  O432  1  0.01790200  0.08422938  0.16228480  1
  O  O433  1  0.01507892  0.08316045  0.41602826  1
  O  O434  1  0.01608159  0.08344795  0.66291366  1
  O  O435  1  0.01821817  0.08315432  0.91381011  1
  O  O436  1  0.01912893  0.41617569  0.16391770  1
  O  O437  1  0.01509927  0.41681038  0.41672687  1
  O  O438  1  0.01424281  0.41613749  0.66298438  1
  O  O439  1  0.01915651  0.41709689  0.91334721  1
  O  O440  1  0.01654180  0.74981867  0.16225613  1
  O  O441  1  0.01632092  0.74991233  0.41294565  1
  O  O442  1  0.01489711  0.74991492  0.66298762  1
  O  O443  1  0.01711790  0.74990359  0.91231930  1
  O  O444  1  0.51495749  0.08345660  0.16548556  1
  O  O445  1  0.51762154  0.08339688  0.41188564  1
  O  O446  1  0.51837643  0.08387870  0.66480950  1
  O  O447  1  0.51632458  0.08348487  0.91565871  1
  O  O448  1  0.51416019  0.41692913  0.16344404  1
  O  O449  1  0.51854823  0.41659994  0.41427625  1
  O  O450  1  0.51882362  0.41609144  0.66443906  1
  O  O451  1  0.51714625  0.41672994  0.91502532  1
  O  O452  1  0.51474586  0.74928989  0.16357100  1
  O  O453  1  0.51757992  0.75017027  0.41496808  1
  O  O454  1  0.51603410  0.74976554  0.66231868  1
  O  O455  1  0.51749445  0.74981162  0.91436877  1
  O  O456  1  0.48198816  0.24996974  0.08802252  1
  O  O457  1  0.48328405  0.25013428  0.33533841  1
  O  O458  1  0.48424747  0.24979643  0.58635407  1
  O  O459  1  0.48273900  0.25013815  0.83539061  1
  O  O460  1  0.48129684  0.58342706  0.08561598  1
  O  O461  1  0.48351239  0.58361539  0.33770827  1
  O  O462  1  0.48620590  0.58315050  0.58650166  1
  O  O463  1  0.48458772  0.58342566  0.83337811  1
  O  O464  1  0.48413839  0.91657076  0.08758927  1
  O  O465  1  0.48464731  0.91595187  0.33454005  1
  O  O466  1  0.48521879  0.91738909  0.58655626  1
  O  O467  1  0.48469959  0.91640402  0.83372514  1
  O  O468  1  0.98575611  0.25029739  0.08371124  1
  O  O469  1  0.98136073  0.25013273  0.33543243  1
  O  O470  1  0.98148347  0.24992169  0.58629071  1
  O  O471  1  0.98537440  0.24981948  0.83625555  1
  O  O472  1  0.98573428  0.58348185  0.08604522  1
  O  O473  1  0.98429737  0.58327810  0.33397876  1
  O  O474  1  0.98204409  0.58416389  0.58738763  1
  O  O475  1  0.98461871  0.58304200  0.83423642  1
  O  O476  1  0.98553884  0.91644529  0.08639597  1
  O  O477  1  0.98404568  0.91674855  0.33352003  1
  O  O478  1  0.98239155  0.91603615  0.58730920  1
  O  O479  1  0.98428680  0.91678074  0.83402656  1
  O  O480  1  0.08988151  0.31527017  0.07733192  1
  O  O481  1  0.08544304  0.31501480  0.32772620  1
  O  O482  1  0.08541715  0.31436341  0.57679638  1
  O  O483  1  0.08875369  0.31537739  0.82759835  1
  O  O484  1  0.08915053  0.64850259  0.07842191  1
  O  O485  1  0.08779552  0.64941233  0.32747094  1
  O  O486  1  0.08569044  0.64937511  0.57804165  1
  O  O487  1  0.08820306  0.64855885  0.82692043  1
  O  O488  1  0.08903159  0.98172972  0.07861946  1
  O  O489  1  0.08848821  0.98073289  0.32731484  1
  O  O490  1  0.08589077  0.98143085  0.57812797  1
  O  O491  1  0.08837988  0.98151091  0.82728314  1
  O  O492  1  0.58560508  0.31482182  0.07797194  1
  O  O493  1  0.58722245  0.31529011  0.32708525  1
  O  O494  1  0.58789934  0.31475382  0.57788376  1
  O  O495  1  0.58650065  0.31577317  0.82776057  1
  O  O496  1  0.58519619  0.64835511  0.07695862  1
  O  O497  1  0.58675823  0.64924393  0.32807737  1
  O  O498  1  0.59023444  0.64732676  0.57673908  1
  O  O499  1  0.58836227  0.64908334  0.82733728  1
  O  O500  1  0.58765195  0.98153644  0.07794935  1
  O  O501  1  0.58870887  0.98099134  0.32737101  1
  O  O502  1  0.58876108  0.98275649  0.57834036  1
  O  O503  1  0.58939133  0.98016663  0.82734596  1
  O  O504  1  0.41089753  0.01888019  0.17398050  1
  O  O505  1  0.41415145  0.01837414  0.42263571  1
  O  O506  1  0.41454514  0.01890751  0.67321156  1
  O  O507  1  0.41253213  0.01849142  0.92233893  1
  O  O508  1  0.41064370  0.35188791  0.17164365  1
  O  O509  1  0.41468493  0.35176373  0.42221939  1
  O  O510  1  0.41483791  0.35111809  0.67209039  1
  O  O511  1  0.41320779  0.35108757  0.92236077  1
  O  O512  1  0.41113066  0.68404905  0.17195975  1
  O  O513  1  0.41366797  0.68436890  0.42335968  1
  O  O514  1  0.41243623  0.68499085  0.67222435  1
  O  O515  1  0.41309015  0.68526453  0.92248351  1
  O  O516  1  0.91450228  0.01874402  0.17238071  1
  O  O517  1  0.91070259  0.01928170  0.42292456  1
  O  O518  1  0.91273521  0.01817619  0.67236355  1
  O  O519  1  0.91426622  0.01839778  0.92350002  1
  O  O520  1  0.91498987  0.35168222  0.17250750  1
  O  O521  1  0.91127713  0.35082572  0.42248170  1
  O  O522  1  0.91042404  0.35167302  0.67184320  1
  O  O523  1  0.91551094  0.35167398  0.92293266  1
  O  O524  1  0.91275533  0.68493051  0.17269131  1
  O  O525  1  0.91249912  0.68509886  0.42267710  1
  O  O526  1  0.91114181  0.68476669  0.67276279  1
  O  O527  1  0.91346306  0.68480779  0.92274147  1
  O  O528  1  0.16317577  0.01802788  0.20250045  1
  O  O529  1  0.16162645  0.01881602  0.45333880  1
  O  O530  1  0.16072556  0.01732100  0.70240119  1
  O  O531  1  0.16004886  0.02005749  0.95228811  1
  O  O532  1  0.16177420  0.35246680  0.20223760  1
  O  O533  1  0.16396805  0.35123992  0.45186756  1
  O  O534  1  0.16204795  0.35257421  0.70198963  1
  O  O535  1  0.16391680  0.35062939  0.95195099  1
  O  O536  1  0.16067864  0.68484555  0.20303855  1
  O  O537  1  0.16173540  0.68487477  0.45200452  1
  O  O538  1  0.15989951  0.68455011  0.70225232  1
  O  O539  1  0.16233571  0.68483184  0.95224514  1
  O  O540  1  0.66141520  0.01836652  0.20380267  1
  O  O541  1  0.66276758  0.01851484  0.45234366  1
  O  O542  1  0.66148449  0.01834938  0.70218522  1
  O  O543  1  0.66484606  0.01820010  0.95250236  1
  O  O544  1  0.66157579  0.35026014  0.20374321  1
  O  O545  1  0.66242436  0.35286002  0.45212916  1
  O  O546  1  0.66065050  0.35111474  0.70239853  1
  O  O547  1  0.66154859  0.35152876  0.95214847  1
  O  O548  1  0.66324597  0.68575236  0.20237595  1
  O  O549  1  0.66457228  0.68378806  0.45189622  1
  O  O550  1  0.66296148  0.68527968  0.70281623  1
  O  O551  1  0.66391090  0.68506712  0.95147918  1
  O  O552  1  0.33750973  0.31615538  0.04699346  1
  O  O553  1  0.33960780  0.31346470  0.29802898  1
  O  O554  1  0.33987728  0.31494971  0.54799586  1
  O  O555  1  0.33939540  0.31488780  0.79739424  1
  O  O556  1  0.33820772  0.64863038  0.04755951  1
  O  O557  1  0.33739783  0.64845211  0.29823665  1
  O  O558  1  0.33792261  0.64994918  0.54669325  1
  O  O559  1  0.33529758  0.64874578  0.79748935  1
  O  O560  1  0.33733283  0.98044464  0.04720061  1
  O  O561  1  0.33490581  0.98284964  0.29799340  1
  O  O562  1  0.33720344  0.98043239  0.54807973  1
  O  O563  1  0.33418612  0.98168132  0.79790940  1
  O  O564  1  0.83743101  0.31454996  0.04750992  1
  O  O565  1  0.83652151  0.31501968  0.29847877  1
  O  O566  1  0.83885530  0.31512592  0.54727242  1
  O  O567  1  0.83577469  0.31490990  0.79762130  1
  O  O568  1  0.83752896  0.64907108  0.04648496  1
  O  O569  1  0.83756151  0.64880983  0.29708204  1
  O  O570  1  0.83682404  0.64855743  0.54795585  1
  O  O571  1  0.83662426  0.64901523  0.79694390  1
  O  O572  1  0.83805627  0.98208796  0.04717605  1
  O  O573  1  0.83647272  0.98111511  0.29752238  1
  O  O574  1  0.83833457  0.98180428  0.54781545  1
  O  O575  1  0.83722160  0.98101675  0.79704613  1
  O  O576  1  0.41106655  0.14890417  0.17297530  1
  O  O577  1  0.41400400  0.14857454  0.42168672  1
  O  O578  1  0.41440955  0.14892293  0.67214685  1
  O  O579  1  0.41253252  0.14877887  0.92175533  1
  O  O580  1  0.41081559  0.48222585  0.17169673  1
  O  O581  1  0.41491812  0.48202241  0.42268415  1
  O  O582  1  0.41520414  0.48119359  0.67314032  1
  O  O583  1  0.41271365  0.48110010  0.92258658  1
  O  O584  1  0.41126834  0.81418727  0.17296833  1
  O  O585  1  0.41308996  0.81439126  0.42367682  1
  O  O586  1  0.41264289  0.81509794  0.67249371  1
  O  O587  1  0.41355519  0.81523786  0.92282850  1
  O  O588  1  0.91391981  0.14870820  0.17176349  1
  O  O589  1  0.91136941  0.14927522  0.42245928  1
  O  O590  1  0.91250749  0.14848222  0.67231436  1
  O  O591  1  0.91436674  0.14839569  0.92348965  1
  O  O592  1  0.91545855  0.48162476  0.17288396  1
  O  O593  1  0.91074772  0.48083551  0.42325314  1
  O  O594  1  0.91123169  0.48216394  0.67236126  1
  O  O595  1  0.91526260  0.48174176  0.92287089  1
  O  O596  1  0.91287092  0.81486721  0.17283634  1
  O  O597  1  0.91260932  0.81499161  0.42256713  1
  O  O598  1  0.91114014  0.81485572  0.67248977  1
  O  O599  1  0.91337625  0.81482805  0.92268220  1
  O  O600  1  0.08973338  0.18519838  0.07712349  1
  O  O601  1  0.08521855  0.18508155  0.32751380  1
  O  O602  1  0.08509458  0.18425706  0.57718026  1
  O  O603  1  0.08897125  0.18503418  0.82817775  1
  O  O604  1  0.08926859  0.51818504  0.07848367  1
  O  O605  1  0.08890807  0.51939400  0.32745009  1
  O  O606  1  0.08573667  0.51928222  0.57741655  1
  O  O607  1  0.08889429  0.51841503  0.82694072  1
  O  O608  1  0.08892843  0.85133216  0.07865369  1
  O  O609  1  0.08760931  0.85066155  0.32760775  1
  O  O610  1  0.08598053  0.85118783  0.57827778  1
  O  O611  1  0.08796591  0.85132930  0.82699716  1
  O  O612  1  0.58544159  0.18481045  0.07757048  1
  O  O613  1  0.58731914  0.18512945  0.32687147  1
  O  O614  1  0.58780163  0.18466350  0.57771058  1
  O  O615  1  0.58709207  0.18580350  0.82721040  1
  O  O616  1  0.58506863  0.51841532  0.07728042  1
  O  O617  1  0.58720410  0.51883721  0.32831227  1
  O  O618  1  0.58962955  0.51724550  0.57794631  1
  O  O619  1  0.58887082  0.51891574  0.82787809  1
  O  O620  1  0.58760170  0.85138391  0.07785385  1
  O  O621  1  0.58853509  0.85071247  0.32743890  1
  O  O622  1  0.58874052  0.85252335  0.57737872  1
  O  O623  1  0.58818310  0.85005937  0.82746273  1
  O  O624  1  0.33806794  0.18605746  0.04742813  1
  O  O625  1  0.33865532  0.18341274  0.29725364  1
  O  O626  1  0.33971743  0.18493634  0.54801089  1
  O  O627  1  0.33909694  0.18483475  0.79750206  1
  O  O628  1  0.33841673  0.51841747  0.04722023  1
  O  O629  1  0.33701274  0.51856330  0.29829160  1
  O  O630  1  0.33863986  0.51965859  0.54741210  1
  O  O631  1  0.33539557  0.51877826  0.79757561  1
  O  O632  1  0.33654743  0.85018415  0.04728328  1
  O  O633  1  0.33534428  0.85277648  0.29833155  1
  O  O634  1  0.33662432  0.85012041  0.54752699  1
  O  O635  1  0.33477131  0.85165228  0.79750298  1
  O  O636  1  0.83761084  0.18418988  0.04697624  1
  O  O637  1  0.83676835  0.18509348  0.29828561  1
  O  O638  1  0.83850243  0.18486514  0.54737997  1
  O  O639  1  0.83610073  0.18496921  0.79723804  1
  O  O640  1  0.83744871  0.51870490  0.04737047  1
  O  O641  1  0.83750780  0.51863481  0.29746662  1
  O  O642  1  0.83670234  0.51840859  0.54845280  1
  O  O643  1  0.83628488  0.51899125  0.79778240  1
  O  O644  1  0.83869234  0.85168749  0.04657410  1
  O  O645  1  0.83614144  0.85102715  0.29738116  1
  O  O646  1  0.83911255  0.85155770  0.54735516  1
  O  O647  1  0.83683217  0.85092947  0.79671570  1
  O  O648  1  0.16307664  0.14809212  0.20192208  1
  O  O649  1  0.16256804  0.14892340  0.45247837  1
  O  O650  1  0.16048281  0.14743951  0.70160987  1
  O  O651  1  0.16185825  0.15012017  0.95229659  1
  O  O652  1  0.16262516  0.48269283  0.20256398  1
  O  O653  1  0.16305558  0.48136168  0.45265192  1
  O  O654  1  0.16204596  0.48280419  0.70260592  1
  O  O655  1  0.16279750  0.48055047  0.95200960  1
  O  O656  1  0.16042319  0.81504000  0.20339940  1
  O  O657  1  0.16140568  0.81469538  0.45224428  1
  O  O658  1  0.15949770  0.81468357  0.70233649  1
  O  O659  1  0.16248002  0.81461278  0.95216280  1
  O  O660  1  0.66181629  0.14881803  0.20354833  1
  O  O661  1  0.66293010  0.14843018  0.45205291  1
  O  O662  1  0.66151085  0.14851171  0.70185691  1
  O  O663  1  0.66459632  0.14819138  0.95232068  1
  O  O664  1  0.66117986  0.48058643  0.20308099  1
  O  O665  1  0.66303174  0.48283698  0.45293863  1
  O  O666  1  0.66014679  0.48141900  0.70305176  1
  O  O667  1  0.66152027  0.48151452  0.95216733  1
  O  O668  1  0.66358376  0.81592359  0.20309901  1
  O  O669  1  0.66358628  0.81361259  0.45166538  1
  O  O670  1  0.66348648  0.81539551  0.70260718  1
  O  O671  1  0.66361767  0.81488573  0.95161774  1
