# generated using pymatgen
data_Na2MnFe(PO4)2
_symmetry_space_group_name_H-M   'P 1'
_cell_length_a   21.07990147
_cell_length_b   18.93113181
_cell_length_c   20.03882353
_cell_angle_alpha   89.99994646
_cell_angle_beta   90.00150653
_cell_angle_gamma   90.00115655
_symmetry_Int_Tables_number   1
_chemical_formula_structural   Na2MnFe(PO4)2
_chemical_formula_sum   'Na96 Mn48 Fe48 P96 O384'
_cell_volume   7996.82102879
_cell_formula_units_Z   48
loop_
 _symmetry_equiv_pos_site_id
 _symmetry_equiv_pos_as_xyz
  1  'x, y, z'
loop_
 _atom_site_type_symbol
 _atom_site_label
 _atom_site_symmetry_multiplicity
 _atom_site_fract_x
 _atom_site_fract_y
 _atom_site_fract_z
 _atom_site_occupancy
  Na  Na0  1  0.00203741  -0.00002236  0.00092321  1
  Na  Na1  1  0.00112887  -0.00017398  0.25086135  1
  Na  Na2  1  0.00112243  0.00011267  0.49957512  1
  Na  Na3  1  0.00221381  0.00013771  0.74913006  1
  Na  Na4  1  -0.00157714  0.33291085  0.00154831  1
  Na  Na5  1  -0.00025158  0.33344112  0.25024720  1
  Na  Na6  1  -0.00100990  0.33330401  0.49894250  1
  Na  Na7  1  -0.00243487  0.33259253  0.74933698  1
  Na  Na8  1  -0.00161802  0.66588903  -0.00124061  1
  Na  Na9  1  -0.00066381  0.66648967  0.25047846  1
  Na  Na10  1  -0.00111502  0.66657522  0.50085063  1
  Na  Na11  1  -0.00128039  0.66622476  0.74886546  1
  Na  Na12  1  0.49878282  -0.00030701  0.00093261  1
  Na  Na13  1  0.49832032  -0.00044574  0.24963852  1
  Na  Na14  1  0.49777813  -0.00087408  0.49975181  1
  Na  Na15  1  0.50050698  0.00045022  0.74983726  1
  Na  Na16  1  0.49944455  0.33260394  0.00107428  1
  Na  Na17  1  0.49990324  0.33225280  0.24951290  1
  Na  Na18  1  0.50250557  0.33375395  0.49867110  1
  Na  Na19  1  0.50017561  0.33259462  0.75042373  1
  Na  Na20  1  0.49897099  0.66688167  -0.00122284  1
  Na  Na21  1  0.49939323  0.66675029  0.25032914  1
  Na  Na22  1  0.49859252  0.66678496  0.50151124  1
  Na  Na23  1  0.49708390  0.66585671  0.74928383  1
  Na  Na24  1  0.24836847  0.00038767  0.12607241  1
  Na  Na25  1  0.24902162  0.00018298  0.37649531  1
  Na  Na26  1  0.24738067  -0.00069126  0.62483843  1
  Na  Na27  1  0.24777658  0.00012728  0.87414344  1
  Na  Na28  1  0.25096265  0.33284856  0.12447754  1
  Na  Na29  1  0.25043836  0.33314559  0.37521984  1
  Na  Na30  1  0.24844938  0.33229887  0.62502874  1
  Na  Na31  1  0.25237170  0.33461340  0.87483527  1
  Na  Na32  1  0.25158276  0.66655194  0.12503009  1
  Na  Na33  1  0.25279260  0.66701612  0.37476173  1
  Na  Na34  1  0.25263845  0.66677196  0.62459219  1
  Na  Na35  1  0.25163324  0.66696150  0.87489590  1
  Na  Na36  1  0.75076137  -0.00018203  0.12436425  1
  Na  Na37  1  0.75222693  0.00044411  0.37579851  1
  Na  Na38  1  0.75220559  -0.00026066  0.62473511  1
  Na  Na39  1  0.75045431  -0.00072185  0.87481496  1
  Na  Na40  1  0.74972534  0.33244756  0.12441554  1
  Na  Na41  1  0.75022712  0.33304412  0.37595813  1
  Na  Na42  1  0.75009931  0.33304949  0.62583380  1
  Na  Na43  1  0.75184817  0.33365986  0.87404959  1
  Na  Na44  1  0.74943563  0.66675566  0.12531843  1
  Na  Na45  1  0.74956081  0.66723410  0.37376316  1
  Na  Na46  1  0.75029503  0.66739476  0.62495496  1
  Na  Na47  1  0.75078728  0.66724203  0.87648213  1
  Na  Na48  1  0.00154962  0.16636850  0.00130198  1
  Na  Na49  1  0.00221864  0.16588281  0.25089400  1
  Na  Na50  1  0.00099161  0.16602016  0.49841974  1
  Na  Na51  1  0.00044288  0.16643349  0.74906070  1
  Na  Na52  1  -0.00325116  0.50101124  0.00008392  1
  Na  Na53  1  -0.00244825  0.50030256  0.25009749  1
  Na  Na54  1  -0.00095367  0.50023803  0.49993722  1
  Na  Na55  1  0.00028053  0.49934722  0.74868818  1
  Na  Na56  1  0.00122227  0.83323871  -0.00022530  1
  Na  Na57  1  0.00042862  0.83391388  0.25046933  1
  Na  Na58  1  -0.00219423  0.83470511  0.50082578  1
  Na  Na59  1  -0.00123832  0.83383069  0.74988358  1
  Na  Na60  1  0.49867115  0.16706140  0.00130671  1
  Na  Na61  1  0.49969825  0.16656989  0.24975909  1
  Na  Na62  1  0.50069215  0.16624984  0.49883566  1
  Na  Na63  1  0.49825694  0.16726331  0.75057386  1
  Na  Na64  1  0.49672351  0.50121855  0.00011294  1
  Na  Na65  1  0.49688529  0.50053250  0.25006397  1
  Na  Na66  1  0.49790278  0.50091238  0.49980383  1
  Na  Na67  1  0.50128947  0.49929250  0.75002052  1
  Na  Na68  1  0.50115713  0.83310909  -0.00085553  1
  Na  Na69  1  0.50246025  0.83276399  0.24982707  1
  Na  Na70  1  0.49908179  0.83447721  0.50083512  1
  Na  Na71  1  0.49930765  0.83365416  0.74915543  1
  Na  Na72  1  0.24995218  0.16611841  0.12506839  1
  Na  Na73  1  0.24835331  0.16663438  0.37617393  1
  Na  Na74  1  0.24807448  0.16659778  0.62520175  1
  Na  Na75  1  0.24972795  0.16636496  0.87523556  1
  Na  Na76  1  0.25370956  0.49902487  0.12493493  1
  Na  Na77  1  0.25240612  0.49994608  0.37492692  1
  Na  Na78  1  0.25060904  0.50058859  0.62421619  1
  Na  Na79  1  0.25119207  0.50078452  0.87478815  1
  Na  Na80  1  0.24771114  0.83468918  0.12515809  1
  Na  Na81  1  0.25043194  0.83404330  0.37538399  1
  Na  Na82  1  0.25112689  0.83318788  0.62463166  1
  Na  Na83  1  0.24823606  0.83441125  0.87445361  1
  Na  Na84  1  0.74933408  0.16706014  0.12418501  1
  Na  Na85  1  0.75076849  0.16618507  0.37516608  1
  Na  Na86  1  0.75096878  0.16634842  0.62593589  1
  Na  Na87  1  0.75020690  0.16718378  0.87423323  1
  Na  Na88  1  0.75290290  0.49861523  0.12467549  1
  Na  Na89  1  0.75141584  0.49892160  0.37528394  1
  Na  Na90  1  0.74910414  0.50028298  0.62520190  1
  Na  Na91  1  0.75033344  0.50030854  0.87557753  1
  Na  Na92  1  0.74816931  0.83422882  0.12504657  1
  Na  Na93  1  0.75015183  0.83364240  0.37494988  1
  Na  Na94  1  0.75262516  0.83315212  0.62448156  1
  Na  Na95  1  0.75159836  0.83309650  0.87587409  1
  Mn  Mn96  1  0.10811205  0.74985581  0.37339590  1
  Mn  Mn97  1  0.89316868  0.91657720  0.12770813  1
  Mn  Mn98  1  0.10759962  0.41694828  0.37229345  1
  Mn  Mn99  1  0.64220479  0.24963522  0.74776481  1
  Mn  Mn100  1  0.14138768  0.25092936  0.74808268  1
  Mn  Mn101  1  0.60805033  0.08248493  0.37258700  1
  Mn  Mn102  1  0.89239034  0.24963133  0.12807164  1
  Mn  Mn103  1  0.89143468  0.58351354  0.62766206  1
  Mn  Mn104  1  0.60737266  0.41679390  0.87365135  1
  Mn  Mn105  1  0.35815865  0.41616991  0.50267941  1
  Mn  Mn106  1  0.35758292  0.75112390  0.00238702  1
  Mn  Mn107  1  0.10746714  0.41662465  0.87334296  1
  Mn  Mn108  1  0.39211506  0.25009024  0.12781151  1
  Mn  Mn109  1  0.85889554  0.08378801  0.00210863  1
  Mn  Mn110  1  0.14254516  0.25060757  0.99732840  1
  Mn  Mn111  1  0.60803115  0.08361560  0.62281294  1
  Mn  Mn112  1  0.39134840  0.91728744  0.87712266  1
  Mn  Mn113  1  0.10810662  0.74929643  0.12298932  1
  Mn  Mn114  1  0.85897176  0.08242346  0.75285562  1
  Mn  Mn115  1  0.14321670  0.58291733  0.24749731  1
  Mn  Mn116  1  0.60733099  0.75010856  0.62323080  1
  Mn  Mn117  1  0.60766072  0.41705880  0.37228989  1
  Mn  Mn118  1  0.39218958  0.25005211  0.62649746  1
  Mn  Mn119  1  0.64286428  0.91730718  0.49800826  1
  Mn  Mn120  1  0.85714860  0.75052916  0.25234768  1
  Mn  Mn121  1  0.85744155  0.41774453  0.75245536  1
  Mn  Mn122  1  0.35862817  0.75106450  0.25288068  1
  Mn  Mn123  1  0.64189458  0.58334003  0.49755522  1
  Mn  Mn124  1  0.14234889  0.58332321  0.99777046  1
  Mn  Mn125  1  0.10745448  0.41597814  0.62247833  1
  Mn  Mn126  1  0.35652835  0.08323930  0.50215227  1
  Mn  Mn127  1  0.60762460  0.41749486  0.12296538  1
  Mn  Mn128  1  0.85806380  0.74966432  0.00270101  1
  Mn  Mn129  1  0.35659168  0.08298360  0.75217621  1
  Mn  Mn130  1  0.89215633  0.24935686  0.37714294  1
  Mn  Mn131  1  0.10737087  0.74916230  0.87193236  1
  Mn  Mn132  1  0.60725634  0.08314795  0.87307122  1
  Mn  Mn133  1  0.64216331  0.91756443  0.99734723  1
  Mn  Mn134  1  0.64221087  0.58229233  0.99797361  1
  Mn  Mn135  1  0.60752991  0.74995336  0.87197038  1
  Mn  Mn136  1  0.10787880  0.41726329  0.12307955  1
  Mn  Mn137  1  0.10769473  0.75006219  0.62240340  1
  Mn  Mn138  1  0.14334308  0.58361619  0.49748980  1
  Mn  Mn139  1  0.89143174  0.58433583  0.37751025  1
  Mn  Mn140  1  0.39147227  0.91606039  0.12740045  1
  Mn  Mn141  1  0.60789260  0.08271986  0.12309153  1
  Mn  Mn142  1  0.64168338  0.58297708  0.24736606  1
  Mn  Mn143  1  0.35839104  0.41690613  0.75188207  1
  Fe  Fe144  1  0.85830248  0.08358481  0.50188730  1
  Fe  Fe145  1  0.14202023  0.91549898  0.74762769  1
  Fe  Fe146  1  0.14278415  0.91589511  0.49813379  1
  Fe  Fe147  1  0.14156513  0.25013656  0.49781225  1
  Fe  Fe148  1  0.14358001  0.25033392  0.24880797  1
  Fe  Fe149  1  0.35638150  0.08367923  0.25202672  1
  Fe  Fe150  1  0.85754054  0.41619835  0.00161205  1
  Fe  Fe151  1  0.89379225  0.91710327  0.87658831  1
  Fe  Fe152  1  0.89340680  0.91730856  0.62702801  1
  Fe  Fe153  1  0.89217693  0.58378532  0.12709290  1
  Fe  Fe154  1  0.35801529  0.41616829  0.00175925  1
  Fe  Fe155  1  0.60704804  0.74962617  0.12355733  1
  Fe  Fe156  1  0.39240063  0.58275203  0.87641621  1
  Fe  Fe157  1  0.10691705  0.08298372  0.37301694  1
  Fe  Fe158  1  0.10735755  0.08376546  0.87363319  1
  Fe  Fe159  1  0.39266895  0.58399151  0.12657582  1
  Fe  Fe160  1  0.10806696  0.08355495  0.12385828  1
  Fe  Fe161  1  0.39297163  0.58372824  0.37692169  1
  Fe  Fe162  1  0.60765770  0.41657462  0.62338387  1
  Fe  Fe163  1  0.14292306  0.58376040  0.74845213  1
  Fe  Fe164  1  0.39262426  0.24945749  0.37702845  1
  Fe  Fe165  1  0.10652836  0.08377168  0.62296622  1
  Fe  Fe166  1  0.89265905  0.24967031  0.87687635  1
  Fe  Fe167  1  0.35760570  0.41522807  0.25214478  1
  Fe  Fe168  1  0.89275677  0.91660958  0.37645998  1
  Fe  Fe169  1  0.14276066  0.91688746  0.24934523  1
  Fe  Fe170  1  0.64300449  0.24990595  0.99799589  1
  Fe  Fe171  1  0.39311074  0.58317449  0.62758989  1
  Fe  Fe172  1  0.85682105  0.41636200  0.50197867  1
  Fe  Fe173  1  0.64352916  0.24938807  0.49867695  1
  Fe  Fe174  1  0.35618573  0.08321089  0.00157318  1
  Fe  Fe175  1  0.35828542  0.75089180  0.50138346  1
  Fe  Fe176  1  0.85714291  0.74982844  0.75167127  1
  Fe  Fe177  1  0.14238058  0.91662873  0.99791574  1
  Fe  Fe178  1  0.64293588  0.24922468  0.24901029  1
  Fe  Fe179  1  0.39230451  0.91663646  0.37657936  1
  Fe  Fe180  1  0.60708955  0.75043861  0.37429975  1
  Fe  Fe181  1  0.35670484  0.75054708  0.75136958  1
  Fe  Fe182  1  0.39198933  0.91713355  0.62733072  1
  Fe  Fe183  1  0.89207424  0.58298953  0.87629449  1
  Fe  Fe184  1  0.89269210  0.24938009  0.62571306  1
  Fe  Fe185  1  0.64352091  0.91615123  0.74829919  1
  Fe  Fe186  1  0.85717603  0.75003726  0.50150020  1
  Fe  Fe187  1  0.85696433  0.41577429  0.25163841  1
  Fe  Fe188  1  0.85798462  0.08341084  0.25132923  1
  Fe  Fe189  1  0.64267205  0.91777671  0.24911589  1
  Fe  Fe190  1  0.39212800  0.24999267  0.87705522  1
  Fe  Fe191  1  0.64215868  0.58435850  0.74892805  1
  P  P192  1  0.05529056  0.24965715  0.11189273  1
  P  P193  1  0.05508362  0.24948899  0.36025517  1
  P  P194  1  0.05232068  0.24949124  0.60887167  1
  P  P195  1  0.05168348  0.24998712  0.86029013  1
  P  P196  1  0.05178181  0.58303477  0.10979326  1
  P  P197  1  0.05321862  0.58346951  0.35982878  1
  P  P198  1  0.05438034  0.58337176  0.61066600  1
  P  P199  1  0.05206690  0.58283459  0.85893918  1
  P  P200  1  0.05603736  0.91740654  0.11112941  1
  P  P201  1  0.05410382  0.91686268  0.36119624  1
  P  P202  1  0.05425724  0.91688452  0.61036263  1
  P  P203  1  0.05433063  0.91707760  0.86038743  1
  P  P204  1  0.55570050  0.24980202  0.11083130  1
  P  P205  1  0.55417192  0.24938938  0.36032575  1
  P  P206  1  0.55410807  0.25044445  0.60898901  1
  P  P207  1  0.55291843  0.24990820  0.86150890  1
  P  P208  1  0.55186254  0.58390001  0.10988524  1
  P  P209  1  0.55196828  0.58415369  0.36038908  1
  P  P210  1  0.55357928  0.58295589  0.61144534  1
  P  P211  1  0.55227447  0.58326640  0.85941490  1
  P  P212  1  0.55436993  0.91611891  0.11115089  1
  P  P213  1  0.55254643  0.91636252  0.35992375  1
  P  P214  1  0.55320932  0.91675657  0.61106134  1
  P  P215  1  0.55349926  0.91680345  0.85873876  1
  P  P216  1  0.44439137  0.08312256  0.13993669  1
  P  P217  1  0.44489278  0.08328574  0.38849572  1
  P  P218  1  0.44612858  0.08294875  0.63985273  1
  P  P219  1  0.44534686  0.08388122  0.89107252  1
  P  P220  1  0.44488824  0.41707267  0.13967031  1
  P  P221  1  0.44527884  0.41566576  0.38858010  1
  P  P222  1  0.44829567  0.41663927  0.63983941  1
  P  P223  1  0.44586829  0.41640289  0.89057884  1
  P  P224  1  0.44761687  0.74981585  0.13988689  1
  P  P225  1  0.44748465  0.75083793  0.39072322  1
  P  P226  1  0.44414470  0.75062907  0.63934687  1
  P  P227  1  0.44485322  0.74981285  0.88827330  1
  P  P228  1  0.94816535  0.08327773  0.14126469  1
  P  P229  1  0.94582960  0.08238722  0.38905474  1
  P  P230  1  0.94659117  0.08338138  0.63824664  1
  P  P231  1  0.94863257  0.08300671  0.89004170  1
  P  P232  1  0.94469333  0.41717453  0.13983392  1
  P  P233  1  0.94429288  0.41647432  0.38955044  1
  P  P234  1  0.94478923  0.41569728  0.63842836  1
  P  P235  1  0.94579062  0.41668185  0.89043550  1
  P  P236  1  0.94688478  0.74957483  0.14033257  1
  P  P237  1  0.94609124  0.75124381  0.39086570  1
  P  P238  1  0.94459382  0.75104145  0.63945728  1
  P  P239  1  0.94507070  0.75004636  0.88824983  1
  P  P240  1  0.19561769  0.08359166  0.23668279  1
  P  P241  1  0.19331280  0.08298838  0.48616676  1
  P  P242  1  0.19347799  0.08295518  0.73546835  1
  P  P243  1  0.19552005  0.08292514  0.98567347  1
  P  P244  1  0.19851108  0.41592365  0.23505659  1
  P  P245  1  0.19667634  0.41629101  0.48469713  1
  P  P246  1  0.19674659  0.41798812  0.73495409  1
  P  P247  1  0.19848996  0.41699649  0.98492986  1
  P  P248  1  0.19738867  0.75060337  0.23536428  1
  P  P249  1  0.19863732  0.75054885  0.48516731  1
  P  P250  1  0.19738746  0.74941238  0.73468536  1
  P  P251  1  0.19645962  0.75040662  0.98469495  1
  P  P252  1  0.69827858  0.08286982  0.23526259  1
  P  P253  1  0.69842708  0.08391587  0.48543240  1
  P  P254  1  0.69718352  0.08192416  0.73514205  1
  P  P255  1  0.69715211  0.08429835  0.98457272  1
  P  P256  1  0.69765510  0.41569216  0.23503046  1
  P  P257  1  0.69633174  0.41569332  0.48645892  1
  P  P258  1  0.69553685  0.41764406  0.73496158  1
  P  P259  1  0.69794356  0.41559936  0.98509359  1
  P  P260  1  0.69404710  0.75132509  0.23590080  1
  P  P261  1  0.69715191  0.75048149  0.48458537  1
  P  P262  1  0.69777986  0.75051996  0.73528125  1
  P  P263  1  0.69516398  0.74975569  0.98617296  1
  P  P264  1  0.30473124  0.24956445  0.01387786  1
  P  P265  1  0.30296509  0.24929402  0.26573644  1
  P  P266  1  0.30227153  0.24942274  0.51412210  1
  P  P267  1  0.30346645  0.24984736  0.76553480  1
  P  P268  1  0.30549755  0.58284856  0.01438067  1
  P  P269  1  0.30602688  0.58266361  0.26443027  1
  P  P270  1  0.30649759  0.58430365  0.51439876  1
  P  P271  1  0.30429844  0.58410612  0.76412226  1
  P  P272  1  0.30139608  0.91803373  0.01502579  1
  P  P273  1  0.30242403  0.91800667  0.26589194  1
  P  P274  1  0.30402391  0.91643786  0.51452134  1
  P  P275  1  0.30233170  0.91629026  0.76362321  1
  P  P276  1  0.80420958  0.25035307  0.01379670  1
  P  P277  1  0.80241922  0.24952568  0.26489413  1
  P  P278  1  0.80328664  0.24954251  0.51560553  1
  P  P279  1  0.80549537  0.24963973  0.76434741  1
  P  P280  1  0.80512260  0.58245139  0.01470995  1
  P  P281  1  0.80391326  0.58272183  0.26383532  1
  P  P282  1  0.80300091  0.58367344  0.51493227  1
  P  P283  1  0.80198579  0.58449362  0.76568081  1
  P  P284  1  0.80519536  0.91689298  0.01418140  1
  P  P285  1  0.80306956  0.91748226  0.26546441  1
  P  P286  1  0.80597128  0.91680762  0.51417863  1
  P  P287  1  0.80476918  0.91568493  0.76455241  1
  O  O288  1  0.05969474  0.25056405  0.18863262  1
  O  O289  1  0.05867216  0.25060732  0.43704879  1
  O  O290  1  0.05572971  0.25049369  0.68562515  1
  O  O291  1  0.05568775  0.25072010  0.93701938  1
  O  O292  1  0.05640006  0.58278929  0.18646970  1
  O  O293  1  0.05697131  0.58331341  0.43661414  1
  O  O294  1  0.05913275  0.58359477  0.68739362  1
  O  O295  1  0.05620764  0.58323779  0.93566471  1
  O  O296  1  0.05989805  0.91664930  0.18796374  1
  O  O297  1  0.05856770  0.91587525  0.43790385  1
  O  O298  1  0.05879602  0.91542311  0.68713571  1
  O  O299  1  0.05873938  0.91626209  0.93715783  1
  O  O300  1  0.56035981  0.24949569  0.18763423  1
  O  O301  1  0.55966666  0.24923227  0.43695895  1
  O  O302  1  0.55673024  0.24940640  0.68589187  1
  O  O303  1  0.55809685  0.24982564  0.93816494  1
  O  O304  1  0.55555088  0.58284802  0.18663913  1
  O  O305  1  0.55564158  0.58328726  0.43713479  1
  O  O306  1  0.55856451  0.58390901  0.68810561  1
  O  O307  1  0.55628957  0.58353364  0.93612898  1
  O  O308  1  0.55866258  0.91761045  0.18787392  1
  O  O309  1  0.55646097  0.91760165  0.43665457  1
  O  O310  1  0.55887018  0.91668490  0.68762415  1
  O  O311  1  0.55680534  0.91681624  0.93559320  1
  O  O312  1  0.43984970  0.08296102  0.06322336  1
  O  O313  1  0.44072747  0.08354733  0.31176618  1
  O  O314  1  0.44275566  0.08320372  0.56306743  1
  O  O315  1  0.44232360  0.08310465  0.81423941  1
  O  O316  1  0.44122454  0.41583632  0.06286813  1
  O  O317  1  0.44143045  0.41498136  0.31178089  1
  O  O318  1  0.44456685  0.41608119  0.56309887  1
  O  O319  1  0.44373888  0.41614038  0.81373284  1
  O  O320  1  0.44386452  0.75103369  0.06316072  1
  O  O321  1  0.44440085  0.75101382  0.31394610  1
  O  O322  1  0.44090885  0.75112486  0.56251256  1
  O  O323  1  0.44050052  0.75080298  0.81151709  1
  O  O324  1  0.94424224  0.08346321  0.06454139  1
  O  O325  1  0.94110551  0.08324343  0.31237394  1
  O  O326  1  0.94241945  0.08337217  0.56152150  1
  O  O327  1  0.94532127  0.08278228  0.81327369  1
  O  O328  1  0.94075375  0.41606541  0.06305092  1
  O  O329  1  0.93986805  0.41602323  0.31273556  1
  O  O330  1  0.94062736  0.41672146  0.56164289  1
  O  O331  1  0.94332865  0.41677633  0.81355477  1
  O  O332  1  0.94406045  0.75025106  0.06351049  1
  O  O333  1  0.94303909  0.75056465  0.31406627  1
  O  O334  1  0.94053809  0.74995379  0.56271504  1
  O  O335  1  0.94126810  0.74991106  0.81146386  1
  O  O336  1  0.19161314  0.08374064  0.06243895  1
  O  O337  1  0.19125199  0.08324647  0.31343618  1
  O  O338  1  0.18959744  0.08338132  0.56303532  1
  O  O339  1  0.18969225  0.08399392  0.81235414  1
  O  O340  1  0.19425817  0.41683618  0.06161593  1
  O  O341  1  0.19442191  0.41693392  0.31171921  1
  O  O342  1  0.19335054  0.41666193  0.56149897  1
  O  O343  1  0.19368490  0.41740884  0.81172701  1
  O  O344  1  0.19364142  0.74932331  0.06149198  1
  O  O345  1  0.19442248  0.74971035  0.31213842  1
  O  O346  1  0.19459733  0.74982270  0.56181882  1
  O  O347  1  0.19369520  0.74957138  0.81140502  1
  O  O348  1  0.69382476  0.08328237  0.06133883  1
  O  O349  1  0.69476928  0.08268526  0.31200869  1
  O  O350  1  0.69441399  0.08302499  0.56207215  1
  O  O351  1  0.69366699  0.08269241  0.81187206  1
  O  O352  1  0.69407290  0.41647574  0.06178263  1
  O  O353  1  0.69392496  0.41670597  0.31181260  1
  O  O354  1  0.69155023  0.41672142  0.56310951  1
  O  O355  1  0.69270018  0.41691998  0.81177841  1
  O  O356  1  0.69062199  0.74959756  0.06295210  1
  O  O357  1  0.68989152  0.75025120  0.31271598  1
  O  O358  1  0.69310756  0.75060476  0.56129907  1
  O  O359  1  0.69432119  0.75049364  0.81202438  1
  O  O360  1  0.30621314  0.24932559  0.18892894  1
  O  O361  1  0.30777616  0.24943266  0.43754102  1
  O  O362  1  0.30640640  0.24960463  0.68869858  1
  O  O363  1  0.30838425  0.24980420  0.93712889  1
  O  O364  1  0.30969671  0.58386863  0.18759368  1
  O  O365  1  0.31062056  0.58363391  0.43751156  1
  O  O366  1  0.30903999  0.58267680  0.68735727  1
  O  O367  1  0.30918002  0.58357617  0.93754288  1
  O  O368  1  0.30579924  0.91706254  0.18916892  1
  O  O369  1  0.30883062  0.91700635  0.43781566  1
  O  O370  1  0.30721706  0.91723149  0.68696367  1
  O  O371  1  0.30498306  0.91746288  0.93831229  1
  O  O372  1  0.80576870  0.24943915  0.18821469  1
  O  O373  1  0.80650510  0.24931916  0.43880030  1
  O  O374  1  0.80972893  0.24918303  0.68763648  1
  O  O375  1  0.80910790  0.24941339  0.93707125  1
  O  O376  1  0.80791875  0.58367542  0.18706492  1
  O  O377  1  0.80556846  0.58371783  0.43812106  1
  O  O378  1  0.80558517  0.58366591  0.68894649  1
  O  O379  1  0.80897303  0.58356143  0.93790620  1
  O  O380  1  0.80667868  0.91662629  0.18871470  1
  O  O381  1  0.80946744  0.91695304  0.43738485  1
  O  O382  1  0.80943025  0.91699649  0.68780802  1
  O  O383  1  0.81004527  0.91707672  0.93743534  1
  O  O384  1  0.23487783  0.24939716  0.03863817  1
  O  O385  1  0.23286672  0.24949267  0.29033951  1
  O  O386  1  0.23181615  0.24912245  0.53744908  1
  O  O387  1  0.23370186  0.25041207  0.79058027  1
  O  O388  1  0.23553623  0.58305873  0.03898076  1
  O  O389  1  0.23606578  0.58340837  0.28898410  1
  O  O390  1  0.23636524  0.58343556  0.53824616  1
  O  O391  1  0.23399684  0.58390470  0.78806710  1
  O  O392  1  0.23146035  0.91748665  0.03980690  1
  O  O393  1  0.23232469  0.91761646  0.29048743  1
  O  O394  1  0.23348548  0.91676913  0.53784140  1
  O  O395  1  0.23191980  0.91665897  0.78722057  1
  O  O396  1  0.73397513  0.25001616  0.03767298  1
  O  O397  1  0.73252609  0.24948340  0.29012731  1
  O  O398  1  0.73330593  0.24955650  0.54053105  1
  O  O399  1  0.73526625  0.25015742  0.78811047  1
  O  O400  1  0.73509216  0.58274674  0.03909645  1
  O  O401  1  0.73395050  0.58318240  0.28841010  1
  O  O402  1  0.73341836  0.58377860  0.54051368  1
  O  O403  1  0.73192922  0.58405733  0.79037266  1
  O  O404  1  0.73505031  0.91697964  0.03779461  1
  O  O405  1  0.73302192  0.91712114  0.29019020  1
  O  O406  1  0.73592079  0.91676113  0.53869359  1
  O  O407  1  0.73447414  0.91619477  0.78845064  1
  O  O408  1  0.26596307  0.08354703  0.21269068  1
  O  O409  1  0.26341570  0.08303275  0.46209981  1
  O  O410  1  0.26352388  0.08315677  0.71120761  1
  O  O411  1  0.26567871  0.08347372  0.96129969  1
  O  O412  1  0.26866639  0.41564275  0.21077693  1
  O  O413  1  0.26650132  0.41665936  0.46000759  1
  O  O414  1  0.26639569  0.41685351  0.70956783  1
  O  O415  1  0.26860320  0.41712605  0.96074857  1
  O  O416  1  0.26705827  0.75089722  0.20999268  1
  O  O417  1  0.26872209  0.75074850  0.46065224  1
  O  O418  1  0.26736911  0.74972645  0.70993800  1
  O  O419  1  0.26605347  0.75079694  0.95930486  1
  O  O420  1  0.76822284  0.08310904  0.21009590  1
  O  O421  1  0.76860781  0.08353549  0.46121515  1
  O  O422  1  0.76705389  0.08244717  0.71049255  1
  O  O423  1  0.76686579  0.08379356  0.95949947  1
  O  O424  1  0.76763789  0.41562258  0.21033129  1
  O  O425  1  0.76670112  0.41585902  0.46270978  1
  O  O426  1  0.76538570  0.41691620  0.71013170  1
  O  O427  1  0.76789168  0.41633772  0.96034841  1
  O  O428  1  0.76417366  0.75068113  0.21180942  1
  O  O429  1  0.76732336  0.75043937  0.46042092  1
  O  O430  1  0.76771340  0.75027311  0.71032390  1
  O  O431  1  0.76533214  0.75000103  0.96255379  1
  O  O432  1  0.01829041  0.08316803  0.16544926  1
  O  O433  1  0.01632470  0.08299300  0.41236976  1
  O  O434  1  0.01682724  0.08311425  0.66247192  1
  O  O435  1  0.01854212  0.08316409  0.91519013  1
  O  O436  1  0.01474335  0.41670764  0.16417260  1
  O  O437  1  0.01448754  0.41672360  0.41315728  1
  O  O438  1  0.01473088  0.41593435  0.66283604  1
  O  O439  1  0.01530675  0.41698901  0.91637806  1
  O  O440  1  0.01644764  0.74990276  0.16581952  1
  O  O441  1  0.01574062  0.75061155  0.41622854  1
  O  O442  1  0.01470779  0.75024202  0.66349384  1
  O  O443  1  0.01499279  0.74988556  0.91293714  1
  O  O444  1  0.51461779  0.08324606  0.16359976  1
  O  O445  1  0.51491937  0.08285514  0.41295360  1
  O  O446  1  0.51580957  0.08367162  0.66496475  1
  O  O447  1  0.51504671  0.08322860  0.91629575  1
  O  O448  1  0.51486497  0.41634193  0.16419688  1
  O  O449  1  0.51525423  0.41667630  0.41307828  1
  O  O450  1  0.51817468  0.41613319  0.66478010  1
  O  O451  1  0.51536171  0.41683532  0.91657954  1
  O  O452  1  0.51751226  0.74956851  0.16473391  1
  O  O453  1  0.51743791  0.75084998  0.41598067  1
  O  O454  1  0.51414699  0.75016241  0.66387816  1
  O  O455  1  0.51486853  0.75015156  0.91245546  1
  O  O456  1  0.48527427  0.24990778  0.08786287  1
  O  O457  1  0.48366211  0.24923125  0.33711137  1
  O  O458  1  0.48448229  0.24990866  0.58352697  1
  O  O459  1  0.48254595  0.24995834  0.83790505  1
  O  O460  1  0.48190031  0.58396953  0.08518032  1
  O  O461  1  0.48184745  0.58372703  0.33595412  1
  O  O462  1  0.48314262  0.58375221  0.58795810  1
  O  O463  1  0.48208819  0.58256864  0.83529235  1
  O  O464  1  0.48434965  0.91646251  0.08675647  1
  O  O465  1  0.48237097  0.91649024  0.33555345  1
  O  O466  1  0.48268401  0.91650720  0.58794865  1
  O  O467  1  0.48359045  0.91696262  0.83428310  1
  O  O468  1  0.98519658  0.24957740  0.08791796  1
  O  O469  1  0.98497085  0.24957430  0.33608974  1
  O  O470  1  0.98234217  0.24963108  0.58400656  1
  O  O471  1  0.98170520  0.24974686  0.83554582  1
  O  O472  1  0.98160648  0.58330528  0.08581065  1
  O  O473  1  0.98330957  0.58343247  0.33549083  1
  O  O474  1  0.98414086  0.58353496  0.58714867  1
  O  O475  1  0.98179307  0.58274772  0.83485607  1
  O  O476  1  0.98600290  0.91666601  0.08683377  1
  O  O477  1  0.98377124  0.91689121  0.33728895  1
  O  O478  1  0.98381319  0.91715826  0.58696884  1
  O  O479  1  0.98398714  0.91669388  0.83646147  1
  O  O480  1  0.08858774  0.31456592  0.07811573  1
  O  O481  1  0.08891656  0.31423049  0.32675202  1
  O  O482  1  0.08655492  0.31426803  0.57579541  1
  O  O483  1  0.08517199  0.31517093  0.82721227  1
  O  O484  1  0.08549075  0.64809234  0.07685056  1
  O  O485  1  0.08705755  0.64868185  0.32742443  1
  O  O486  1  0.08776116  0.64842538  0.57727147  1
  O  O487  1  0.08585684  0.64782098  0.82574242  1
  O  O488  1  0.08921912  0.98299136  0.07855411  1
  O  O489  1  0.08761094  0.98208811  0.32823242  1
  O  O490  1  0.08780673  0.98194160  0.57761874  1
  O  O491  1  0.08765428  0.98228881  0.82762982  1
  O  O492  1  0.58903024  0.31484054  0.07743606  1
  O  O493  1  0.58740008  0.31446707  0.32681170  1
  O  O494  1  0.58829586  0.31576538  0.57718527  1
  O  O495  1  0.58626570  0.31496244  0.82820319  1
  O  O496  1  0.58591377  0.64886834  0.07752583  1
  O  O497  1  0.58548989  0.64947166  0.32822236  1
  O  O498  1  0.58699613  0.64786794  0.57778818  1
  O  O499  1  0.58566138  0.64835399  0.82601203  1
  O  O500  1  0.58800663  0.98104510  0.07760640  1
  O  O501  1  0.58650177  0.98117226  0.32640111  1
  O  O502  1  0.58613895  0.98182480  0.57719156  1
  O  O503  1  0.58782821  0.98173259  0.82632827  1
  O  O504  1  0.41067755  0.01827240  0.17324322  1
  O  O505  1  0.41109486  0.01814445  0.42129593  1
  O  O506  1  0.41225798  0.01768311  0.67236436  1
  O  O507  1  0.41071516  0.01900032  0.92365712  1
  O  O508  1  0.41076730  0.35228945  0.17311201  1
  O  O509  1  0.41228874  0.35027614  0.42192718  1
  O  O510  1  0.41407931  0.35172247  0.67241501  1
  O  O511  1  0.41156831  0.35138873  0.92301832  1
  O  O512  1  0.41351925  0.68476962  0.17206804  1
  O  O513  1  0.41335251  0.68576750  0.42309801  1
  O  O514  1  0.41015715  0.68548600  0.67185856  1
  O  O515  1  0.41160543  0.68432228  0.92073286  1
  O  O516  1  0.91415983  0.01832563  0.17402292  1
  O  O517  1  0.91282677  0.01729115  0.42240061  1
  O  O518  1  0.91329302  0.01828542  0.67167721  1
  O  O519  1  0.91490102  0.01785152  0.92268372  1
  O  O520  1  0.91081586  0.35228566  0.17330569  1
  O  O521  1  0.91087677  0.35128353  0.42271571  1
  O  O522  1  0.91134687  0.35038940  0.67084201  1
  O  O523  1  0.91161328  0.35148166  0.92275060  1
  O  O524  1  0.91253534  0.68449286  0.17233826  1
  O  O525  1  0.91135068  0.68649942  0.42351834  1
  O  O526  1  0.91029207  0.68648573  0.67297085  1
  O  O527  1  0.91133744  0.68483026  0.92095048  1
  O  O528  1  0.16211834  0.01858704  0.20340633  1
  O  O529  1  0.15992290  0.01760104  0.45338946  1
  O  O530  1  0.15978553  0.01775023  0.70291347  1
  O  O531  1  0.16203799  0.01768884  0.95284731  1
  O  O532  1  0.16468137  0.35075680  0.20267257  1
  O  O533  1  0.16276521  0.35109159  0.45241096  1
  O  O534  1  0.16200568  0.35303767  0.70269853  1
  O  O535  1  0.16488910  0.35187794  0.95191951  1
  O  O536  1  0.16354481  0.68552831  0.20243649  1
  O  O537  1  0.16509798  0.68555822  0.45197248  1
  O  O538  1  0.16377131  0.68421405  0.70201803  1
  O  O539  1  0.16258945  0.68529535  0.95188658  1
  O  O540  1  0.66436404  0.01767868  0.20267822  1
  O  O541  1  0.66455981  0.01901573  0.45219683  1
  O  O542  1  0.66361069  0.01663816  0.70254669  1
  O  O543  1  0.66283371  0.01943765  0.95187184  1
  O  O544  1  0.66373639  0.35055802  0.20291147  1
  O  O545  1  0.66319240  0.35036771  0.45350792  1
  O  O546  1  0.66110152  0.35276400  0.70229238  1
  O  O547  1  0.66436275  0.35035937  0.95246190  1
  O  O548  1  0.66004711  0.68657502  0.20231016  1
  O  O549  1  0.66313730  0.68553752  0.45170725  1
  O  O550  1  0.66358604  0.68546813  0.70280947  1
  O  O551  1  0.66199082  0.68455038  0.95289258  1
  O  O552  1  0.33838941  0.31471536  0.04685650  1
  O  O553  1  0.33720087  0.31419595  0.29834985  1
  O  O554  1  0.33535844  0.31453588  0.54768184  1
  O  O555  1  0.33823201  0.31471084  0.79765371  1
  O  O556  1  0.33935444  0.64788870  0.04756027  1
  O  O557  1  0.34030315  0.64740156  0.29771161  1
  O  O558  1  0.33961216  0.64970934  0.54703466  1
  O  O559  1  0.33768528  0.64940980  0.79677295  1
  O  O560  1  0.33507349  0.98311855  0.04769191  1
  O  O561  1  0.33621089  0.98305227  0.29851338  1
  O  O562  1  0.33724413  0.98139479  0.54834638  1
  O  O563  1  0.33554140  0.98117563  0.79742642  1
  O  O564  1  0.83740426  0.31560636  0.04680072  1
  O  O565  1  0.83636850  0.31455332  0.29754364  1
  O  O566  1  0.83731379  0.31459460  0.54810098  1
  O  O567  1  0.83924204  0.31460774  0.79731794  1
  O  O568  1  0.83900712  0.64724247  0.04826739  1
  O  O569  1  0.83764463  0.64773346  0.29702526  1
  O  O570  1  0.83723921  0.64885514  0.54704625  1
  O  O571  1  0.83603271  0.64953613  0.79806555  1
  O  O572  1  0.83869464  0.98194385  0.04740045  1
  O  O573  1  0.83719199  0.98259943  0.29778919  1
  O  O574  1  0.83974129  0.98189125  0.54727555  1
  O  O575  1  0.83871840  0.98037728  0.79830579  1
  O  O576  1  0.41088196  0.14821081  0.17324772  1
  O  O577  1  0.41148480  0.14847174  0.42177245  1
  O  O578  1  0.41174636  0.14788743  0.67224000  1
  O  O579  1  0.41137232  0.14907933  0.92331061  1
  O  O580  1  0.41143313  0.48251378  0.17178835  1
  O  O581  1  0.41133136  0.48080661  0.42098493  1
  O  O582  1  0.41455610  0.48185964  0.67239342  1
  O  O583  1  0.41120623  0.48156110  0.92227680  1
  O  O584  1  0.41398569  0.81481654  0.17320665  1
  O  O585  1  0.41321932  0.81593526  0.42314013  1
  O  O586  1  0.41034128  0.81563323  0.67244990  1
  O  O587  1  0.41128238  0.81471582  0.92189015  1
  O  O588  1  0.91421576  0.14820131  0.17427543  1
  O  O589  1  0.91233512  0.14729304  0.42279208  1
  O  O590  1  0.91338412  0.14847561  0.67141901  1
  O  O591  1  0.91464300  0.14810399  0.92256568  1
  O  O592  1  0.91103181  0.48245110  0.17228709  1
  O  O593  1  0.91041659  0.48129703  0.42269317  1
  O  O594  1  0.91117477  0.48064403  0.67194782  1
  O  O595  1  0.91104925  0.48173430  0.92227207  1
  O  O596  1  0.91268479  0.81460321  0.17289753  1
  O  O597  1  0.91207893  0.81655227  0.42285427  1
  O  O598  1  0.91154090  0.81660916  0.67210463  1
  O  O599  1  0.91174132  0.81531849  0.92123893  1
  O  O600  1  0.08874101  0.18427258  0.07928912  1
  O  O601  1  0.08873232  0.18411565  0.32799566  1
  O  O602  1  0.08630321  0.18430622  0.57664739  1
  O  O603  1  0.08575439  0.18500581  0.82787033  1
  O  O604  1  0.08522158  0.51794991  0.07657360  1
  O  O605  1  0.08704004  0.51849810  0.32682893  1
  O  O606  1  0.08760587  0.51825486  0.57743403  1
  O  O607  1  0.08609152  0.51784415  0.82634576  1
  O  O608  1  0.09010174  0.85278791  0.07761034  1
  O  O609  1  0.08771318  0.85212688  0.32753390  1
  O  O610  1  0.08747242  0.85199071  0.57639361  1
  O  O611  1  0.08783566  0.85217269  0.82658546  1
  O  O612  1  0.58893886  0.18480466  0.07732013  1
  O  O613  1  0.58758042  0.18440428  0.32672503  1
  O  O614  1  0.58879961  0.18566835  0.57629603  1
  O  O615  1  0.58611966  0.18496924  0.82772911  1
  O  O616  1  0.58543696  0.51865472  0.07691279  1
  O  O617  1  0.58576864  0.51926567  0.32712990  1
  O  O618  1  0.58627724  0.51757126  0.57811987  1
  O  O619  1  0.58667211  0.51843299  0.82699434  1
  O  O620  1  0.58774389  0.85070278  0.07864870  1
  O  O621  1  0.58659973  0.85123072  0.32785055  1
  O  O622  1  0.58646318  0.85173422  0.57750497  1
  O  O623  1  0.58761296  0.85180366  0.82601462  1
  O  O624  1  0.33835539  0.18443441  0.04683571  1
  O  O625  1  0.33669140  0.18422338  0.29858193  1
  O  O626  1  0.33550125  0.18448645  0.54769201  1
  O  O627  1  0.33735606  0.18474218  0.79815847  1
  O  O628  1  0.33944284  0.51775290  0.04688564  1
  O  O629  1  0.33937572  0.51715627  0.29676758  1
  O  O630  1  0.34054972  0.51952841  0.54779629  1
  O  O631  1  0.33800885  0.51932168  0.79776365  1
  O  O632  1  0.33544124  0.85301597  0.04794029  1
  O  O633  1  0.33670785  0.85314557  0.29881518  1
  O  O634  1  0.33741956  0.85141655  0.54765863  1
  O  O635  1  0.33539064  0.85106927  0.79674704  1
  O  O636  1  0.83779895  0.18553762  0.04751655  1
  O  O637  1  0.83654963  0.18444686  0.29738764  1
  O  O638  1  0.83751557  0.18449560  0.54814252  1
  O  O639  1  0.83888272  0.18461109  0.79785820  1
  O  O640  1  0.83875641  0.51707824  0.04695886  1
  O  O641  1  0.83731964  0.51737262  0.29631657  1
  O  O642  1  0.83709545  0.51851767  0.54724745  1
  O  O643  1  0.83621955  0.51956731  0.79849170  1
  O  O644  1  0.83839308  0.85180004  0.04757006  1
  O  O645  1  0.83730410  0.85268605  0.29851708  1
  O  O646  1  0.83966675  0.85167176  0.54700909  1
  O  O647  1  0.83799668  0.85036320  0.79732512  1
  O  O648  1  0.16239954  0.14875729  0.20334379  1
  O  O649  1  0.15952273  0.14776370  0.45285050  1
  O  O650  1  0.15964652  0.14791759  0.70224625  1
  O  O651  1  0.16157549  0.14767143  0.95213837  1
  O  O652  1  0.16510856  0.48101954  0.20166950  1
  O  O653  1  0.16278180  0.48137219  0.45196963  1
  O  O654  1  0.16315475  0.48334601  0.70264301  1
  O  O655  1  0.16461572  0.48193348  0.95212354  1
  O  O656  1  0.16305818  0.81590525  0.20382899  1
  O  O657  1  0.16457034  0.81568299  0.45283471  1
  O  O658  1  0.16338664  0.81445040  0.70194885  1
  O  O659  1  0.16202716  0.81560284  0.95295097  1
  O  O660  1  0.66409111  0.14787387  0.20288764  1
  O  O661  1  0.66474240  0.14905102  0.45279561  1
  O  O662  1  0.66308708  0.14705496  0.70259391  1
  O  O663  1  0.66328549  0.14968682  0.95245215  1
  O  O664  1  0.66391767  0.48080524  0.20197201  1
  O  O665  1  0.66306418  0.48060856  0.45255955  1
  O  O666  1  0.66183622  0.48303754  0.70273671  1
  O  O667  1  0.66369822  0.48053467  0.95239137  1
  O  O668  1  0.66092043  0.81690820  0.20343228  1
  O  O669  1  0.66329188  0.81550067  0.45172892  1
  O  O670  1  0.66409043  0.81568571  0.70240032  1
  O  O671  1  0.66168404  0.81471505  0.95289225  1
