# generated using pymatgen
data_Na2MnFe(PO4)2
_symmetry_space_group_name_H-M   'P 1'
_cell_length_a   21.07592159
_cell_length_b   18.92653288
_cell_length_c   20.03599688
_cell_angle_alpha   89.99978599
_cell_angle_beta   89.99944852
_cell_angle_gamma   90.00121240
_symmetry_Int_Tables_number   1
_chemical_formula_structural   Na2MnFe(PO4)2
_chemical_formula_sum   'Na96 Mn48 Fe48 P96 O384'
_cell_volume   7992.24139902
_cell_formula_units_Z   48
loop_
 _symmetry_equiv_pos_site_id
 _symmetry_equiv_pos_as_xyz
  1  'x, y, z'
loop_
 _atom_site_type_symbol
 _atom_site_label
 _atom_site_symmetry_multiplicity
 _atom_site_fract_x
 _atom_site_fract_y
 _atom_site_fract_z
 _atom_site_occupancy
  Na  Na0  1  -0.00086485  -0.00063189  -0.00016987  1
  Na  Na1  1  0.00291932  0.00111360  0.25012847  1
  Na  Na2  1  0.00016845  -0.00061027  0.50022842  1
  Na  Na3  1  0.00049113  0.00031364  0.74982488  1
  Na  Na4  1  0.00054348  0.33272098  0.00074214  1
  Na  Na5  1  0.00304462  0.33381098  0.25025651  1
  Na  Na6  1  0.00290798  0.33421892  0.50009179  1
  Na  Na7  1  0.00026061  0.33344455  0.74971343  1
  Na  Na8  1  -0.00148946  0.66689180  0.00027634  1
  Na  Na9  1  0.00141435  0.66679688  0.24960786  1
  Na  Na10  1  0.00053498  0.66653320  0.49966575  1
  Na  Na11  1  -0.00270170  0.66603354  0.75024805  1
  Na  Na12  1  0.50204906  0.00007469  0.00015730  1
  Na  Na13  1  0.50189809  0.00080850  0.24930830  1
  Na  Na14  1  0.49744365  -0.00074065  0.50062642  1
  Na  Na15  1  0.50133092  0.00090456  0.74980000  1
  Na  Na16  1  0.50233764  0.33430635  -0.00060657  1
  Na  Na17  1  0.50002463  0.33307247  0.25058419  1
  Na  Na18  1  0.49928358  0.33371861  0.50013445  1
  Na  Na19  1  0.50053866  0.33337093  0.74972824  1
  Na  Na20  1  0.50294236  0.66754229  0.00061826  1
  Na  Na21  1  0.50158679  0.66704992  0.25046804  1
  Na  Na22  1  0.49934785  0.66657098  0.50017586  1
  Na  Na23  1  0.50018168  0.66680459  0.74869078  1
  Na  Na24  1  0.25019974  0.00049367  0.12557567  1
  Na  Na25  1  0.25087768  0.00036902  0.37522374  1
  Na  Na26  1  0.25000322  -0.00032395  0.62483936  1
  Na  Na27  1  0.25018237  0.00056398  0.87499138  1
  Na  Na28  1  0.24770776  0.33270534  0.12581848  1
  Na  Na29  1  0.24876752  0.33351135  0.37550341  1
  Na  Na30  1  0.24856842  0.33295331  0.62414477  1
  Na  Na31  1  0.24770401  0.33244941  0.87457502  1
  Na  Na32  1  0.24929117  0.66689786  0.12459716  1
  Na  Na33  1  0.24912099  0.66628957  0.37487578  1
  Na  Na34  1  0.25053311  0.66672988  0.62538962  1
  Na  Na35  1  0.24970403  0.66670306  0.87473521  1
  Na  Na36  1  0.74701385  -0.00085848  0.12384873  1
  Na  Na37  1  0.74824847  -0.00020161  0.37510107  1
  Na  Na38  1  0.75102873  0.00061870  0.62544907  1
  Na  Na39  1  0.74801037  -0.00103035  0.87485351  1
  Na  Na40  1  0.74844469  0.33290142  0.12567135  1
  Na  Na41  1  0.74940518  0.33371480  0.37503283  1
  Na  Na42  1  0.74915776  0.33313265  0.62481386  1
  Na  Na43  1  0.75160242  0.33400968  0.87512624  1
  Na  Na44  1  0.74893746  0.66700373  0.12575839  1
  Na  Na45  1  0.74931999  0.66613493  0.37535179  1
  Na  Na46  1  0.75196276  0.66698963  0.62403132  1
  Na  Na47  1  0.74952112  0.66643002  0.87464527  1
  Na  Na48  1  0.00149654  0.16657582  0.00069813  1
  Na  Na49  1  0.00358094  0.16648559  0.25065182  1
  Na  Na50  1  0.00428610  0.16586110  0.50005647  1
  Na  Na51  1  0.00058534  0.16720351  0.75011618  1
  Na  Na52  1  -0.00101913  0.50004741  0.00094893  1
  Na  Na53  1  0.00244207  0.49892707  0.25002529  1
  Na  Na54  1  -0.00047676  0.50071105  0.49936744  1
  Na  Na55  1  0.00037384  0.49907137  0.74943740  1
  Na  Na56  1  -0.00102159  0.83298331  -0.00057752  1
  Na  Na57  1  0.00184271  0.83227919  0.24923349  1
  Na  Na58  1  -0.00024414  0.83318429  0.50057977  1
  Na  Na59  1  -0.00321641  0.83409881  0.75005735  1
  Na  Na60  1  0.50239590  0.16579561  -0.00047311  1
  Na  Na61  1  0.50023163  0.16678161  0.25005311  1
  Na  Na62  1  0.49759506  0.16779275  0.50017615  1
  Na  Na63  1  0.49915945  0.16691646  0.74961733  1
  Na  Na64  1  0.50052395  0.50096941  -0.00000658  1
  Na  Na65  1  0.50321043  0.49826669  0.25048981  1
  Na  Na66  1  0.49889680  0.50031087  0.50052196  1
  Na  Na67  1  0.50144229  0.49914892  0.74913271  1
  Na  Na68  1  0.50307781  0.83283943  0.00045195  1
  Na  Na69  1  0.50161968  0.83231247  0.25026824  1
  Na  Na70  1  0.49887040  0.83336640  0.50009442  1
  Na  Na71  1  0.50148591  0.83305396  0.74935348  1
  Na  Na72  1  0.24853351  0.16717089  0.12609500  1
  Na  Na73  1  0.24954146  0.16688281  0.37558202  1
  Na  Na74  1  0.24850392  0.16753246  0.62418724  1
  Na  Na75  1  0.24846384  0.16706178  0.87429031  1
  Na  Na76  1  0.24773388  0.50055940  0.12530971  1
  Na  Na77  1  0.24867512  0.50031930  0.37529719  1
  Na  Na78  1  0.24947425  0.50026557  0.62525332  1
  Na  Na79  1  0.25005277  0.49950179  0.87501284  1
  Na  Na80  1  0.25035419  0.83261506  0.12467881  1
  Na  Na81  1  0.25064267  0.83229887  0.37471650  1
  Na  Na82  1  0.25139879  0.83251809  0.62472941  1
  Na  Na83  1  0.24852014  0.83442960  0.87516127  1
  Na  Na84  1  0.74818900  0.16747265  0.12431888  1
  Na  Na85  1  0.74919389  0.16710841  0.37464467  1
  Na  Na86  1  0.74971214  0.16718421  0.62598183  1
  Na  Na87  1  0.74919705  0.16694663  0.87537180  1
  Na  Na88  1  0.74881776  0.50008832  0.12618827  1
  Na  Na89  1  0.74962521  0.49964925  0.37570171  1
  Na  Na90  1  0.75004792  0.49990527  0.62322808  1
  Na  Na91  1  0.74951020  0.49990813  0.87426412  1
  Na  Na92  1  0.74663240  0.83419501  0.12509729  1
  Na  Na93  1  0.74780830  0.83399924  0.37480196  1
  Na  Na94  1  0.75151706  0.83325082  0.62536364  1
  Na  Na95  1  0.75120238  0.83268532  0.87472327  1
  Mn  Mn96  1  0.89355330  0.25021245  0.37749679  1
  Mn  Mn97  1  0.35779019  0.41596011  0.00255335  1
  Mn  Mn98  1  0.89234350  0.91647135  0.37654717  1
  Mn  Mn99  1  0.10692713  0.41679462  0.87309851  1
  Mn  Mn100  1  0.35792114  0.08335336  0.25191114  1
  Mn  Mn101  1  0.35675123  0.08341368  0.75204402  1
  Mn  Mn102  1  0.35716245  0.41631443  0.75186265  1
  Mn  Mn103  1  0.39270683  0.25048311  0.12640303  1
  Mn  Mn104  1  0.39189760  0.24979003  0.87760022  1
  Mn  Mn105  1  0.39362792  0.91636055  0.12681718  1
  Mn  Mn106  1  0.85728546  0.75022616  0.25229930  1
  Mn  Mn107  1  0.85808201  0.08324277  0.75241409  1
  Mn  Mn108  1  0.39193684  0.58265719  0.37678374  1
  Mn  Mn109  1  0.89185971  0.91715953  0.12746439  1
  Mn  Mn110  1  0.85784644  0.41670568  0.75139690  1
  Mn  Mn111  1  0.64132254  0.24999049  0.24784500  1
  Mn  Mn112  1  0.39287016  0.58320144  0.12748454  1
  Mn  Mn113  1  0.85697237  0.08340807  0.00270342  1
  Mn  Mn114  1  0.60713581  0.08348581  0.37323432  1
  Mn  Mn115  1  0.64186351  0.91744535  0.49853518  1
  Mn  Mn116  1  0.64228173  0.25027475  0.74745174  1
  Mn  Mn117  1  0.14218897  0.91718781  0.99762738  1
  Mn  Mn118  1  0.35790280  0.75038930  0.75298411  1
  Mn  Mn119  1  0.85826718  0.74993111  0.50128676  1
  Mn  Mn120  1  0.64256366  0.58317168  0.99756823  1
  Mn  Mn121  1  0.60704662  0.08420501  0.62232676  1
  Mn  Mn122  1  0.14245462  0.91620880  0.24744172  1
  Mn  Mn123  1  0.85789313  0.08333785  0.25186675  1
  Mn  Mn124  1  0.60869884  0.41698233  0.87216486  1
  Mn  Mn125  1  0.35866931  0.75039577  0.00198967  1
  Mn  Mn126  1  0.89329090  0.24996021  0.62627960  1
  Mn  Mn127  1  0.85869279  0.08446787  0.50169652  1
  Mn  Mn128  1  0.64235541  0.58286714  0.49761150  1
  Mn  Mn129  1  0.39244692  0.91686063  0.37688526  1
  Mn  Mn130  1  0.14255603  0.91592473  0.49777636  1
  Mn  Mn131  1  0.60750914  0.74972143  0.62233959  1
  Mn  Mn132  1  0.89073020  0.58274089  0.87760080  1
  Mn  Mn133  1  0.10703890  0.74980461  0.62306980  1
  Mn  Mn134  1  0.89239329  0.58312680  0.12792173  1
  Mn  Mn135  1  0.89303879  0.24945467  0.12730844  1
  Mn  Mn136  1  0.85780560  0.41673597  0.25246738  1
  Mn  Mn137  1  0.39314961  0.91643091  0.87687812  1
  Mn  Mn138  1  0.35736031  0.41735253  0.25191936  1
  Mn  Mn139  1  0.10616706  0.75006184  0.87264632  1
  Mn  Mn140  1  0.10761401  0.08267741  0.87293590  1
  Mn  Mn141  1  0.14185479  0.58313877  0.99734994  1
  Mn  Mn142  1  0.14148649  0.58368325  0.74740963  1
  Mn  Mn143  1  0.39325870  0.58389002  0.87704007  1
  Fe  Fe144  1  0.10823793  0.08290489  0.12248796  1
  Fe  Fe145  1  0.64181350  0.25006700  0.49849426  1
  Fe  Fe146  1  0.60886677  0.75042729  0.87238609  1
  Fe  Fe147  1  0.60777201  0.08384198  0.12256138  1
  Fe  Fe148  1  0.64282658  0.58373192  0.74724285  1
  Fe  Fe149  1  0.10747804  0.41654833  0.12256470  1
  Fe  Fe150  1  0.60795028  0.41643907  0.12293879  1
  Fe  Fe151  1  0.14229691  0.58351676  0.24821930  1
  Fe  Fe152  1  0.60691734  0.41675214  0.37409641  1
  Fe  Fe153  1  0.89294769  0.58322396  0.62612744  1
  Fe  Fe154  1  0.85766494  0.41591725  0.50116765  1
  Fe  Fe155  1  0.85609838  0.74976351  0.00219949  1
  Fe  Fe156  1  0.35680932  0.41721302  0.50178511  1
  Fe  Fe157  1  0.85653867  0.74981750  0.75154202  1
  Fe  Fe158  1  0.85712809  0.41663992  0.00228528  1
  Fe  Fe159  1  0.60764335  0.74961396  0.12323536  1
  Fe  Fe160  1  0.14255651  0.58338938  0.49865531  1
  Fe  Fe161  1  0.10758384  0.75023596  0.12253871  1
  Fe  Fe162  1  0.64178804  0.91657342  0.24822214  1
  Fe  Fe163  1  0.39202639  0.25044300  0.62663555  1
  Fe  Fe164  1  0.64302050  0.24997752  0.99777493  1
  Fe  Fe165  1  0.35739516  0.74950334  0.25138256  1
  Fe  Fe166  1  0.60700095  0.74942966  0.37343321  1
  Fe  Fe167  1  0.10757334  0.08296496  0.62320517  1
  Fe  Fe168  1  0.35668838  0.08339801  0.50193361  1
  Fe  Fe169  1  0.39222715  0.58299068  0.62685750  1
  Fe  Fe170  1  0.14264727  0.24970086  0.99831075  1
  Fe  Fe171  1  0.14377502  0.25051277  0.49829986  1
  Fe  Fe172  1  0.14162804  0.24968555  0.74764454  1
  Fe  Fe173  1  0.89284205  0.24944402  0.87723097  1
  Fe  Fe174  1  0.35734417  0.74945020  0.50116113  1
  Fe  Fe175  1  0.64265264  0.58365699  0.24901684  1
  Fe  Fe176  1  0.39199987  0.91677891  0.62740037  1
  Fe  Fe177  1  0.14327154  0.25048242  0.24853393  1
  Fe  Fe178  1  0.89189563  0.91757670  0.87696241  1
  Fe  Fe179  1  0.10831587  0.74974263  0.37321578  1
  Fe  Fe180  1  0.60679592  0.41635536  0.62262607  1
  Fe  Fe181  1  0.64280651  0.91681036  0.99708628  1
  Fe  Fe182  1  0.10792350  0.41724702  0.37360496  1
  Fe  Fe183  1  0.14160365  0.91666705  0.74800393  1
  Fe  Fe184  1  0.89367678  0.58308730  0.37620095  1
  Fe  Fe185  1  0.10746463  0.41708705  0.62254420  1
  Fe  Fe186  1  0.35780769  0.08370995  0.00157931  1
  Fe  Fe187  1  0.39180320  0.25055774  0.37695228  1
  Fe  Fe188  1  0.60731282  0.08298996  0.87280896  1
  Fe  Fe189  1  0.64347892  0.91612392  0.74766476  1
  Fe  Fe190  1  0.10874199  0.08270414  0.37347692  1
  Fe  Fe191  1  0.89265675  0.91663444  0.62682016  1
  P  P192  1  0.05609541  0.24991289  0.11095073  1
  P  P193  1  0.05664501  0.25041294  0.36124529  1
  P  P194  1  0.05595468  0.25007212  0.61039736  1
  P  P195  1  0.05368360  0.24988186  0.86062039  1
  P  P196  1  0.05482898  0.58347723  0.11116692  1
  P  P197  1  0.05471572  0.58331311  0.36081132  1
  P  P198  1  0.05270986  0.58287213  0.60923232  1
  P  P199  1  0.05193744  0.58326690  0.85984282  1
  P  P200  1  0.05353647  0.91645827  0.10963344  1
  P  P201  1  0.05399175  0.91602366  0.36009553  1
  P  P202  1  0.05312915  0.91691303  0.61123518  1
  P  P203  1  0.05190545  0.91644686  0.85932022  1
  P  P204  1  0.55437535  0.25034811  0.10916218  1
  P  P205  1  0.55257269  0.25085967  0.36165018  1
  P  P206  1  0.55231156  0.25079998  0.60936683  1
  P  P207  1  0.55445894  0.24916237  0.86060992  1
  P  P208  1  0.55524089  0.58317719  0.11161749  1
  P  P209  1  0.55387050  0.58296170  0.36017907  1
  P  P210  1  0.55325744  0.58264818  0.61076779  1
  P  P211  1  0.55494642  0.58446813  0.85857008  1
  P  P212  1  0.55613607  0.91638178  0.11050124  1
  P  P213  1  0.55376610  0.91599224  0.35980505  1
  P  P214  1  0.55270197  0.91675687  0.61107136  1
  P  P215  1  0.55592521  0.91665176  0.85999953  1
  P  P216  1  0.44743552  0.08362764  0.13853555  1
  P  P217  1  0.44541465  0.08425202  0.39063208  1
  P  P218  1  0.44437630  0.08376597  0.63880152  1
  P  P219  1  0.44731798  0.08293119  0.89039188  1
  P  P220  1  0.44849951  0.41654912  0.14018240  1
  P  P221  1  0.44653768  0.41630345  0.39061489  1
  P  P222  1  0.44575425  0.41651696  0.63852252  1
  P  P223  1  0.44714611  0.41685152  0.88990872  1
  P  P224  1  0.44794851  0.74992894  0.14069139  1
  P  P225  1  0.44601694  0.74945315  0.38927715  1
  P  P226  1  0.44456616  0.74983177  0.63858770  1
  P  P227  1  0.44947761  0.75035992  0.89004164  1
  P  P228  1  0.94862775  0.08352519  0.14025094  1
  P  P229  1  0.94910184  0.08352186  0.38978585  1
  P  P230  1  0.94815100  0.08329452  0.63976060  1
  P  P231  1  0.94635136  0.08355087  0.89027411  1
  P  P232  1  0.94706465  0.41611175  0.13941016  1
  P  P233  1  0.94789820  0.41708638  0.39014257  1
  P  P234  1  0.94695193  0.41710473  0.63805674  1
  P  P235  1  0.94536514  0.41549383  0.89091654  1
  P  P236  1  0.94641036  0.75013267  0.13898888  1
  P  P237  1  0.94847170  0.74919388  0.38933054  1
  P  P238  1  0.94531246  0.74949359  0.64026672  1
  P  P239  1  0.94326204  0.75079534  0.88955521  1
  P  P240  1  0.19515484  0.08397280  0.23585237  1
  P  P241  1  0.19625104  0.08357152  0.48605715  1
  P  P242  1  0.19513615  0.08313957  0.73419731  1
  P  P243  1  0.19694818  0.08408670  0.98587129  1
  P  P244  1  0.19453604  0.41702236  0.23606620  1
  P  P245  1  0.19594221  0.41736285  0.48601022  1
  P  P246  1  0.19514088  0.41601370  0.73410142  1
  P  P247  1  0.19548648  0.41564798  0.98588360  1
  P  P248  1  0.19599114  0.74905943  0.23524064  1
  P  P249  1  0.19725633  0.74893538  0.48491887  1
  P  P250  1  0.19619585  0.75100075  0.73499148  1
  P  P251  1  0.19571862  0.75022928  0.98525710  1
  P  P252  1  0.69566805  0.08288288  0.23418147  1
  P  P253  1  0.69672965  0.08462436  0.48522788  1
  P  P254  1  0.69545749  0.08247568  0.73598074  1
  P  P255  1  0.69453439  0.08360954  0.98524556  1
  P  P256  1  0.69455953  0.41750122  0.23622137  1
  P  P257  1  0.69570788  0.41564268  0.48560536  1
  P  P258  1  0.69595833  0.41755147  0.73340320  1
  P  P259  1  0.69697471  0.41596939  0.98601961  1
  P  P260  1  0.69441834  0.74963327  0.23616939  1
  P  P261  1  0.69609971  0.75009378  0.48442813  1
  P  P262  1  0.69663539  0.75007466  0.73547345  1
  P  P263  1  0.69591838  0.75045311  0.98529539  1
  P  P264  1  0.30193675  0.24893816  0.01526517  1
  P  P265  1  0.30295286  0.25044609  0.26564626  1
  P  P266  1  0.30416287  0.25063143  0.51397166  1
  P  P267  1  0.30244639  0.25005122  0.76371108  1
  P  P268  1  0.30352719  0.58332269  0.01525205  1
  P  P269  1  0.30184891  0.58396760  0.26469570  1
  P  P270  1  0.30274679  0.58311425  0.51516896  1
  P  P271  1  0.30409586  0.58303167  0.76430218  1
  P  P272  1  0.30392467  0.91788880  0.01505068  1
  P  P273  1  0.30378101  0.91559526  0.26457554  1
  P  P274  1  0.30417260  0.91625614  0.51521223  1
  P  P275  1  0.30264487  0.91699095  0.76433043  1
  P  P276  1  0.80340027  0.25063462  0.01423006  1
  P  P277  1  0.80327203  0.25007358  0.26528228  1
  P  P278  1  0.80221581  0.25091401  0.51481372  1
  P  P279  1  0.80437097  0.25006919  0.76559428  1
  P  P280  1  0.80320791  0.58314517  0.01557169  1
  P  P281  1  0.80274274  0.58340934  0.26601224  1
  P  P282  1  0.80585452  0.58214228  0.51360853  1
  P  P283  1  0.80314523  0.58362557  0.76304982  1
  P  P284  1  0.80281994  0.91603026  0.01388118  1
  P  P285  1  0.80128782  0.91685667  0.26478329  1
  P  P286  1  0.80411247  0.91704341  0.51555416  1
  P  P287  1  0.80431282  0.91617791  0.76433337  1
  O  O288  1  0.05978804  0.25015286  0.18777754  1
  O  O289  1  0.06054665  0.25046297  0.43811879  1
  O  O290  1  0.05846423  0.25020929  0.68732516  1
  O  O291  1  0.05849214  0.24969851  0.93733994  1
  O  O292  1  0.05856289  0.58354320  0.18799669  1
  O  O293  1  0.05902179  0.58354337  0.43754198  1
  O  O294  1  0.05586492  0.58331674  0.68598575  1
  O  O295  1  0.05542065  0.58357923  0.93663144  1
  O  O296  1  0.05682974  0.91637058  0.18640534  1
  O  O297  1  0.05656566  0.91586836  0.43694196  1
  O  O298  1  0.05759737  0.91635113  0.68791328  1
  O  O299  1  0.05622997  0.91639478  0.93602060  1
  O  O300  1  0.55626429  0.25006611  0.18602045  1
  O  O301  1  0.55717844  0.25023278  0.43830400  1
  O  O302  1  0.55640908  0.24997029  0.68607582  1
  O  O303  1  0.55896975  0.25015255  0.93734026  1
  O  O304  1  0.55866312  0.58311443  0.18835177  1
  O  O305  1  0.55618922  0.58320086  0.43703147  1
  O  O306  1  0.55839339  0.58347421  0.68739351  1
  O  O307  1  0.55776827  0.58368916  0.93547210  1
  O  O308  1  0.55905848  0.91661228  0.18738364  1
  O  O309  1  0.55603743  0.91677677  0.43665378  1
  O  O310  1  0.55832680  0.91666619  0.68768037  1
  O  O311  1  0.55954413  0.91634011  0.93690377  1
  O  O312  1  0.44241226  0.08360092  0.06189306  1
  O  O313  1  0.44312483  0.08363746  0.31373043  1
  O  O314  1  0.44016894  0.08359576  0.56202739  1
  O  O315  1  0.44276200  0.08323383  0.81365558  1
  O  O316  1  0.44430772  0.41683925  0.06348007  1
  O  O317  1  0.44298302  0.41673526  0.31388573  1
  O  O318  1  0.44084275  0.41681971  0.56183322  1
  O  O319  1  0.44346404  0.41636215  0.81310790  1
  O  O320  1  0.44418306  0.74997423  0.06393332  1
  O  O321  1  0.44122346  0.74927797  0.31258768  1
  O  O322  1  0.44053481  0.74969176  0.56177001  1
  O  O323  1  0.44482680  0.75052866  0.81331946  1
  O  O324  1  0.94362522  0.08358249  0.06357869  1
  O  O325  1  0.94486713  0.08389077  0.31311107  1
  O  O326  1  0.94477124  0.08387430  0.56301929  1
  O  O327  1  0.94378705  0.08365237  0.81346515  1
  O  O328  1  0.94147959  0.41617762  0.06278570  1
  O  O329  1  0.94423341  0.41620072  0.31340076  1
  O  O330  1  0.94223031  0.41618770  0.56142022  1
  O  O331  1  0.94292656  0.41650226  0.81402321  1
  O  O332  1  0.94067017  0.75017012  0.06234953  1
  O  O333  1  0.94450971  0.74976037  0.31262509  1
  O  O334  1  0.94337978  0.74974427  0.56342216  1
  O  O335  1  0.93938093  0.74975077  0.81272011  1
  O  O336  1  0.19245399  0.08307766  0.06260348  1
  O  O337  1  0.19162041  0.08279128  0.31272643  1
  O  O338  1  0.19151137  0.08263513  0.56272987  1
  O  O339  1  0.19261281  0.08299299  0.81106894  1
  O  O340  1  0.19157513  0.41664705  0.06270199  1
  O  O341  1  0.19123833  0.41725726  0.31294418  1
  O  O342  1  0.19155571  0.41749995  0.56270749  1
  O  O343  1  0.19226027  0.41670841  0.81094112  1
  O  O344  1  0.19132755  0.75019535  0.06207786  1
  O  O345  1  0.19153659  0.74975261  0.31202765  1
  O  O346  1  0.19321947  0.74962914  0.56157433  1
  O  O347  1  0.19260586  0.75058329  0.81176168  1
  O  O348  1  0.69091334  0.08376460  0.06209504  1
  O  O349  1  0.69268104  0.08375094  0.31101806  1
  O  O350  1  0.69358976  0.08413991  0.56204105  1
  O  O351  1  0.69149251  0.08317876  0.81273432  1
  O  O352  1  0.69236752  0.41641610  0.06273645  1
  O  O353  1  0.69046916  0.41651541  0.31300593  1
  O  O354  1  0.69075860  0.41634876  0.56229383  1
  O  O355  1  0.69351125  0.41670381  0.81028390  1
  O  O356  1  0.69146540  0.74987259  0.06203160  1
  O  O357  1  0.69076260  0.74955899  0.31297575  1
  O  O358  1  0.69326726  0.74978663  0.56127875  1
  O  O359  1  0.69284452  0.74993489  0.81222580  1
  O  O360  1  0.30694760  0.25048637  0.18892464  1
  O  O361  1  0.30834418  0.25078300  0.43722765  1
  O  O362  1  0.30769499  0.25034785  0.68704674  1
  O  O363  1  0.30545594  0.24959341  0.93846563  1
  O  O364  1  0.30597484  0.58326649  0.18803878  1
  O  O365  1  0.30615482  0.58289038  0.43842068  1
  O  O366  1  0.30868672  0.58300813  0.68750127  1
  O  O367  1  0.30708257  0.58339698  0.93842925  1
  O  O368  1  0.30710549  0.91618032  0.18781532  1
  O  O369  1  0.30693546  0.91632884  0.43838532  1
  O  O370  1  0.30790441  0.91662378  0.68765991  1
  O  O371  1  0.30699363  0.91721055  0.93822370  1
  O  O372  1  0.80684456  0.25009348  0.18846969  1
  O  O373  1  0.80646278  0.25031968  0.43813019  1
  O  O374  1  0.80803739  0.24983399  0.68879297  1
  O  O375  1  0.80822567  0.24980212  0.93757066  1
  O  O376  1  0.80661619  0.58336800  0.18924180  1
  O  O377  1  0.81016434  0.58286705  0.43686230  1
  O  O378  1  0.80810977  0.58285285  0.68637667  1
  O  O379  1  0.80539936  0.58285356  0.93869206  1
  O  O380  1  0.80529156  0.91676080  0.18803252  1
  O  O381  1  0.80693811  0.91694138  0.43868759  1
  O  O382  1  0.80929587  0.91742841  0.68759013  1
  O  O383  1  0.80761861  0.91700055  0.93720284  1
  O  O384  1  0.23209151  0.24945358  0.04026241  1
  O  O385  1  0.23273926  0.25036165  0.28972838  1
  O  O386  1  0.23358417  0.25059252  0.53748830  1
  O  O387  1  0.23195589  0.24966784  0.78695478  1
  O  O388  1  0.23370461  0.58345058  0.03988441  1
  O  O389  1  0.23178226  0.58343527  0.28917141  1
  O  O390  1  0.23255379  0.58324820  0.53975571  1
  O  O391  1  0.23397849  0.58324520  0.78815882  1
  O  O392  1  0.23429630  0.91707737  0.04039078  1
  O  O393  1  0.23411932  0.91617879  0.28981371  1
  O  O394  1  0.23431609  0.91611258  0.54024705  1
  O  O395  1  0.23225398  0.91739747  0.78780810  1
  O  O396  1  0.73303532  0.25006044  0.03794175  1
  O  O397  1  0.73334799  0.25043042  0.28974468  1
  O  O398  1  0.73218638  0.25063938  0.53949221  1
  O  O399  1  0.73439949  0.25043165  0.78987097  1
  O  O400  1  0.73369604  0.58333469  0.04123028  1
  O  O401  1  0.73258455  0.58315776  0.29017844  1
  O  O402  1  0.73561391  0.58299766  0.53741772  1
  O  O403  1  0.73290808  0.58332061  0.78711670  1
  O  O404  1  0.73233581  0.91673436  0.03722094  1
  O  O405  1  0.73115377  0.91661240  0.28903038  1
  O  O406  1  0.73438905  0.91696297  0.54078092  1
  O  O407  1  0.73389013  0.91609939  0.78778387  1
  O  O408  1  0.26520619  0.08350942  0.21151197  1
  O  O409  1  0.26676177  0.08347859  0.46255784  1
  O  O410  1  0.26478134  0.08355348  0.70883685  1
  O  O411  1  0.26696602  0.08402291  0.96124110  1
  O  O412  1  0.26447785  0.41695025  0.21124288  1
  O  O413  1  0.26635999  0.41703901  0.46211473  1
  O  O414  1  0.26486626  0.41637709  0.70897987  1
  O  O415  1  0.26527882  0.41575922  0.96103122  1
  O  O416  1  0.26636221  0.74957166  0.21136095  1
  O  O417  1  0.26751799  0.74932241  0.46071809  1
  O  O418  1  0.26599296  0.75015733  0.71025395  1
  O  O419  1  0.26577169  0.75056807  0.96110943  1
  O  O420  1  0.76529538  0.08332819  0.20858733  1
  O  O421  1  0.76630390  0.08389214  0.45971562  1
  O  O422  1  0.76549579  0.08328699  0.71169045  1
  O  O423  1  0.76455949  0.08311465  0.96087444  1
  O  O424  1  0.76468114  0.41670394  0.21204699  1
  O  O425  1  0.76614160  0.41642012  0.46200053  1
  O  O426  1  0.76568087  0.41674407  0.70826536  1
  O  O427  1  0.76713122  0.41672715  0.96175704  1
  O  O428  1  0.76436665  0.75019795  0.21138034  1
  O  O429  1  0.76584694  0.75006300  0.45935752  1
  O  O430  1  0.76678937  0.75035443  0.71101415  1
  O  O431  1  0.76622044  0.74957043  0.96142658  1
  O  O432  1  0.01895320  0.08374682  0.16376053  1
  O  O433  1  0.01929457  0.08309632  0.41404563  1
  O  O434  1  0.01810539  0.08378709  0.66465983  1
  O  O435  1  0.01596254  0.08294105  0.91574214  1
  O  O436  1  0.01757429  0.41613165  0.16245739  1
  O  O437  1  0.01818063  0.41721700  0.41424639  1
  O  O438  1  0.01723125  0.41658912  0.66205193  1
  O  O439  1  0.01498505  0.41646799  0.91632450  1
  O  O440  1  0.01695805  0.74984959  0.16197301  1
  O  O441  1  0.01848027  0.74944576  0.41415503  1
  O  O442  1  0.01483297  0.74966998  0.66615232  1
  O  O443  1  0.01333519  0.75003590  0.91374889  1
  O  O444  1  0.51785955  0.08372094  0.16206242  1
  O  O445  1  0.51501146  0.08352702  0.41620168  1
  O  O446  1  0.51440917  0.08412512  0.66308906  1
  O  O447  1  0.51766572  0.08265874  0.91389752  1
  O  O448  1  0.51858545  0.41582678  0.16443969  1
  O  O449  1  0.51667303  0.41720945  0.41509833  1
  O  O450  1  0.51614186  0.41604296  0.66228172  1
  O  O451  1  0.51707044  0.41741905  0.91435781  1
  O  O452  1  0.51820683  0.74976661  0.16459186  1
  O  O453  1  0.51642160  0.74951009  0.41297804  1
  O  O454  1  0.51467908  0.74986882  0.66270774  1
  O  O455  1  0.51964871  0.75049480  0.91398829  1
  O  O456  1  0.48486209  0.25041808  0.08318848  1
  O  O457  1  0.48233502  0.25041431  0.33738582  1
  O  O458  1  0.48202457  0.25062686  0.58550290  1
  O  O459  1  0.48442087  0.24953089  0.83633418  1
  O  O460  1  0.48553469  0.58389356  0.08631201  1
  O  O461  1  0.48428326  0.58256251  0.33452139  1
  O  O462  1  0.48285792  0.58318741  0.58714348  1
  O  O463  1  0.48528666  0.58332115  0.83331942  1
  O  O464  1  0.48626945  0.91630496  0.08550237  1
  O  O465  1  0.48422365  0.91671292  0.33404186  1
  O  O466  1  0.48227160  0.91645717  0.58776886  1
  O  O467  1  0.48593861  0.91690454  0.83542113  1
  O  O468  1  0.98605618  0.24969769  0.08655666  1
  O  O469  1  0.98663039  0.25051074  0.33673050  1
  O  O470  1  0.98620191  0.24998609  0.58504458  1
  O  O471  1  0.98334206  0.25000428  0.83687504  1
  O  O472  1  0.98486150  0.58349864  0.08664520  1
  O  O473  1  0.98437389  0.58280323  0.33654341  1
  O  O474  1  0.98270300  0.58362222  0.58450259  1
  O  O475  1  0.98215412  0.58256728  0.83505558  1
  O  O476  1  0.98382092  0.91636337  0.08449055  1
  O  O477  1  0.98455676  0.91643812  0.33399650  1
  O  O478  1  0.98280713  0.91626272  0.58727618  1
  O  O479  1  0.98161302  0.91723928  0.83557734  1
  O  O480  1  0.08963410  0.31502459  0.07775464  1
  O  O481  1  0.09026937  0.31564956  0.32840933  1
  O  O482  1  0.09005891  0.31514964  0.57774219  1
  O  O483  1  0.08717380  0.31486792  0.82726589  1
  O  O484  1  0.08838495  0.64860266  0.07815527  1
  O  O485  1  0.08805860  0.64841878  0.32741394  1
  O  O486  1  0.08717389  0.64771766  0.57650817  1
  O  O487  1  0.08548445  0.64845563  0.82702972  1
  O  O488  1  0.08748411  0.98186090  0.07735345  1
  O  O489  1  0.08871838  0.98106997  0.32827052  1
  O  O490  1  0.08633756  0.98211694  0.57808086  1
  O  O491  1  0.08626198  0.98125026  0.82657772  1
  O  O492  1  0.58905974  0.31547892  0.07723017  1
  O  O493  1  0.58586627  0.31613986  0.32870765  1
  O  O494  1  0.58619690  0.31584282  0.57662882  1
  O  O495  1  0.58815892  0.31411182  0.82725935  1
  O  O496  1  0.58944445  0.64821656  0.07892845  1
  O  O497  1  0.58814764  0.64806714  0.32789193  1
  O  O498  1  0.58687093  0.64742978  0.57712677  1
  O  O499  1  0.58868288  0.64994459  0.82638976  1
  O  O500  1  0.59000388  0.98138659  0.07757141  1
  O  O501  1  0.58854803  0.98077176  0.32734860  1
  O  O502  1  0.58558344  0.98199232  0.57751911  1
  O  O503  1  0.58978646  0.98180696  0.82734439  1
  O  O504  1  0.41434356  0.01854226  0.17211409  1
  O  O505  1  0.41060945  0.01942142  0.42294702  1
  O  O506  1  0.41117738  0.01848572  0.67201447  1
  O  O507  1  0.41366760  0.01792064  0.92341354  1
  O  O508  1  0.41426410  0.35162385  0.17276529  1
  O  O509  1  0.41274362  0.35124906  0.42337450  1
  O  O510  1  0.41232487  0.35133267  0.67173344  1
  O  O511  1  0.41358494  0.35157464  0.92272379  1
  O  O512  1  0.41393943  0.68506149  0.17374159  1
  O  O513  1  0.41256282  0.68443361  0.42269895  1
  O  O514  1  0.41126300  0.68452264  0.67154120  1
  O  O515  1  0.41594316  0.68520515  0.92294024  1
  O  O516  1  0.91521243  0.01828160  0.17321421  1
  O  O517  1  0.91505122  0.01849123  0.42223040  1
  O  O518  1  0.91425646  0.01813544  0.67223440  1
  O  O519  1  0.91173641  0.01850894  0.92234810  1
  O  O520  1  0.91404668  0.35109892  0.17308152  1
  O  O521  1  0.91421553  0.35217509  0.42362293  1
  O  O522  1  0.91343142  0.35230426  0.67174889  1
  O  O523  1  0.91169418  0.34998304  0.92300866  1
  O  O524  1  0.91321637  0.68516439  0.17270119  1
  O  O525  1  0.91466783  0.68401838  0.42182132  1
  O  O526  1  0.91096894  0.68413087  0.67213216  1
  O  O527  1  0.90916341  0.68607039  0.92295385  1
  O  O528  1  0.16116604  0.01929844  0.20226926  1
  O  O529  1  0.16299995  0.01859265  0.45230261  1
  O  O530  1  0.16096837  0.01797717  0.70179610  1
  O  O531  1  0.16332374  0.01912820  0.95239513  1
  O  O532  1  0.16082801  0.35171407  0.20348819  1
  O  O533  1  0.16237167  0.35235815  0.45278987  1
  O  O534  1  0.16105624  0.35085764  0.70189096  1
  O  O535  1  0.16173910  0.35023951  0.95359712  1
  O  O536  1  0.16256686  0.68385321  0.20235072  1
  O  O537  1  0.16355557  0.68377396  0.45220296  1
  O  O538  1  0.16193426  0.68602755  0.70230256  1
  O  O539  1  0.16218558  0.68511729  0.95218087  1
  O  O540  1  0.66140716  0.01769275  0.20219695  1
  O  O541  1  0.66212649  0.01963167  0.45306532  1
  O  O542  1  0.66224586  0.01709297  0.70309626  1
  O  O543  1  0.66056690  0.01857665  0.95243803  1
  O  O544  1  0.66047069  0.35282534  0.20270673  1
  O  O545  1  0.66237947  0.35049847  0.45238931  1
  O  O546  1  0.66115476  0.35270061  0.70103028  1
  O  O547  1  0.66378391  0.35082088  0.95270881  1
  O  O548  1  0.66112951  0.68417554  0.20325300  1
  O  O549  1  0.66176548  0.68506892  0.45205984  1
  O  O550  1  0.66327317  0.68498483  0.70214620  1
  O  O551  1  0.66214593  0.68566435  0.95179136  1
  O  O552  1  0.33604687  0.31390884  0.04812602  1
  O  O553  1  0.33666375  0.31552671  0.29863579  1
  O  O554  1  0.33725300  0.31575586  0.54748642  1
  O  O555  1  0.33544568  0.31504222  0.79749389  1
  O  O556  1  0.33757076  0.64847749  0.04771893  1
  O  O557  1  0.33553633  0.64913388  0.29734124  1
  O  O558  1  0.33683722  0.64815274  0.54770524  1
  O  O559  1  0.33773602  0.64807776  0.79744587  1
  O  O560  1  0.33763938  0.98339592  0.04718243  1
  O  O561  1  0.33804590  0.98062221  0.29704096  1
  O  O562  1  0.33813861  0.98141932  0.54778969  1
  O  O563  1  0.33617802  0.98204914  0.79742042  1
  O  O564  1  0.83648870  0.31586821  0.04752658  1
  O  O565  1  0.83736354  0.31505430  0.29792188  1
  O  O566  1  0.83607569  0.31615679  0.54735901  1
  O  O567  1  0.83852483  0.31510931  0.79798592  1
  O  O568  1  0.83740171  0.64848651  0.04750241  1
  O  O569  1  0.83661282  0.64852716  0.29865851  1
  O  O570  1  0.83971552  0.64695789  0.54699178  1
  O  O571  1  0.83627056  0.64885061  0.79628174  1
  O  O572  1  0.83624163  0.98088378  0.04769810  1
  O  O573  1  0.83501862  0.98196519  0.29748765  1
  O  O574  1  0.83854128  0.98202019  0.54796000  1
  O  O575  1  0.83749731  0.98110386  0.79836924  1
  O  O576  1  0.41409501  0.14865691  0.17197138  1
  O  O577  1  0.41118250  0.14946088  0.42262309  1
  O  O578  1  0.41083667  0.14912393  0.67156463  1
  O  O579  1  0.41370070  0.14795871  0.92366227  1
  O  O580  1  0.41516304  0.48172630  0.17340778  1
  O  O581  1  0.41214846  0.48115376  0.42344242  1
  O  O582  1  0.41280706  0.48175488  0.67193826  1
  O  O583  1  0.41313152  0.48185950  0.92240951  1
  O  O584  1  0.41425894  0.81501605  0.17355805  1
  O  O585  1  0.41248878  0.81442104  0.42259367  1
  O  O586  1  0.41122597  0.81504621  0.67181628  1
  O  O587  1  0.41577921  0.81540134  0.92300766  1
  O  O588  1  0.91513890  0.14850874  0.17348221  1
  O  O589  1  0.91582175  0.14870924  0.42307665  1
  O  O590  1  0.91403683  0.14825945  0.67246739  1
  O  O591  1  0.91260874  0.14885959  0.92276806  1
  O  O592  1  0.91406406  0.48125363  0.17307193  1
  O  O593  1  0.91375413  0.48210695  0.42243548  1
  O  O594  1  0.91379990  0.48251120  0.67110152  1
  O  O595  1  0.91035853  0.48012487  0.92351894  1
  O  O596  1  0.91346180  0.81525228  0.17267834  1
  O  O597  1  0.91440200  0.81417143  0.42211783  1
  O  O598  1  0.91059207  0.81438388  0.67245627  1
  O  O599  1  0.91006013  0.81635747  0.92212047  1
  O  O600  1  0.08991877  0.18481897  0.07798108  1
  O  O601  1  0.09041299  0.18530481  0.32846174  1
  O  O602  1  0.09024365  0.18501419  0.57803345  1
  O  O603  1  0.08719714  0.18486386  0.82730226  1
  O  O604  1  0.08829352  0.51807880  0.07843558  1
  O  O605  1  0.08843657  0.51823536  0.32782872  1
  O  O606  1  0.08658375  0.51780618  0.57648216  1
  O  O607  1  0.08630536  0.51832887  0.82755765  1
  O  O608  1  0.08760456  0.85134145  0.07719408  1
  O  O609  1  0.08811209  0.85074580  0.32794128  1
  O  O610  1  0.08669442  0.85198517  0.57774946  1
  O  O611  1  0.08512337  0.85129565  0.82605903  1
  O  O612  1  0.58895503  0.18537212  0.07694074  1
  O  O613  1  0.58620883  0.18598647  0.32814413  1
  O  O614  1  0.58610506  0.18593017  0.57599403  1
  O  O615  1  0.58770757  0.18373778  0.82783476  1
  O  O616  1  0.58864105  0.51779787  0.07866126  1
  O  O617  1  0.58855683  0.51792975  0.32833416  1
  O  O618  1  0.58628040  0.51733195  0.57758655  1
  O  O619  1  0.58992794  0.51980660  0.82610734  1
  O  O620  1  0.59002677  0.85108248  0.07800314  1
  O  O621  1  0.58779235  0.85059552  0.32796495  1
  O  O622  1  0.58609733  0.85186686  0.57750014  1
  O  O623  1  0.58970931  0.85156955  0.82695849  1
  O  O624  1  0.33582805  0.18370282  0.04766417  1
  O  O625  1  0.33687288  0.18544924  0.29845580  1
  O  O626  1  0.33730650  0.18555120  0.54740951  1
  O  O627  1  0.33574902  0.18503300  0.79719631  1
  O  O628  1  0.33729911  0.51813172  0.04798476  1
  O  O629  1  0.33571484  0.51901961  0.29780278  1
  O  O630  1  0.33663672  0.51801604  0.54804677  1
  O  O631  1  0.33737312  0.51781581  0.79728661  1
  O  O632  1  0.33853257  0.85296646  0.04742468  1
  O  O633  1  0.33751863  0.85022402  0.29681591  1
  O  O634  1  0.33830111  0.85111055  0.54750301  1
  O  O635  1  0.33593702  0.85203137  0.79802894  1
  O  O636  1  0.83679811  0.18561685  0.04788195  1
  O  O637  1  0.83704951  0.18489206  0.29783523  1
  O  O638  1  0.83622996  0.18595636  0.54780051  1
  O  O639  1  0.83818118  0.18503846  0.79860681  1
  O  O640  1  0.83743927  0.51801228  0.04788751  1
  O  O641  1  0.83695005  0.51850546  0.29871993  1
  O  O642  1  0.83894765  0.51676239  0.54666832  1
  O  O643  1  0.83655954  0.51865649  0.79665395  1
  O  O644  1  0.83549596  0.85061409  0.04715988  1
  O  O645  1  0.83515441  0.85185180  0.29767133  1
  O  O646  1  0.83841436  0.85187105  0.54773615  1
  O  O647  1  0.83761482  0.85095050  0.79716495  1
  O  O648  1  0.16180166  0.14946086  0.20354178  1
  O  O649  1  0.16306216  0.14876918  0.45300965  1
  O  O650  1  0.16065767  0.14817618  0.70204756  1
  O  O651  1  0.16311800  0.14922935  0.95320646  1
  O  O652  1  0.16058954  0.48198840  0.20317499  1
  O  O653  1  0.16260495  0.48246754  0.45266535  1
  O  O654  1  0.16066642  0.48092534  0.70139485  1
  O  O655  1  0.16164979  0.48053199  0.95258525  1
  O  O656  1  0.16227657  0.81391915  0.20167418  1
  O  O657  1  0.16335770  0.81381756  0.45165039  1
  O  O658  1  0.16264644  0.81628935  0.70234692  1
  O  O659  1  0.16187366  0.81527425  0.95241762  1
  O  O660  1  0.66108901  0.14790005  0.20174773  1
  O  O661  1  0.66270967  0.14988710  0.45297398  1
  O  O662  1  0.66151610  0.14736530  0.70280575  1
  O  O663  1  0.66105182  0.14882811  0.95230339  1
  O  O664  1  0.66144419  0.48300274  0.20349811  1
  O  O665  1  0.66196952  0.48052156  0.45211821  1
  O  O666  1  0.66194425  0.48276497  0.70120583  1
  O  O667  1  0.66330857  0.48096711  0.95275737  1
  O  O668  1  0.66025249  0.81444844  0.20321132  1
  O  O669  1  0.66163865  0.81509450  0.45240599  1
  O  O670  1  0.66294621  0.81523325  0.70258428  1
  O  O671  1  0.66291285  0.81570398  0.95194775  1
