# generated using pymatgen
data_Na2MnFe(PO4)2
_symmetry_space_group_name_H-M   'P 1'
_cell_length_a   21.08380850
_cell_length_b   18.93607315
_cell_length_c   20.04345297
_cell_angle_alpha   90.00069931
_cell_angle_beta   90.00043430
_cell_angle_gamma   89.99936660
_symmetry_Int_Tables_number   1
_chemical_formula_structural   Na2MnFe(PO4)2
_chemical_formula_sum   'Na96 Mn48 Fe48 P96 O384'
_cell_volume   8002.23916142
_cell_formula_units_Z   48
loop_
 _symmetry_equiv_pos_site_id
 _symmetry_equiv_pos_as_xyz
  1  'x, y, z'
loop_
 _atom_site_type_symbol
 _atom_site_label
 _atom_site_symmetry_multiplicity
 _atom_site_fract_x
 _atom_site_fract_y
 _atom_site_fract_z
 _atom_site_occupancy
  Na  Na0  1  -0.00222350  -0.00039737  0.00020928  1
  Na  Na1  1  -0.00255265  -0.00018227  0.24960468  1
  Na  Na2  1  -0.00208149  -0.00084499  0.50017791  1
  Na  Na3  1  0.00004713  -0.00024275  0.74971166  1
  Na  Na4  1  -0.00084136  0.33296484  -0.00023337  1
  Na  Na5  1  -0.00113430  0.33224682  0.25011697  1
  Na  Na6  1  -0.00096715  0.33311643  0.49904586  1
  Na  Na7  1  -0.00054550  0.33326135  0.75128852  1
  Na  Na8  1  0.00021058  0.66712492  0.00054653  1
  Na  Na9  1  0.00010430  0.66727304  0.24919499  1
  Na  Na10  1  0.00022455  0.66727611  0.50077293  1
  Na  Na11  1  0.00035480  0.66747525  0.74935998  1
  Na  Na12  1  0.49846747  -0.00147083  0.00165489  1
  Na  Na13  1  0.49816118  -0.00113309  0.25115296  1
  Na  Na14  1  0.49895569  -0.00077457  0.49865735  1
  Na  Na15  1  0.50130883  0.00055914  0.74890550  1
  Na  Na16  1  0.50188904  0.33337822  0.00080212  1
  Na  Na17  1  0.50250947  0.33448611  0.24879936  1
  Na  Na18  1  0.49851277  0.33261236  0.49992741  1
  Na  Na19  1  0.49814603  0.33233603  0.75066306  1
  Na  Na20  1  0.50059913  0.66711040  -0.00138236  1
  Na  Na21  1  0.50081894  0.66714205  0.25000027  1
  Na  Na22  1  0.49936732  0.66669716  0.50056253  1
  Na  Na23  1  0.49962554  0.66659280  0.75060591  1
  Na  Na24  1  0.25212044  0.00014435  0.12592831  1
  Na  Na25  1  0.25306136  0.00082501  0.37413990  1
  Na  Na26  1  0.25108247  -0.00076123  0.62433206  1
  Na  Na27  1  0.25004920  -0.00101019  0.87499846  1
  Na  Na28  1  0.24850587  0.33265602  0.12555919  1
  Na  Na29  1  0.25073128  0.33328201  0.37506751  1
  Na  Na30  1  0.25207348  0.33341173  0.62565448  1
  Na  Na31  1  0.25044143  0.33331006  0.87396103  1
  Na  Na32  1  0.25074469  0.66724774  0.12561155  1
  Na  Na33  1  0.24831735  0.66651375  0.37500488  1
  Na  Na34  1  0.24893563  0.66728180  0.62500215  1
  Na  Na35  1  0.24882729  0.66679701  0.87456878  1
  Na  Na36  1  0.75290716  0.00116681  0.12499341  1
  Na  Na37  1  0.75083707  -0.00073080  0.37593657  1
  Na  Na38  1  0.75006638  -0.00027660  0.62487757  1
  Na  Na39  1  0.75019817  -0.00027497  0.87393043  1
  Na  Na40  1  0.74943824  0.33288896  0.12505885  1
  Na  Na41  1  0.75048370  0.33278791  0.37489406  1
  Na  Na42  1  0.75163873  0.33429047  0.62389127  1
  Na  Na43  1  0.74954194  0.33348335  0.87619397  1
  Na  Na44  1  0.74841367  0.66689893  0.12536844  1
  Na  Na45  1  0.75041684  0.66742944  0.37478467  1
  Na  Na46  1  0.75102972  0.66700330  0.62397881  1
  Na  Na47  1  0.75051428  0.66705849  0.87612606  1
  Na  Na48  1  -0.00084319  0.16696574  0.00064204  1
  Na  Na49  1  -0.00140586  0.16655838  0.24923643  1
  Na  Na50  1  -0.00083023  0.16611275  0.49936027  1
  Na  Na51  1  -0.00035123  0.16646241  0.75020258  1
  Na  Na52  1  -0.00108420  0.50079515  0.00044445  1
  Na  Na53  1  -0.00072674  0.50039845  0.25000246  1
  Na  Na54  1  -0.00123408  0.50097039  0.50002787  1
  Na  Na55  1  -0.00027380  0.50065304  0.75025520  1
  Na  Na56  1  -0.00142425  0.83359940  -0.00070258  1
  Na  Na57  1  -0.00153785  0.83371548  0.24967570  1
  Na  Na58  1  -0.00076399  0.83349999  0.50061157  1
  Na  Na59  1  0.00061076  0.83246551  0.74991065  1
  Na  Na60  1  0.50263206  0.16591533  0.00129238  1
  Na  Na61  1  0.50028766  0.16681210  0.24962638  1
  Na  Na62  1  0.49882334  0.16627451  0.49885232  1
  Na  Na63  1  0.50139293  0.16574523  0.74992166  1
  Na  Na64  1  0.50058661  0.50038834  -0.00025916  1
  Na  Na65  1  0.50014602  0.50026376  0.24955989  1
  Na  Na66  1  0.49834643  0.50083662  0.50117006  1
  Na  Na67  1  0.50039855  0.50016318  0.75001979  1
  Na  Na68  1  0.49886166  0.83336633  0.00033991  1
  Na  Na69  1  0.50048666  0.83332697  0.25043987  1
  Na  Na70  1  0.50058833  0.83312361  0.49936827  1
  Na  Na71  1  0.49657754  0.83498025  0.74988489  1
  Na  Na72  1  0.24981073  0.16602094  0.12562664  1
  Na  Na73  1  0.24891165  0.16675136  0.37486378  1
  Na  Na74  1  0.25166867  0.16518804  0.62499506  1
  Na  Na75  1  0.24855708  0.16743880  0.87442418  1
  Na  Na76  1  0.25105997  0.49981651  0.12547432  1
  Na  Na77  1  0.25138031  0.50021562  0.37456623  1
  Na  Na78  1  0.25136453  0.49989074  0.62512283  1
  Na  Na79  1  0.25011416  0.50085789  0.87473079  1
  Na  Na80  1  0.25164792  0.83261575  0.12547725  1
  Na  Na81  1  0.25089740  0.83326525  0.37518126  1
  Na  Na82  1  0.25045788  0.83337423  0.62453080  1
  Na  Na83  1  0.24982026  0.83349468  0.87466341  1
  Na  Na84  1  0.74999916  0.16673621  0.12562409  1
  Na  Na85  1  0.75193412  0.16529900  0.37545009  1
  Na  Na86  1  0.74897780  0.16663857  0.62489321  1
  Na  Na87  1  0.74916342  0.16639755  0.87423829  1
  Na  Na88  1  0.74985105  0.50046081  0.12473128  1
  Na  Na89  1  0.75206751  0.49940420  0.37534101  1
  Na  Na90  1  0.75062182  0.50130250  0.62401225  1
  Na  Na91  1  0.75051883  0.49995062  0.87623425  1
  Na  Na92  1  0.74982425  0.83340980  0.12578682  1
  Na  Na93  1  0.74937498  0.83405764  0.37434942  1
  Na  Na94  1  0.75177574  0.83257159  0.62428620  1
  Na  Na95  1  0.75166173  0.83243579  0.87536264  1
  Mn  Mn96  1  0.85713202  0.74985096  0.25279981  1
  Mn  Mn97  1  0.10762806  0.75085260  0.12305262  1
  Mn  Mn98  1  0.14273629  0.24984093  0.49797473  1
  Mn  Mn99  1  0.14232679  0.91727712  0.49728406  1
  Mn  Mn100  1  0.10772463  0.08241264  0.87313511  1
  Mn  Mn101  1  0.35785529  0.41738444  0.75270326  1
  Mn  Mn102  1  0.14247741  0.58271493  0.49762052  1
  Mn  Mn103  1  0.89233580  0.91618972  0.87693891  1
  Mn  Mn104  1  0.10771718  0.08295026  0.62227989  1
  Mn  Mn105  1  0.64206138  0.24958074  0.49741746  1
  Mn  Mn106  1  0.89222029  0.58390985  0.62807612  1
  Mn  Mn107  1  0.85844726  0.41675723  0.50236506  1
  Mn  Mn108  1  0.64229132  0.58307021  0.24766454  1
  Mn  Mn109  1  0.10787758  0.41663700  0.62255805  1
  Mn  Mn110  1  0.10774945  0.41761620  0.87311460  1
  Mn  Mn111  1  0.14236028  0.91665690  0.24821537  1
  Mn  Mn112  1  0.60797581  0.41713995  0.37292179  1
  Mn  Mn113  1  0.60766272  0.75064464  0.62339304  1
  Mn  Mn114  1  0.89180758  0.24989051  0.62754440  1
  Mn  Mn115  1  0.10693322  0.08301047  0.12304069  1
  Mn  Mn116  1  0.10748838  0.41645424  0.12286822  1
  Mn  Mn117  1  0.60748073  0.41616223  0.62296713  1
  Mn  Mn118  1  0.89148763  0.58316567  0.12754087  1
  Mn  Mn119  1  0.64204457  0.25134820  0.74706997  1
  Mn  Mn120  1  0.89175352  0.25038142  0.87754444  1
  Mn  Mn121  1  0.64196889  0.91526631  0.74741221  1
  Mn  Mn122  1  0.64223746  0.58418712  0.49782179  1
  Mn  Mn123  1  0.35780763  0.74915544  0.00232420  1
  Mn  Mn124  1  0.35832373  0.08437565  0.00234886  1
  Mn  Mn125  1  0.39225754  0.58358476  0.87725543  1
  Mn  Mn126  1  0.60804044  0.75106219  0.87232458  1
  Mn  Mn127  1  0.14222577  0.91712831  0.99838976  1
  Mn  Mn128  1  0.85715137  0.41643880  0.00295530  1
  Mn  Mn129  1  0.35873846  0.08229321  0.75267957  1
  Mn  Mn130  1  0.35808725  0.41634612  0.25188401  1
  Mn  Mn131  1  0.35781665  0.74999729  0.50243463  1
  Mn  Mn132  1  0.10764139  0.41663635  0.37253518  1
  Mn  Mn133  1  0.60777646  0.08310267  0.37254836  1
  Mn  Mn134  1  0.14237042  0.24970311  0.74709294  1
  Mn  Mn135  1  0.85698748  0.08366707  0.75217456  1
  Mn  Mn136  1  0.60820076  0.08274215  0.12335881  1
  Mn  Mn137  1  0.60815217  0.41633672  0.87229055  1
  Mn  Mn138  1  0.39267789  0.24907168  0.87838101  1
  Mn  Mn139  1  0.39275655  0.25022939  0.12741671  1
  Mn  Mn140  1  0.39193559  0.24984298  0.37642368  1
  Mn  Mn141  1  0.14245327  0.58283904  0.99776253  1
  Mn  Mn142  1  0.39196101  0.58377419  0.37712237  1
  Mn  Mn143  1  0.64224700  0.91722967  0.99803508  1
  Fe  Fe144  1  0.60685257  0.08286875  0.62270590  1
  Fe  Fe145  1  0.89177375  0.24973562  0.12721921  1
  Fe  Fe146  1  0.89217445  0.91624106  0.37690051  1
  Fe  Fe147  1  0.39278161  0.91574449  0.12741283  1
  Fe  Fe148  1  0.64317756  0.91635323  0.49845312  1
  Fe  Fe149  1  0.89268597  0.24974689  0.37643288  1
  Fe  Fe150  1  0.35744230  0.08394810  0.50171618  1
  Fe  Fe151  1  0.85717485  0.41619640  0.25141195  1
  Fe  Fe152  1  0.89266699  0.91643647  0.62699777  1
  Fe  Fe153  1  0.14259376  0.58321997  0.24854839  1
  Fe  Fe154  1  0.60664608  0.74981771  0.12352181  1
  Fe  Fe155  1  0.14167064  0.24995804  0.24845923  1
  Fe  Fe156  1  0.60764112  0.75000789  0.37355285  1
  Fe  Fe157  1  0.64330835  0.24963167  0.99868462  1
  Fe  Fe158  1  0.35801766  0.41619465  0.50193774  1
  Fe  Fe159  1  0.10692358  0.74994083  0.87311370  1
  Fe  Fe160  1  0.35616578  0.75003108  0.75121512  1
  Fe  Fe161  1  0.85729293  0.08372114  0.25232181  1
  Fe  Fe162  1  0.64305973  0.91746332  0.24843949  1
  Fe  Fe163  1  0.39335005  0.58374701  0.12625777  1
  Fe  Fe164  1  0.35784935  0.74994370  0.25207590  1
  Fe  Fe165  1  0.60782388  0.08255616  0.87392583  1
  Fe  Fe166  1  0.35714989  0.08335374  0.25194552  1
  Fe  Fe167  1  0.10657291  0.08269376  0.37313856  1
  Fe  Fe168  1  0.60804640  0.41777556  0.12351377  1
  Fe  Fe169  1  0.89151841  0.91691855  0.12687747  1
  Fe  Fe170  1  0.85704680  0.08315015  0.00126311  1
  Fe  Fe171  1  0.39282326  0.24942542  0.62645382  1
  Fe  Fe172  1  0.64374588  0.24955581  0.24881311  1
  Fe  Fe173  1  0.14229945  0.25017315  0.99890945  1
  Fe  Fe174  1  0.14299819  0.91633574  0.74796072  1
  Fe  Fe175  1  0.85752095  0.41759330  0.75180456  1
  Fe  Fe176  1  0.39356738  0.91615583  0.37667538  1
  Fe  Fe177  1  0.64260472  0.58356736  0.99828162  1
  Fe  Fe178  1  0.85795458  0.74913886  0.75198547  1
  Fe  Fe179  1  0.35764051  0.41629354  0.00178571  1
  Fe  Fe180  1  0.39231785  0.91710327  0.87659061  1
  Fe  Fe181  1  0.10672111  0.75074893  0.37343847  1
  Fe  Fe182  1  0.89320489  0.58394242  0.37618826  1
  Fe  Fe183  1  0.89255337  0.58380059  0.87643059  1
  Fe  Fe184  1  0.39242502  0.58392705  0.62761467  1
  Fe  Fe185  1  0.10689294  0.75055689  0.62347185  1
  Fe  Fe186  1  0.64360823  0.58351594  0.74866042  1
  Fe  Fe187  1  0.39304428  0.91653163  0.62652983  1
  Fe  Fe188  1  0.85713984  0.75033682  0.00182796  1
  Fe  Fe189  1  0.14220468  0.58406996  0.74827186  1
  Fe  Fe190  1  0.85732767  0.08247395  0.50209534  1
  Fe  Fe191  1  0.85771018  0.75065981  0.50110429  1
  P  P192  1  0.05314869  0.24977434  0.11075919  1
  P  P193  1  0.05257239  0.24870102  0.35964395  1
  P  P194  1  0.05279055  0.24990094  0.60939519  1
  P  P195  1  0.05455857  0.24994553  0.86121928  1
  P  P196  1  0.05424883  0.58342027  0.11112321  1
  P  P197  1  0.05284938  0.58442958  0.35968495  1
  P  P198  1  0.05452703  0.58437750  0.61105813  1
  P  P199  1  0.05270633  0.58454869  0.85968973  1
  P  P200  1  0.05133030  0.91696048  0.11014636  1
  P  P201  1  0.05159596  0.91685451  0.36019544  1
  P  P202  1  0.05346211  0.91586208  0.61100262  1
  P  P203  1  0.05401440  0.91564178  0.85941520  1
  P  P204  1  0.55621656  0.25060255  0.11116438  1
  P  P205  1  0.55391642  0.24996435  0.35884434  1
  P  P206  1  0.55206029  0.24923938  0.60970633  1
  P  P207  1  0.55498274  0.24867239  0.86146157  1
  P  P208  1  0.55323800  0.58403266  0.10944658  1
  P  P209  1  0.55322090  0.58411669  0.36013012  1
  P  P210  1  0.55336253  0.58377393  0.61162265  1
  P  P211  1  0.55545776  0.58360834  0.86013251  1
  P  P212  1  0.55339032  0.91580082  0.11191197  1
  P  P213  1  0.55475314  0.91596878  0.36073967  1
  P  P214  1  0.55285865  0.91687405  0.60898172  1
  P  P215  1  0.55217211  0.91735450  0.86002472  1
  P  P216  1  0.44614396  0.08274167  0.14110076  1
  P  P217  1  0.44468050  0.08260062  0.38891957  1
  P  P218  1  0.44657698  0.08280823  0.63823868  1
  P  P219  1  0.44851820  0.08220098  0.89057851  1
  P  P220  1  0.44720878  0.41764920  0.13842557  1
  P  P221  1  0.44623375  0.41667559  0.39051772  1
  P  P222  1  0.44522962  0.41660790  0.63921584  1
  P  P223  1  0.44635106  0.41665073  0.89115012  1
  P  P224  1  0.44693133  0.74933937  0.14039486  1
  P  P225  1  0.44686620  0.75066103  0.38891275  1
  P  P226  1  0.44571906  0.75029142  0.64058143  1
  P  P227  1  0.44521858  0.75104844  0.88845560  1
  P  P228  1  0.94370425  0.08347779  0.13921894  1
  P  P229  1  0.94528095  0.08317043  0.38907187  1
  P  P230  1  0.94519736  0.08225377  0.63897416  1
  P  P231  1  0.94575453  0.08330982  0.89072656  1
  P  P232  1  0.94551378  0.41562582  0.14080785  1
  P  P233  1  0.94539913  0.41671707  0.38826997  1
  P  P234  1  0.94623167  0.41686481  0.64121987  1
  P  P235  1  0.94516554  0.41816729  0.88932830  1
  P  P236  1  0.94468074  0.75089733  0.13908002  1
  P  P237  1  0.94703029  0.75007142  0.38998622  1
  P  P238  1  0.94569897  0.75108027  0.63943701  1
  P  P239  1  0.94579453  0.74883064  0.88939719  1
  P  P240  1  0.19596843  0.08329489  0.23645716  1
  P  P241  1  0.19743061  0.08294537  0.48397248  1
  P  P242  1  0.19692260  0.08172499  0.73476082  1
  P  P243  1  0.19689350  0.08387046  0.98530745  1
  P  P244  1  0.19627471  0.41678374  0.23528983  1
  P  P245  1  0.19853540  0.41646407  0.48493006  1
  P  P246  1  0.19648620  0.41777474  0.73497917  1
  P  P247  1  0.19800499  0.41594283  0.98510854  1
  P  P248  1  0.19638626  0.74984807  0.23652002  1
  P  P249  1  0.19481836  0.75041586  0.48531695  1
  P  P250  1  0.19519705  0.75051109  0.73559072  1
  P  P251  1  0.19599778  0.75023012  0.98439289  1
  P  P252  1  0.69810322  0.08282251  0.23574431  1
  P  P253  1  0.69640247  0.08200031  0.48624515  1
  P  P254  1  0.69427815  0.08292218  0.73494426  1
  P  P255  1  0.69748882  0.08363773  0.98479219  1
  P  P256  1  0.69752190  0.41595615  0.23482547  1
  P  P257  1  0.69693156  0.41693254  0.48491741  1
  P  P258  1  0.69834085  0.41825213  0.73475074  1
  P  P259  1  0.69495161  0.41683607  0.98672737  1
  P  P260  1  0.69446323  0.75109434  0.23571006  1
  P  P261  1  0.69726703  0.75126860  0.48459029  1
  P  P262  1  0.69854131  0.74884544  0.73489591  1
  P  P263  1  0.69614619  0.75000699  0.98654537  1
  P  P264  1  0.30218486  0.25085495  0.01534631  1
  P  P265  1  0.30181958  0.24930182  0.26467670  1
  P  P266  1  0.30429476  0.24953710  0.51537837  1
  P  P267  1  0.30516543  0.24928263  0.76412737  1
  P  P268  1  0.30414240  0.58245269  0.01579703  1
  P  P269  1  0.30369685  0.58440407  0.26358422  1
  P  P270  1  0.30425520  0.58311793  0.51569869  1
  P  P271  1  0.30305319  0.58496545  0.76383004  1
  P  P272  1  0.30520242  0.91666224  0.01504525  1
  P  P273  1  0.30583367  0.91600079  0.26447310  1
  P  P274  1  0.30550671  0.91739312  0.51398956  1
  P  P275  1  0.30416937  0.91547440  0.76405677  1
  P  P276  1  0.80273032  0.24898607  0.01565280  1
  P  P277  1  0.80412592  0.24997190  0.26435594  1
  P  P278  1  0.80468839  0.24867492  0.51367018  1
  P  P279  1  0.80288815  0.25116988  0.76509147  1
  P  P280  1  0.80315400  0.58449737  0.01411066  1
  P  P281  1  0.80374598  0.58264354  0.26561532  1
  P  P282  1  0.80529964  0.58493219  0.51347309  1
  P  P283  1  0.80318637  0.58362817  0.76557847  1
  P  P284  1  0.80387292  0.91651064  0.01529474  1
  P  P285  1  0.80395240  0.91732901  0.26475465  1
  P  P286  1  0.80467990  0.91623087  0.51414444  1
  P  P287  1  0.80440091  0.91551633  0.76360192  1
  O  O288  1  0.05837498  0.24968338  0.18746258  1
  O  O289  1  0.05657232  0.24932644  0.43632476  1
  O  O290  1  0.05613648  0.24985044  0.68621494  1
  O  O291  1  0.05894051  0.25013291  0.93802501  1
  O  O292  1  0.05901155  0.58339381  0.18781728  1
  O  O293  1  0.05632458  0.58348731  0.43643890  1
  O  O294  1  0.05882588  0.58373611  0.68792611  1
  O  O295  1  0.05624065  0.58365586  0.93643866  1
  O  O296  1  0.05583666  0.91697714  0.18676489  1
  O  O297  1  0.05548165  0.91705751  0.43689095  1
  O  O298  1  0.05840671  0.91647787  0.68758671  1
  O  O299  1  0.05667841  0.91663477  0.93623553  1
  O  O300  1  0.56064989  0.24981448  0.18793127  1
  O  O301  1  0.55665793  0.24951063  0.43566571  1
  O  O302  1  0.55585752  0.25018727  0.68645763  1
  O  O303  1  0.55943679  0.24952843  0.93822608  1
  O  O304  1  0.55660021  0.58348874  0.18624224  1
  O  O305  1  0.55611835  0.58365023  0.43691583  1
  O  O306  1  0.55888839  0.58372615  0.68824441  1
  O  O307  1  0.55990645  0.58381384  0.93689566  1
  O  O308  1  0.55845281  0.91713654  0.18853226  1
  O  O309  1  0.55940595  0.91665001  0.43739447  1
  O  O310  1  0.55643658  0.91608765  0.68571203  1
  O  O311  1  0.55594928  0.91618130  0.93675707  1
  O  O312  1  0.44353567  0.08372757  0.06428937  1
  O  O313  1  0.44050621  0.08383067  0.31216574  1
  O  O314  1  0.44209595  0.08303824  0.56158016  1
  O  O315  1  0.44506640  0.08309714  0.81381960  1
  O  O316  1  0.44228041  0.41640601  0.06185150  1
  O  O317  1  0.44346644  0.41666239  0.31362617  1
  O  O318  1  0.44157199  0.41672130  0.56241554  1
  O  O319  1  0.44289981  0.41684115  0.81430671  1
  O  O320  1  0.44364495  0.74947025  0.06365274  1
  O  O321  1  0.44225229  0.74988481  0.31228660  1
  O  O322  1  0.44347742  0.74991006  0.56371877  1
  O  O323  1  0.44065204  0.75010876  0.81182366  1
  O  O324  1  0.93997237  0.08367410  0.06244885  1
  O  O325  1  0.94081981  0.08325938  0.31228875  1
  O  O326  1  0.94119645  0.08275495  0.56217083  1
  O  O327  1  0.94257063  0.08348002  0.81392575  1
  O  O328  1  0.94259001  0.41636669  0.06393193  1
  O  O329  1  0.94146680  0.41649782  0.31157166  1
  O  O330  1  0.94320619  0.41691734  0.56431151  1
  O  O331  1  0.94109700  0.41741514  0.81261444  1
  O  O332  1  0.94076186  0.75013971  0.06211399  1
  O  O333  1  0.94336348  0.75013743  0.31363273  1
  O  O334  1  0.94124642  0.75044323  0.56273285  1
  O  O335  1  0.94142756  0.74931952  0.81266231  1
  O  O336  1  0.19364813  0.08277417  0.06210930  1
  O  O337  1  0.19074630  0.08246601  0.31309112  1
  O  O338  1  0.19342515  0.08224768  0.56068526  1
  O  O339  1  0.19351365  0.08234805  0.81151899  1
  O  O340  1  0.19414597  0.41661099  0.06179742  1
  O  O341  1  0.19354896  0.41696235  0.31213063  1
  O  O342  1  0.19451157  0.41653379  0.56159475  1
  O  O343  1  0.19327698  0.41747069  0.81176669  1
  O  O344  1  0.19302409  0.75040397  0.06124300  1
  O  O345  1  0.19096007  0.75080609  0.31318429  1
  O  O346  1  0.19052357  0.75092122  0.56208183  1
  O  O347  1  0.19096104  0.75026157  0.81227944  1
  O  O348  1  0.69394922  0.08265000  0.06153573  1
  O  O349  1  0.69445875  0.08240159  0.31238419  1
  O  O350  1  0.69113066  0.08284082  0.56290084  1
  O  O351  1  0.69046947  0.08247859  0.81174862  1
  O  O352  1  0.69120755  0.41745425  0.06349049  1
  O  O353  1  0.69414177  0.41679198  0.31155032  1
  O  O354  1  0.69332905  0.41716101  0.56165465  1
  O  O355  1  0.69459787  0.41704361  0.81153914  1
  O  O356  1  0.69102430  0.75048564  0.06316186  1
  O  O357  1  0.69058376  0.75026270  0.31260352  1
  O  O358  1  0.69350221  0.75047764  0.56123539  1
  O  O359  1  0.69453995  0.75016984  0.81161262  1
  O  O360  1  0.30602931  0.24970815  0.18805742  1
  O  O361  1  0.30657364  0.24960629  0.43857563  1
  O  O362  1  0.30990076  0.24879463  0.68738121  1
  O  O363  1  0.30606731  0.25002634  0.93861562  1
  O  O364  1  0.30885287  0.58407909  0.18699500  1
  O  O365  1  0.30690831  0.58426143  0.43883317  1
  O  O366  1  0.30798357  0.58437795  0.68720218  1
  O  O367  1  0.30684232  0.58365455  0.93896358  1
  O  O368  1  0.30963110  0.91563999  0.18762676  1
  O  O369  1  0.30969978  0.91623283  0.43725033  1
  O  O370  1  0.30905738  0.91654262  0.68736424  1
  O  O371  1  0.30895826  0.91674296  0.93821901  1
  O  O372  1  0.80790686  0.25001091  0.18762080  1
  O  O373  1  0.80885788  0.24913895  0.43689651  1
  O  O374  1  0.80580467  0.25032849  0.68829353  1
  O  O375  1  0.80614363  0.24981839  0.93893202  1
  O  O376  1  0.80611546  0.58375484  0.18879095  1
  O  O377  1  0.80963837  0.58435713  0.43664118  1
  O  O378  1  0.80638842  0.58389297  0.68911487  1
  O  O379  1  0.80802051  0.58403946  0.93740893  1
  O  O380  1  0.80817296  0.91658743  0.18803898  1
  O  O381  1  0.80901460  0.91619374  0.43736577  1
  O  O382  1  0.80824726  0.91613268  0.68683955  1
  O  O383  1  0.80671053  0.91620360  0.93847899  1
  O  O384  1  0.23219052  0.25004399  0.04006204  1
  O  O385  1  0.23173873  0.24993612  0.28922686  1
  O  O386  1  0.23476380  0.24923592  0.54121054  1
  O  O387  1  0.23500234  0.24997848  0.78768606  1
  O  O388  1  0.23445587  0.58348484  0.04094336  1
  O  O389  1  0.23339905  0.58359751  0.28758281  1
  O  O390  1  0.23451368  0.58361874  0.54071293  1
  O  O391  1  0.23271316  0.58456138  0.78763266  1
  O  O392  1  0.23525203  0.91654780  0.03963276  1
  O  O393  1  0.23576233  0.91656275  0.28877986  1
  O  O394  1  0.23538528  0.91658488  0.53795751  1
  O  O395  1  0.23379358  0.91583991  0.78761714  1
  O  O396  1  0.73263836  0.24981631  0.04012797  1
  O  O397  1  0.73386894  0.24932358  0.28877376  1
  O  O398  1  0.73474363  0.24967473  0.53811856  1
  O  O399  1  0.73326579  0.25054627  0.79036352  1
  O  O400  1  0.73286165  0.58381601  0.03799305  1
  O  O401  1  0.73400290  0.58321001  0.29086386  1
  O  O402  1  0.73524988  0.58444946  0.53761149  1
  O  O403  1  0.73328337  0.58371716  0.79093358  1
  O  O404  1  0.73418356  0.91692821  0.04059708  1
  O  O405  1  0.73359355  0.91681619  0.28860921  1
  O  O406  1  0.73434743  0.91632043  0.53809116  1
  O  O407  1  0.73453359  0.91575390  0.78833064  1
  O  O408  1  0.26645714  0.08280042  0.21306324  1
  O  O409  1  0.26766647  0.08368467  0.46010037  1
  O  O410  1  0.26672535  0.08177953  0.70998859  1
  O  O411  1  0.26649132  0.08377669  0.95986473  1
  O  O412  1  0.26593201  0.41638988  0.20996581  1
  O  O413  1  0.26861297  0.41655675  0.46054510  1
  O  O414  1  0.26630839  0.41720075  0.71030228  1
  O  O415  1  0.26787859  0.41662765  0.96005354  1
  O  O416  1  0.26680605  0.75024026  0.21305084  1
  O  O417  1  0.26504100  0.75008586  0.46169195  1
  O  O418  1  0.26545863  0.75057826  0.71138016  1
  O  O419  1  0.26578560  0.74982175  0.95961638  1
  O  O420  1  0.76815610  0.08355734  0.21116769  1
  O  O421  1  0.76679942  0.08185647  0.46276172  1
  O  O422  1  0.76437100  0.08316475  0.71092852  1
  O  O423  1  0.76751691  0.08303166  0.96008109  1
  O  O424  1  0.76754236  0.41659011  0.21008522  1
  O  O425  1  0.76675288  0.41644728  0.46033164  1
  O  O426  1  0.76823283  0.41807468  0.70988961  1
  O  O427  1  0.76497451  0.41641567  0.96239217  1
  O  O428  1  0.76443461  0.75015294  0.21186293  1
  O  O429  1  0.76736861  0.75108758  0.46006757  1
  O  O430  1  0.76851901  0.74909532  0.71032295  1
  O  O431  1  0.76656074  0.75030970  0.96292804  1
  O  O432  1  0.01372609  0.08330138  0.16363693  1
  O  O433  1  0.01569916  0.08293317  0.41291276  1
  O  O434  1  0.01508387  0.08269811  0.66347315  1
  O  O435  1  0.01546526  0.08305612  0.91570319  1
  O  O436  1  0.01516304  0.41619467  0.16587495  1
  O  O437  1  0.01534256  0.41688545  0.41315886  1
  O  O438  1  0.01593561  0.41676940  0.66618594  1
  O  O439  1  0.01504073  0.41754829  0.91400564  1
  O  O440  1  0.01464363  0.75062935  0.16342419  1
  O  O441  1  0.01718527  0.75043706  0.41481446  1
  O  O442  1  0.01608423  0.75043823  0.66312436  1
  O  O443  1  0.01608083  0.74998459  0.91325588  1
  O  O444  1  0.51593658  0.08291827  0.16617094  1
  O  O445  1  0.51484751  0.08277877  0.41272802  1
  O  O446  1  0.51685296  0.08277626  0.66235654  1
  O  O447  1  0.51826192  0.08190605  0.91598152  1
  O  O448  1  0.51761802  0.41776992  0.16218342  1
  O  O449  1  0.51581408  0.41676624  0.41589307  1
  O  O450  1  0.51506458  0.41660745  0.66428125  1
  O  O451  1  0.51627728  0.41678753  0.91535660  1
  O  O452  1  0.51702876  0.74978675  0.16500225  1
  O  O453  1  0.51710012  0.75040648  0.41306733  1
  O  O454  1  0.51532361  0.75073346  0.66618541  1
  O  O455  1  0.51524647  0.75052230  0.91268830  1
  O  O456  1  0.48601465  0.24961405  0.08734993  1
  O  O457  1  0.48424048  0.25035740  0.33366816  1
  O  O458  1  0.48203588  0.24918949  0.58517977  1
  O  O459  1  0.48500495  0.24942899  0.83719380  1
  O  O460  1  0.48322690  0.58401016  0.08463711  1
  O  O461  1  0.48367502  0.58386113  0.33465644  1
  O  O462  1  0.48286761  0.58411451  0.58841149  1
  O  O463  1  0.48520438  0.58339184  0.83667679  1
  O  O464  1  0.48295015  0.91573161  0.08845608  1
  O  O465  1  0.48427794  0.91650763  0.33733519  1
  O  O466  1  0.48274841  0.91614935  0.58461728  1
  O  O467  1  0.48226667  0.91756770  0.83515060  1
  O  O468  1  0.98258999  0.24974126  0.08769279  1
  O  O469  1  0.98230263  0.24905371  0.33556294  1
  O  O470  1  0.98314314  0.24982021  0.58437787  1
  O  O471  1  0.98444696  0.24972198  0.83730812  1
  O  O472  1  0.98411114  0.58351291  0.08738762  1
  O  O473  1  0.98270264  0.58407697  0.33516369  1
  O  O474  1  0.98463392  0.58430506  0.58708101  1
  O  O475  1  0.98270018  0.58421785  0.83497265  1
  O  O476  1  0.98121658  0.91696342  0.08601402  1
  O  O477  1  0.98141368  0.91666880  0.33585275  1
  O  O478  1  0.98312948  0.91606271  0.58724625  1
  O  O479  1  0.98426689  0.91605843  0.83436030  1
  O  O480  1  0.08639462  0.31479266  0.07722409  1
  O  O481  1  0.08645567  0.31371137  0.32663744  1
  O  O482  1  0.08676745  0.31503068  0.57691296  1
  O  O483  1  0.08784239  0.31512420  0.82811833  1
  O  O484  1  0.08769451  0.64843176  0.07797346  1
  O  O485  1  0.08658196  0.64968145  0.32728989  1
  O  O486  1  0.08805082  0.64966516  0.57849891  1
  O  O487  1  0.08659521  0.64978886  0.82727003  1
  O  O488  1  0.08498023  0.98200210  0.07718931  1
  O  O489  1  0.08517648  0.98191492  0.32718414  1
  O  O490  1  0.08669368  0.98074936  0.57708924  1
  O  O491  1  0.08854377  0.98030228  0.82658415  1
  O  O492  1  0.58922706  0.31595381  0.07825648  1
  O  O493  1  0.58862920  0.31483685  0.32683455  1
  O  O494  1  0.58580083  0.31431630  0.57688265  1
  O  O495  1  0.58863619  0.31362867  0.82790815  1
  O  O496  1  0.58707670  0.64938712  0.07711593  1
  O  O497  1  0.58743870  0.64921804  0.32806136  1
  O  O498  1  0.58655701  0.64888848  0.57813287  1
  O  O499  1  0.58893746  0.64858999  0.82680400  1
  O  O500  1  0.58643522  0.98080547  0.07804629  1
  O  O501  1  0.58820698  0.98083837  0.32691209  1
  O  O502  1  0.58657039  0.98197045  0.57626183  1
  O  O503  1  0.58645756  0.98228533  0.82788940  1
  O  O504  1  0.41189701  0.01759719  0.17298707  1
  O  O505  1  0.41128374  0.01737208  0.42164282  1
  O  O506  1  0.41348063  0.01733412  0.67133886  1
  O  O507  1  0.41392913  0.01726228  0.92243304  1
  O  O508  1  0.41417129  0.35266434  0.17241820  1
  O  O509  1  0.41188099  0.35154667  0.42259067  1
  O  O510  1  0.41165702  0.35128293  0.67169646  1
  O  O511  1  0.41240950  0.35164453  0.92390727  1
  O  O512  1  0.41329335  0.68406725  0.17307504  1
  O  O513  1  0.41322496  0.68592061  0.42246732  1
  O  O514  1  0.41136043  0.68541132  0.67315307  1
  O  O515  1  0.41166138  0.68613032  0.92199445  1
  O  O516  1  0.90988969  0.01845099  0.17221937  1
  O  O517  1  0.91171093  0.01810341  0.42224056  1
  O  O518  1  0.91167298  0.01695962  0.67158620  1
  O  O519  1  0.91141462  0.01823389  0.92290525  1
  O  O520  1  0.91141139  0.35035701  0.17282296  1
  O  O521  1  0.91199573  0.35139653  0.42113585  1
  O  O522  1  0.91177396  0.35198357  0.67359476  1
  O  O523  1  0.91113226  0.35335270  0.92252391  1
  O  O524  1  0.91103207  0.68603801  0.17223844  1
  O  O525  1  0.91335492  0.68493427  0.42300243  1
  O  O526  1  0.91211188  0.68636073  0.67314754  1
  O  O527  1  0.91269516  0.68359934  0.92267132  1
  O  O528  1  0.16276156  0.01836448  0.20262318  1
  O  O529  1  0.16405693  0.01786776  0.45062781  1
  O  O530  1  0.16297921  0.01651631  0.70236529  1
  O  O531  1  0.16287384  0.01873226  0.95269493  1
  O  O532  1  0.16187764  0.35163411  0.20332785  1
  O  O533  1  0.16463580  0.35143120  0.45220946  1
  O  O534  1  0.16246775  0.35272640  0.70237975  1
  O  O535  1  0.16410717  0.35082392  0.95274392  1
  O  O536  1  0.16325535  0.68466489  0.20338061  1
  O  O537  1  0.16110293  0.68544457  0.45235062  1
  O  O538  1  0.16153949  0.68557769  0.70225583  1
  O  O539  1  0.16156246  0.68530394  0.95200298  1
  O  O540  1  0.66473043  0.01764309  0.20253596  1
  O  O541  1  0.66321889  0.01681172  0.45311707  1
  O  O542  1  0.66073647  0.01790078  0.70167673  1
  O  O543  1  0.66326342  0.01886098  0.95169729  1
  O  O544  1  0.66374325  0.35075993  0.20255883  1
  O  O545  1  0.66284140  0.35190986  0.45251399  1
  O  O546  1  0.66425507  0.35334646  0.70171913  1
  O  O547  1  0.66149046  0.35146896  0.95413536  1
  O  O548  1  0.66028876  0.68638634  0.20241353  1
  O  O549  1  0.66307352  0.68647396  0.45151220  1
  O  O550  1  0.66479010  0.68362853  0.70257559  1
  O  O551  1  0.66300169  0.68496681  0.95319323  1
  O  O552  1  0.33579776  0.31614929  0.04789554  1
  O  O553  1  0.33599122  0.31427559  0.29728673  1
  O  O554  1  0.33862012  0.31459694  0.54757714  1
  O  O555  1  0.33889240  0.31423434  0.79707591  1
  O  O556  1  0.33897676  0.64706933  0.04853920  1
  O  O557  1  0.33654898  0.64966631  0.29718892  1
  O  O558  1  0.33865027  0.64796903  0.54845436  1
  O  O559  1  0.33611760  0.65015666  0.79706383  1
  O  O560  1  0.33918827  0.98153106  0.04797237  1
  O  O561  1  0.33989477  0.98102730  0.29701266  1
  O  O562  1  0.33865165  0.98289133  0.54668969  1
  O  O563  1  0.33787532  0.98014529  0.79803360  1
  O  O564  1  0.83711021  0.31364080  0.04873985  1
  O  O565  1  0.83737196  0.31519300  0.29745128  1
  O  O566  1  0.83880426  0.31352473  0.54655187  1
  O  O567  1  0.83669460  0.31649468  0.79721314  1
  O  O568  1  0.83615622  0.64962918  0.04741413  1
  O  O569  1  0.83830513  0.64736556  0.29821999  1
  O  O570  1  0.83837844  0.65033037  0.54628575  1
  O  O571  1  0.83745955  0.64865582  0.79837803  1
  O  O572  1  0.83826948  0.98158729  0.04739816  1
  O  O573  1  0.83726226  0.98251648  0.29775410  1
  O  O574  1  0.83835910  0.98114045  0.54738210  1
  O  O575  1  0.83808889  0.98051656  0.79667168  1
  O  O576  1  0.41170120  0.14769293  0.17363609  1
  O  O577  1  0.41106651  0.14746942  0.42237985  1
  O  O578  1  0.41325552  0.14761724  0.67191688  1
  O  O579  1  0.41480944  0.14734336  0.92356469  1
  O  O580  1  0.41386261  0.48287205  0.17134246  1
  O  O581  1  0.41169329  0.48152682  0.42281389  1
  O  O582  1  0.41161117  0.48191350  0.67205884  1
  O  O583  1  0.41215596  0.48165784  0.92353330  1
  O  O584  1  0.41266741  0.81407000  0.17332005  1
  O  O585  1  0.41357655  0.81587264  0.42191670  1
  O  O586  1  0.41106326  0.81549613  0.67217917  1
  O  O587  1  0.41204690  0.81639865  0.92131057  1
  O  O588  1  0.91015467  0.14861564  0.17239616  1
  O  O589  1  0.91188761  0.14827166  0.42221446  1
  O  O590  1  0.91135923  0.14712782  0.67215123  1
  O  O591  1  0.91149285  0.14813521  0.92345961  1
  O  O592  1  0.91082130  0.48036585  0.17327563  1
  O  O593  1  0.91189972  0.48197323  0.42108954  1
  O  O594  1  0.91204928  0.48190168  0.67351123  1
  O  O595  1  0.91186286  0.48364700  0.92195175  1
  O  O596  1  0.91113834  0.81606865  0.17169405  1
  O  O597  1  0.91286069  0.81505075  0.42297942  1
  O  O598  1  0.91254044  0.81622313  0.67266061  1
  O  O599  1  0.91156208  0.81353212  0.92259905  1
  O  O600  1  0.08648274  0.18482329  0.07734239  1
  O  O601  1  0.08610608  0.18354894  0.32677845  1
  O  O602  1  0.08686537  0.18481234  0.57698753  1
  O  O603  1  0.08807913  0.18487262  0.82812336  1
  O  O604  1  0.08736384  0.51823192  0.07776230  1
  O  O605  1  0.08702065  0.51954693  0.32674877  1
  O  O606  1  0.08790867  0.51932827  0.57762984  1
  O  O607  1  0.08709560  0.51983858  0.82674732  1
  O  O608  1  0.08512315  0.85202875  0.07719283  1
  O  O609  1  0.08543531  0.85178509  0.32747833  1
  O  O610  1  0.08667998  0.85070261  0.57779146  1
  O  O611  1  0.08790336  0.85027893  0.82735575  1
  O  O612  1  0.59021949  0.18573496  0.07792133  1
  O  O613  1  0.58815648  0.18487073  0.32649186  1
  O  O614  1  0.58593890  0.18416920  0.57714241  1
  O  O615  1  0.58802271  0.18316334  0.82894516  1
  O  O616  1  0.58756255  0.51924575  0.07671329  1
  O  O617  1  0.58736969  0.51909970  0.32752362  1
  O  O618  1  0.58637289  0.51877763  0.57790103  1
  O  O619  1  0.58901928  0.51860671  0.82692547  1
  O  O620  1  0.58650059  0.85066995  0.07866000  1
  O  O621  1  0.58790439  0.85087485  0.32753358  1
  O  O622  1  0.58725869  0.85202415  0.57627739  1
  O  O623  1  0.58580444  0.85231046  0.82664411  1
  O  O624  1  0.33650374  0.18606821  0.04815645  1
  O  O625  1  0.33536320  0.18419307  0.29749678  1
  O  O626  1  0.33879232  0.18434100  0.54742732  1
  O  O627  1  0.33806184  0.18402892  0.79766362  1
  O  O628  1  0.33798877  0.51702753  0.04771476  1
  O  O629  1  0.33740601  0.51940458  0.29670227  1
  O  O630  1  0.33834820  0.51784148  0.54752103  1
  O  O631  1  0.33665689  0.52015224  0.79737634  1
  O  O632  1  0.33902694  0.85153131  0.04788685  1
  O  O633  1  0.33932269  0.85086919  0.29767113  1
  O  O634  1  0.33948157  0.85278282  0.54764004  1
  O  O635  1  0.33730968  0.85023642  0.79712846  1
  O  O636  1  0.83619097  0.18366922  0.04809208  1
  O  O637  1  0.83807267  0.18507192  0.29740541  1
  O  O638  1  0.83759450  0.18317315  0.54656457  1
  O  O639  1  0.83720005  0.18616789  0.79753987  1
  O  O640  1  0.83673258  0.51951353  0.04738034  1
  O  O641  1  0.83781729  0.51728707  0.29726746  1
  O  O642  1  0.83903308  0.52013114  0.54675115  1
  O  O643  1  0.83731346  0.51856785  0.79828915  1
  O  O644  1  0.83792850  0.85146992  0.04795683  1
  O  O645  1  0.83758902  0.85253992  0.29830573  1
  O  O646  1  0.83815351  0.85106363  0.54715233  1
  O  O647  1  0.83805908  0.85031113  0.79627074  1
  O  O648  1  0.16291223  0.14854406  0.20334570  1
  O  O649  1  0.16300142  0.14781684  0.45160575  1
  O  O650  1  0.16299956  0.14679939  0.70199926  1
  O  O651  1  0.16267810  0.14905021  0.95344441  1
  O  O652  1  0.16241910  0.48200009  0.20291297  1
  O  O653  1  0.16466282  0.48146085  0.45207991  1
  O  O654  1  0.16289343  0.48312901  0.70264479  1
  O  O655  1  0.16381555  0.48102142  0.95244647  1
  O  O656  1  0.16317347  0.81486974  0.20271435  1
  O  O657  1  0.16143954  0.81535784  0.45171924  1
  O  O658  1  0.16176417  0.81563592  0.70222480  1
  O  O659  1  0.16200590  0.81529997  0.95191621  1
  O  O660  1  0.66396450  0.14770345  0.20324118  1
  O  O661  1  0.66332523  0.14693285  0.45238975  1
  O  O662  1  0.66046633  0.14795758  0.70203373  1
  O  O663  1  0.66373240  0.14892300  0.95259428  1
  O  O664  1  0.66311756  0.48079002  0.20186311  1
  O  O665  1  0.66339207  0.48220728  0.45227356  1
  O  O666  1  0.66446752  0.48355482  0.70269321  1
  O  O667  1  0.66175885  0.48189340  0.95341549  1
  O  O668  1  0.66129527  0.81652049  0.20299135  1
  O  O669  1  0.66336277  0.81644230  0.45209968  1
  O  O670  1  0.66454930  0.81368154  0.70171561  1
  O  O671  1  0.66305122  0.81509526  0.95277557  1
