# generated using pymatgen
data_Na2MnFe(PO4)2
_symmetry_space_group_name_H-M   'P 1'
_cell_length_a   21.09150512
_cell_length_b   18.94538573
_cell_length_c   20.04975449
_cell_angle_alpha   89.99967311
_cell_angle_beta   90.00211870
_cell_angle_gamma   90.00120207
_symmetry_Int_Tables_number   1
_chemical_formula_structural   Na2MnFe(PO4)2
_chemical_formula_sum   'Na96 Mn48 Fe48 P96 O384'
_cell_volume   8011.61522983
_cell_formula_units_Z   48
loop_
 _symmetry_equiv_pos_site_id
 _symmetry_equiv_pos_as_xyz
  1  'x, y, z'
loop_
 _atom_site_type_symbol
 _atom_site_label
 _atom_site_symmetry_multiplicity
 _atom_site_fract_x
 _atom_site_fract_y
 _atom_site_fract_z
 _atom_site_occupancy
  Na  Na0  1  0.00051223  0.00021089  -0.00061982  1
  Na  Na1  1  -0.00015974  -0.00034184  0.25081908  1
  Na  Na2  1  0.00019808  -0.00002890  0.50028045  1
  Na  Na3  1  0.00035265  0.00020293  0.75029239  1
  Na  Na4  1  0.00142826  0.33342260  0.00007846  1
  Na  Na5  1  0.00063636  0.33300044  0.25037077  1
  Na  Na6  1  -0.00195363  0.33239164  0.49916008  1
  Na  Na7  1  -0.00242586  0.33241691  0.74982703  1
  Na  Na8  1  0.00074992  0.66690761  -0.00125077  1
  Na  Na9  1  0.00190682  0.66764117  0.24991880  1
  Na  Na10  1  0.00004745  0.66743173  0.50070924  1
  Na  Na11  1  -0.00282954  0.66592702  0.75024929  1
  Na  Na12  1  0.49905815  0.00039820  -0.00002039  1
  Na  Na13  1  0.49786010  0.00064173  0.24950592  1
  Na  Na14  1  0.49740252  -0.00015696  0.50019314  1
  Na  Na15  1  0.49861412  -0.00005168  0.74908362  1
  Na  Na16  1  0.50262590  0.33349564  0.00070752  1
  Na  Na17  1  0.50021666  0.33275178  0.25079082  1
  Na  Na18  1  0.50058751  0.33306135  0.49983121  1
  Na  Na19  1  0.50298196  0.33330825  0.74972362  1
  Na  Na20  1  0.50050936  0.66694609  -0.00108073  1
  Na  Na21  1  0.49881110  0.66582028  0.25014635  1
  Na  Na22  1  0.50001499  0.66722872  0.50021555  1
  Na  Na23  1  0.49908267  0.66632871  0.75078774  1
  Na  Na24  1  0.24931906  0.00030821  0.12426277  1
  Na  Na25  1  0.25073382  0.00045718  0.37555697  1
  Na  Na26  1  0.25107426  -0.00033499  0.62467561  1
  Na  Na27  1  0.25103515  0.00043337  0.87526158  1
  Na  Na28  1  0.24769329  0.33235201  0.12447477  1
  Na  Na29  1  0.25064172  0.33318321  0.37482290  1
  Na  Na30  1  0.24955622  0.33255100  0.62467237  1
  Na  Na31  1  0.24985372  0.33363369  0.87566000  1
  Na  Na32  1  0.24845801  0.66642360  0.12630961  1
  Na  Na33  1  0.24827936  0.66590996  0.37373045  1
  Na  Na34  1  0.25127765  0.66732400  0.62486962  1
  Na  Na35  1  0.25032501  0.66707065  0.87633447  1
  Na  Na36  1  0.75191121  0.00094870  0.12660650  1
  Na  Na37  1  0.75108284  0.00006085  0.37441468  1
  Na  Na38  1  0.75051328  0.00050429  0.62425057  1
  Na  Na39  1  0.74904147  -0.00040724  0.87567188  1
  Na  Na40  1  0.74804351  0.33190356  0.12456448  1
  Na  Na41  1  0.75177554  0.33346165  0.37556209  1
  Na  Na42  1  0.75015892  0.33257563  0.62443364  1
  Na  Na43  1  0.74970111  0.33277005  0.87551745  1
  Na  Na44  1  0.75044574  0.66620773  0.12512226  1
  Na  Na45  1  0.75064955  0.66628596  0.37333792  1
  Na  Na46  1  0.75200373  0.66785566  0.62497329  1
  Na  Na47  1  0.75113710  0.66697903  0.87537438  1
  Na  Na48  1  0.00158989  0.16608689  0.00029455  1
  Na  Na49  1  0.00069882  0.16722711  0.25010285  1
  Na  Na50  1  -0.00057539  0.16671210  0.49917426  1
  Na  Na51  1  -0.00334560  0.16824324  0.75060925  1
  Na  Na52  1  -0.00049205  0.49960405  -0.00115535  1
  Na  Na53  1  -0.00148069  0.50010586  0.25070276  1
  Na  Na54  1  -0.00231920  0.49934560  0.49976518  1
  Na  Na55  1  -0.00290063  0.49979631  0.74999601  1
  Na  Na56  1  0.00185196  0.83361758  -0.00081537  1
  Na  Na57  1  0.00193491  0.83408451  0.25015210  1
  Na  Na58  1  0.00131714  0.83407212  0.50147479  1
  Na  Na59  1  0.00088599  0.83376779  0.74971088  1
  Na  Na60  1  0.50106579  0.16618089  0.00052043  1
  Na  Na61  1  0.49932306  0.16686809  0.24978378  1
  Na  Na62  1  0.50047891  0.16653761  0.50016325  1
  Na  Na63  1  0.50094137  0.16616227  0.74950269  1
  Na  Na64  1  0.50119378  0.49962430  -0.00045519  1
  Na  Na65  1  0.49870002  0.49970876  0.25094430  1
  Na  Na66  1  0.49910540  0.49940109  0.49910568  1
  Na  Na67  1  0.50134493  0.49951223  0.75025937  1
  Na  Na68  1  0.49941205  0.83376589  -0.00060159  1
  Na  Na69  1  0.49901973  0.83370186  0.24978160  1
  Na  Na70  1  0.49748472  0.83471490  0.50067750  1
  Na  Na71  1  0.49870083  0.83426392  0.75012667  1
  Na  Na72  1  0.24890546  0.16708221  0.12497069  1
  Na  Na73  1  0.25070874  0.16665030  0.37505635  1
  Na  Na74  1  0.25239446  0.16607917  0.62478254  1
  Na  Na75  1  0.25115270  0.16627944  0.87569344  1
  Na  Na76  1  0.24982341  0.49934955  0.12536011  1
  Na  Na77  1  0.25145982  0.49854431  0.37413120  1
  Na  Na78  1  0.25006805  0.49949826  0.62529942  1
  Na  Na79  1  0.24943679  0.49993677  0.87581832  1
  Na  Na80  1  0.24673695  0.83454461  0.12480095  1
  Na  Na81  1  0.24826449  0.83439018  0.37485626  1
  Na  Na82  1  0.25031436  0.83414681  0.62426259  1
  Na  Na83  1  0.25023736  0.83347582  0.87576212  1
  Na  Na84  1  0.74878434  0.16683227  0.12529086  1
  Na  Na85  1  0.74911485  0.16700811  0.37500438  1
  Na  Na86  1  0.74911788  0.16688441  0.62495770  1
  Na  Na87  1  0.74878066  0.16673192  0.87437918  1
  Na  Na88  1  0.75056972  0.49987917  0.12516739  1
  Na  Na89  1  0.75189528  0.49869468  0.37431716  1
  Na  Na90  1  0.75130825  0.49921505  0.62495479  1
  Na  Na91  1  0.75100096  0.49947426  0.87628266  1
  Na  Na92  1  0.75135585  0.83382773  0.12580524  1
  Na  Na93  1  0.75319159  0.83324679  0.37395543  1
  Na  Na94  1  0.75109005  0.83384055  0.62417419  1
  Na  Na95  1  0.75036628  0.83366876  0.87579871  1
  Mn  Mn96  1  0.10769424  0.74952125  0.87184923  1
  Mn  Mn97  1  0.60752266  0.08321582  0.12324977  1
  Mn  Mn98  1  0.85963641  0.75023380  0.25226785  1
  Mn  Mn99  1  0.85763541  0.08344576  0.50202475  1
  Mn  Mn100  1  0.35657146  0.75047678  0.25216570  1
  Mn  Mn101  1  0.89139852  0.58294235  0.62754114  1
  Mn  Mn102  1  0.60869797  0.41623857  0.87249215  1
  Mn  Mn103  1  0.60767229  0.41620025  0.37248656  1
  Mn  Mn104  1  0.39332649  0.24973738  0.87706288  1
  Mn  Mn105  1  0.39228831  0.58334233  0.62756079  1
  Mn  Mn106  1  0.39217219  0.25118759  0.12721128  1
  Mn  Mn107  1  0.14182921  0.24936915  0.74750703  1
  Mn  Mn108  1  0.89216707  0.91704416  0.87698274  1
  Mn  Mn109  1  0.85755608  0.08330763  0.00252827  1
  Mn  Mn110  1  0.14199588  0.58268628  0.49784312  1
  Mn  Mn111  1  0.89233397  0.58414187  0.37745179  1
  Mn  Mn112  1  0.10803748  0.08450498  0.62347428  1
  Mn  Mn113  1  0.35677186  0.74968861  0.00287249  1
  Mn  Mn114  1  0.39164279  0.58337636  0.37751200  1
  Mn  Mn115  1  0.60769334  0.74940769  0.12301282  1
  Mn  Mn116  1  0.60804131  0.74982506  0.62272152  1
  Mn  Mn117  1  0.10801016  0.08398637  0.87211131  1
  Mn  Mn118  1  0.10827759  0.08326443  0.37276614  1
  Mn  Mn119  1  0.64289239  0.58352712  0.49753069  1
  Mn  Mn120  1  0.64196504  0.91658127  0.49707519  1
  Mn  Mn121  1  0.89253623  0.91758381  0.62770507  1
  Mn  Mn122  1  0.64324856  0.58370070  0.74737634  1
  Mn  Mn123  1  0.85827212  0.75034238  0.00289005  1
  Mn  Mn124  1  0.10676856  0.41660078  0.87239355  1
  Mn  Mn125  1  0.39210250  0.58326551  0.87784953  1
  Mn  Mn126  1  0.64243731  0.58266269  0.24717255  1
  Mn  Mn127  1  0.60745728  0.08311156  0.62260666  1
  Mn  Mn128  1  0.39086637  0.91584155  0.12737699  1
  Mn  Mn129  1  0.35844218  0.41665942  0.75219722  1
  Mn  Mn130  1  0.60806954  0.75115295  0.37281528  1
  Mn  Mn131  1  0.60774723  0.75119289  0.87245679  1
  Mn  Mn132  1  0.14181754  0.58252035  0.24696669  1
  Mn  Mn133  1  0.10804698  0.74967206  0.62321915  1
  Mn  Mn134  1  0.10743004  0.41701083  0.37310568  1
  Mn  Mn135  1  0.85740812  0.41620318  0.00321410  1
  Mn  Mn136  1  0.64215823  0.91667633  0.99827232  1
  Mn  Mn137  1  0.35754079  0.41641879  0.00278969  1
  Mn  Mn138  1  0.14186611  0.58373493  0.74763659  1
  Mn  Mn139  1  0.10668795  0.41603013  0.62285763  1
  Mn  Mn140  1  0.89287001  0.24984084  0.12753309  1
  Mn  Mn141  1  0.64266127  0.91710062  0.24824892  1
  Mn  Mn142  1  0.39298188  0.25031154  0.62723016  1
  Mn  Mn143  1  0.35733555  0.74962308  0.50184716  1
  Fe  Fe144  1  0.85690694  0.41647448  0.50185325  1
  Fe  Fe145  1  0.10763707  0.08345567  0.12348408  1
  Fe  Fe146  1  0.64285475  0.58339810  0.99892856  1
  Fe  Fe147  1  0.35727635  0.41605549  0.50220611  1
  Fe  Fe148  1  0.10737331  0.41696019  0.12370127  1
  Fe  Fe149  1  0.89172326  0.24992843  0.87743494  1
  Fe  Fe150  1  0.60612731  0.08298146  0.37323215  1
  Fe  Fe151  1  0.85772428  0.41543173  0.25071782  1
  Fe  Fe152  1  0.60752838  0.41734948  0.12436167  1
  Fe  Fe153  1  0.64243678  0.24969491  0.99809582  1
  Fe  Fe154  1  0.39194599  0.91632242  0.62749666  1
  Fe  Fe155  1  0.14278559  0.24960751  0.24889797  1
  Fe  Fe156  1  0.60694949  0.08239360  0.87308621  1
  Fe  Fe157  1  0.14273902  0.24988720  0.49832627  1
  Fe  Fe158  1  0.89422055  0.91674039  0.12651130  1
  Fe  Fe159  1  0.39240838  0.58282635  0.12585770  1
  Fe  Fe160  1  0.39237440  0.24945329  0.37671182  1
  Fe  Fe161  1  0.64290816  0.24984902  0.24920992  1
  Fe  Fe162  1  0.64241219  0.91682152  0.74831513  1
  Fe  Fe163  1  0.10745845  0.75021629  0.37428330  1
  Fe  Fe164  1  0.35682248  0.08374972  0.00152406  1
  Fe  Fe165  1  0.64317653  0.24981226  0.49761894  1
  Fe  Fe166  1  0.85819156  0.08435684  0.25178404  1
  Fe  Fe167  1  0.64390221  0.24952385  0.74803788  1
  Fe  Fe168  1  0.35721693  0.08407535  0.50125212  1
  Fe  Fe169  1  0.14252185  0.91724835  0.99782055  1
  Fe  Fe170  1  0.14354343  0.91732901  0.49843425  1
  Fe  Fe171  1  0.14181362  0.58282207  0.99852845  1
  Fe  Fe172  1  0.35747024  0.75032183  0.75171839  1
  Fe  Fe173  1  0.89165100  0.24931743  0.62648725  1
  Fe  Fe174  1  0.89259061  0.24927980  0.37654126  1
  Fe  Fe175  1  0.10704450  0.74971684  0.12302178  1
  Fe  Fe176  1  0.35779086  0.08328599  0.75242905  1
  Fe  Fe177  1  0.85729657  0.75073738  0.75173239  1
  Fe  Fe178  1  0.60850088  0.41705818  0.62278915  1
  Fe  Fe179  1  0.89406207  0.91678745  0.37697607  1
  Fe  Fe180  1  0.89203052  0.58317683  0.87736551  1
  Fe  Fe181  1  0.39153237  0.91717264  0.37612781  1
  Fe  Fe182  1  0.85640050  0.08309727  0.75191809  1
  Fe  Fe183  1  0.35659590  0.08391542  0.25143636  1
  Fe  Fe184  1  0.85641404  0.41621544  0.75186775  1
  Fe  Fe185  1  0.89333316  0.58354856  0.12582196  1
  Fe  Fe186  1  0.14228797  0.91792414  0.24823672  1
  Fe  Fe187  1  0.14422506  0.91702545  0.74872758  1
  Fe  Fe188  1  0.85843909  0.75008795  0.50142228  1
  Fe  Fe189  1  0.39257476  0.91709003  0.87653595  1
  Fe  Fe190  1  0.14256020  0.25000275  0.99780629  1
  Fe  Fe191  1  0.35725001  0.41559802  0.25089941  1
  P  P192  1  0.05563733  0.24982168  0.11102372  1
  P  P193  1  0.05415021  0.24996678  0.36069322  1
  P  P194  1  0.05180315  0.24980278  0.60912096  1
  P  P195  1  0.05257418  0.25011584  0.86070395  1
  P  P196  1  0.05249488  0.58281321  0.10941858  1
  P  P197  1  0.05333671  0.58393115  0.36022614  1
  P  P198  1  0.05242914  0.58285417  0.60994911  1
  P  P199  1  0.05233407  0.58288419  0.86051057  1
  P  P200  1  0.05457707  0.91760671  0.11074125  1
  P  P201  1  0.05487432  0.91645063  0.36126812  1
  P  P202  1  0.05604507  0.91751784  0.61103324  1
  P  P203  1  0.05547833  0.91708706  0.85990839  1
  P  P204  1  0.55542829  0.25082739  0.11130857  1
  P  P205  1  0.55388920  0.24873659  0.36084993  1
  P  P206  1  0.55622487  0.25060029  0.61036334  1
  P  P207  1  0.55584837  0.24844116  0.86033493  1
  P  P208  1  0.55253931  0.58223534  0.10961400  1
  P  P209  1  0.55343271  0.58329186  0.35992924  1
  P  P210  1  0.55367559  0.58267216  0.60977379  1
  P  P211  1  0.55491936  0.58358002  0.86086290  1
  P  P212  1  0.55252666  0.91685088  0.11005097  1
  P  P213  1  0.55136928  0.91810325  0.35998183  1
  P  P214  1  0.55298280  0.91672323  0.61093459  1
  P  P215  1  0.55259912  0.91794511  0.85930755  1
  P  P216  1  0.44411834  0.08385302  0.13947351  1
  P  P217  1  0.44494186  0.08389674  0.38896064  1
  P  P218  1  0.44436187  0.08302283  0.63918048  1
  P  P219  1  0.44592096  0.08270499  0.88947559  1
  P  P220  1  0.44757233  0.41730375  0.14054118  1
  P  P221  1  0.44433404  0.41491521  0.38925586  1
  P  P222  1  0.44779977  0.41626402  0.63910993  1
  P  P223  1  0.44731776  0.41593208  0.89048129  1
  P  P224  1  0.44618763  0.74868535  0.13992905  1
  P  P225  1  0.44635424  0.75110665  0.38992609  1
  P  P226  1  0.44584361  0.75068070  0.64083024  1
  P  P227  1  0.44491571  0.75130695  0.88898913  1
  P  P228  1  0.94791895  0.08293254  0.14042532  1
  P  P229  1  0.94582615  0.08355271  0.38863188  1
  P  P230  1  0.94585606  0.08429586  0.64080594  1
  P  P231  1  0.94512023  0.08412501  0.88905967  1
  P  P232  1  0.94777910  0.41690239  0.14021855  1
  P  P233  1  0.94425393  0.41524547  0.38902330  1
  P  P234  1  0.94385403  0.41505216  0.63936274  1
  P  P235  1  0.94392768  0.41598927  0.88885929  1
  P  P236  1  0.94868626  0.75029769  0.13940312  1
  P  P237  1  0.94813132  0.75142942  0.39071598  1
  P  P238  1  0.94509807  0.75053796  0.63997572  1
  P  P239  1  0.94511438  0.74998890  0.88876571  1
  P  P240  1  0.19699480  0.08352006  0.23489798  1
  P  P241  1  0.19770418  0.08383702  0.48549447  1
  P  P242  1  0.19864001  0.08275507  0.73507406  1
  P  P243  1  0.19590564  0.08360793  0.98616465  1
  P  P244  1  0.19698512  0.41534286  0.23477112  1
  P  P245  1  0.19755254  0.41545746  0.48509653  1
  P  P246  1  0.19660098  0.41638315  0.73488827  1
  P  P247  1  0.19446826  0.41680121  0.98645620  1
  P  P248  1  0.19377020  0.75122766  0.23583809  1
  P  P249  1  0.19599174  0.75065581  0.48445515  1
  P  P250  1  0.19819265  0.75098337  0.73516923  1
  P  P251  1  0.19404531  0.74963578  0.98663666  1
  P  P252  1  0.69667417  0.08408700  0.23687824  1
  P  P253  1  0.69557694  0.08365653  0.48408013  1
  P  P254  1  0.69622232  0.08273275  0.73619451  1
  P  P255  1  0.69562137  0.08378941  0.98468629  1
  P  P256  1  0.69756773  0.41517345  0.23485820  1
  P  P257  1  0.69684303  0.41591176  0.48585309  1
  P  P258  1  0.69754905  0.41579877  0.73468085  1
  P  P259  1  0.69500935  0.41675911  0.98692812  1
  P  P260  1  0.69763117  0.75043105  0.23485213  1
  P  P261  1  0.69884710  0.75032868  0.48432534  1
  P  P262  1  0.69805740  0.75127653  0.73507938  1
  P  P263  1  0.69665877  0.74932827  0.98536992  1
  P  P264  1  0.30236612  0.24949125  0.01482645  1
  P  P265  1  0.30275033  0.24985238  0.26490829  1
  P  P266  1  0.30384777  0.25005573  0.51354252  1
  P  P267  1  0.30357305  0.24950393  0.76527282  1
  P  P268  1  0.30186553  0.58318062  0.01613751  1
  P  P269  1  0.30432201  0.58227186  0.26331415  1
  P  P270  1  0.30314550  0.58209906  0.51491669  1
  P  P271  1  0.30316375  0.58405525  0.76558321  1
  P  P272  1  0.30290926  0.91745596  0.01361033  1
  P  P273  1  0.30185274  0.91778937  0.26510380  1
  P  P274  1  0.30448675  0.91761254  0.51397857  1
  P  P275  1  0.30450685  0.91668729  0.76449073  1
  P  P276  1  0.80288085  0.24945642  0.01440875  1
  P  P277  1  0.80331131  0.24979358  0.26518862  1
  P  P278  1  0.80395443  0.24996637  0.51409923  1
  P  P279  1  0.80386365  0.24954159  0.76414185  1
  P  P280  1  0.80399490  0.58330933  0.01498612  1
  P  P281  1  0.80555196  0.58217417  0.26312968  1
  P  P282  1  0.80385652  0.58347537  0.51451568  1
  P  P283  1  0.80405571  0.58324019  0.76583099  1
  P  P284  1  0.80419944  0.91706186  0.01646219  1
  P  P285  1  0.80679849  0.91799680  0.26428572  1
  P  P286  1  0.80505621  0.91630605  0.51352494  1
  P  P287  1  0.80207156  0.91723657  0.76492490  1
  O  O288  1  0.05962767  0.24977418  0.18783024  1
  O  O289  1  0.05916160  0.24978505  0.43733456  1
  O  O290  1  0.05585199  0.24971863  0.68585052  1
  O  O291  1  0.05826444  0.24968481  0.93732376  1
  O  O292  1  0.05579761  0.58262475  0.18618401  1
  O  O293  1  0.05616123  0.58271199  0.43697235  1
  O  O294  1  0.05557726  0.58287856  0.68674031  1
  O  O295  1  0.05770589  0.58298659  0.93710924  1
  O  O296  1  0.05858868  0.91810806  0.18750205  1
  O  O297  1  0.05965894  0.91776371  0.43795431  1
  O  O298  1  0.06081646  0.91745768  0.68775536  1
  O  O299  1  0.05976421  0.91739062  0.93672816  1
  O  O300  1  0.55934362  0.24974562  0.18807602  1
  O  O301  1  0.55873644  0.24974331  0.43751638  1
  O  O302  1  0.56069679  0.24975632  0.68715299  1
  O  O303  1  0.55922543  0.24936850  0.93716624  1
  O  O304  1  0.55609443  0.58280120  0.18636769  1
  O  O305  1  0.55701930  0.58310887  0.43667889  1
  O  O306  1  0.55704532  0.58318518  0.68658974  1
  O  O307  1  0.55953284  0.58361585  0.93757128  1
  O  O308  1  0.55625984  0.91724872  0.18677185  1
  O  O309  1  0.55521046  0.91747284  0.43668684  1
  O  O310  1  0.55859303  0.91682251  0.68752116  1
  O  O311  1  0.55647264  0.91721151  0.93598049  1
  O  O312  1  0.43978742  0.08396446  0.06270324  1
  O  O313  1  0.44037130  0.08408718  0.31224240  1
  O  O314  1  0.44028152  0.08398478  0.56240832  1
  O  O315  1  0.44145625  0.08358610  0.81272008  1
  O  O316  1  0.44394756  0.41609779  0.06383467  1
  O  O317  1  0.43997379  0.41529310  0.31250828  1
  O  O318  1  0.44219767  0.41594046  0.56248979  1
  O  O319  1  0.44407206  0.41579426  0.81370387  1
  O  O320  1  0.44309703  0.74968563  0.06313763  1
  O  O321  1  0.44286599  0.75038091  0.31318779  1
  O  O322  1  0.44258044  0.75017815  0.56405982  1
  O  O323  1  0.44077510  0.75040543  0.81228514  1
  O  O324  1  0.94414458  0.08368292  0.06372172  1
  O  O325  1  0.94221187  0.08414450  0.31193416  1
  O  O326  1  0.94303858  0.08329227  0.56401144  1
  O  O327  1  0.94030726  0.08342607  0.81238705  1
  O  O328  1  0.94397970  0.41585128  0.06350362  1
  O  O329  1  0.94064641  0.41551746  0.31226153  1
  O  O330  1  0.94003333  0.41587089  0.56254091  1
  O  O331  1  0.93980257  0.41574178  0.81211062  1
  O  O332  1  0.94518387  0.75045541  0.06272851  1
  O  O333  1  0.94506894  0.75084512  0.31393657  1
  O  O334  1  0.94122562  0.75073026  0.56320399  1
  O  O335  1  0.94059169  0.75088835  0.81201860  1
  O  O336  1  0.19140799  0.08343749  0.06280042  1
  O  O337  1  0.19385707  0.08337945  0.31161893  1
  O  O338  1  0.19437297  0.08390170  0.56209166  1
  O  O339  1  0.19461082  0.08363436  0.81175299  1
  O  O340  1  0.19045711  0.41700689  0.06319282  1
  O  O341  1  0.19326969  0.41629850  0.31142176  1
  O  O342  1  0.19339383  0.41597403  0.56172903  1
  O  O343  1  0.19301111  0.41639612  0.81167751  1
  O  O344  1  0.18992697  0.74957364  0.06347448  1
  O  O345  1  0.19021781  0.75017860  0.31258429  1
  O  O346  1  0.19352294  0.75004176  0.56125232  1
  O  O347  1  0.19434344  0.75012426  0.81189722  1
  O  O348  1  0.69297196  0.08298437  0.06152030  1
  O  O349  1  0.69129550  0.08296873  0.31339981  1
  O  O350  1  0.69270520  0.08271221  0.56090343  1
  O  O351  1  0.69173453  0.08236519  0.81278718  1
  O  O352  1  0.69126065  0.41707099  0.06363887  1
  O  O353  1  0.69406649  0.41613915  0.31157958  1
  O  O354  1  0.69239071  0.41661007  0.56250916  1
  O  O355  1  0.69421597  0.41644008  0.81143599  1
  O  O356  1  0.69357122  0.74986228  0.06213284  1
  O  O357  1  0.69409733  0.75071704  0.31160325  1
  O  O358  1  0.69461639  0.75070973  0.56102076  1
  O  O359  1  0.69405128  0.75080283  0.81174690  1
  O  O360  1  0.30601124  0.25022541  0.18824226  1
  O  O361  1  0.30815812  0.24994869  0.43688922  1
  O  O362  1  0.30690700  0.25026068  0.68850540  1
  O  O363  1  0.30685468  0.25016437  0.93825437  1
  O  O364  1  0.30850108  0.58292659  0.18664037  1
  O  O365  1  0.30586616  0.58277727  0.43809739  1
  O  O366  1  0.30641337  0.58329620  0.68879335  1
  O  O367  1  0.30620001  0.58325726  0.93944583  1
  O  O368  1  0.30510593  0.91679007  0.18836707  1
  O  O369  1  0.30878085  0.91688075  0.43726056  1
  O  O370  1  0.30834341  0.91657384  0.68770243  1
  O  O371  1  0.30792259  0.91694201  0.93702431  1
  O  O372  1  0.80664071  0.24939534  0.18844445  1
  O  O373  1  0.80865811  0.24911280  0.43746586  1
  O  O374  1  0.80773332  0.24930782  0.68742373  1
  O  O375  1  0.80768849  0.24948934  0.93776998  1
  O  O376  1  0.81018074  0.58332193  0.18639984  1
  O  O377  1  0.80634383  0.58337469  0.43770177  1
  O  O378  1  0.80641079  0.58333359  0.68898534  1
  O  O379  1  0.80874818  0.58334941  0.93832032  1
  O  O380  1  0.81132130  0.91707925  0.18754566  1
  O  O381  1  0.80973694  0.91684516  0.43683179  1
  O  O382  1  0.80584530  0.91750729  0.68824649  1
  O  O383  1  0.80724656  0.91698094  0.93970355  1
  O  O384  1  0.23217596  0.24975323  0.03878502  1
  O  O385  1  0.23262974  0.24965280  0.28957285  1
  O  O386  1  0.23368031  0.24966002  0.53791740  1
  O  O387  1  0.23391780  0.24972263  0.79046622  1
  O  O388  1  0.23166072  0.58297317  0.04003349  1
  O  O389  1  0.23421401  0.58233530  0.28747652  1
  O  O390  1  0.23362479  0.58282909  0.54047088  1
  O  O391  1  0.23351823  0.58367514  0.79089467  1
  O  O392  1  0.23249983  0.91718397  0.03718225  1
  O  O393  1  0.23180368  0.91771919  0.28967970  1
  O  O394  1  0.23405665  0.91715506  0.53760945  1
  O  O395  1  0.23430318  0.91705907  0.78887533  1
  O  O396  1  0.73257568  0.24948351  0.03790752  1
  O  O397  1  0.73331865  0.24999440  0.29004961  1
  O  O398  1  0.73357625  0.24938141  0.53765304  1
  O  O399  1  0.73348744  0.24952572  0.78819813  1
  O  O400  1  0.73366047  0.58314548  0.03854412  1
  O  O401  1  0.73550865  0.58232041  0.28721169  1
  O  O402  1  0.73451846  0.58348894  0.54061418  1
  O  O403  1  0.73443834  0.58319730  0.79133897  1
  O  O404  1  0.73446793  0.91735372  0.04137775  1
  O  O405  1  0.73658539  0.91712242  0.28801971  1
  O  O406  1  0.73500710  0.91733290  0.53756130  1
  O  O407  1  0.73211884  0.91685390  0.78984725  1
  O  O408  1  0.26698036  0.08371053  0.21006948  1
  O  O409  1  0.26765636  0.08379323  0.46055803  1
  O  O410  1  0.26864885  0.08272360  0.71062273  1
  O  O411  1  0.26620065  0.08364945  0.96217757  1
  O  O412  1  0.26712660  0.41551234  0.21031456  1
  O  O413  1  0.26755143  0.41566281  0.46055281  1
  O  O414  1  0.26635391  0.41609342  0.71011423  1
  O  O415  1  0.26447044  0.41670976  0.96213346  1
  O  O416  1  0.26371465  0.75073156  0.21127080  1
  O  O417  1  0.26553636  0.75007815  0.45887078  1
  O  O418  1  0.26809358  0.75093479  0.71040435  1
  O  O419  1  0.26404960  0.74997388  0.96251376  1
  O  O420  1  0.76709192  0.08429200  0.21330100  1
  O  O421  1  0.76539126  0.08336948  0.45945248  1
  O  O422  1  0.76641179  0.08354027  0.71183760  1
  O  O423  1  0.76529508  0.08332460  0.95956156  1
  O  O424  1  0.76759411  0.41531997  0.21009363  1
  O  O425  1  0.76714806  0.41602879  0.46204251  1
  O  O426  1  0.76768207  0.41587433  0.71032243  1
  O  O427  1  0.76489595  0.41617219  0.96230182  1
  O  O428  1  0.76751270  0.75030392  0.21028138  1
  O  O429  1  0.76890498  0.75004135  0.45985708  1
  O  O430  1  0.76817535  0.75097344  0.71074893  1
  O  O431  1  0.76635613  0.75000885  0.96039279  1
  O  O432  1  0.01807997  0.08363672  0.16476248  1
  O  O433  1  0.01567942  0.08330176  0.41346411  1
  O  O434  1  0.01550176  0.08427525  0.66607729  1
  O  O435  1  0.01522707  0.08352499  0.91285130  1
  O  O436  1  0.01788919  0.41647855  0.16470903  1
  O  O437  1  0.01424622  0.41597450  0.41346139  1
  O  O438  1  0.01372991  0.41598934  0.66395874  1
  O  O439  1  0.01388430  0.41601983  0.91313969  1
  O  O440  1  0.01874647  0.75044704  0.16412998  1
  O  O441  1  0.01801055  0.75084209  0.41569901  1
  O  O442  1  0.01510975  0.75008053  0.66421198  1
  O  O443  1  0.01520277  0.75037372  0.91255890  1
  O  O444  1  0.51427494  0.08375776  0.16323844  1
  O  O445  1  0.51517697  0.08366984  0.41313161  1
  O  O446  1  0.51453651  0.08331000  0.66297949  1
  O  O447  1  0.51618824  0.08296502  0.91331292  1
  O  O448  1  0.51753201  0.41667338  0.16540533  1
  O  O449  1  0.51460199  0.41586163  0.41284558  1
  O  O450  1  0.51818654  0.41630300  0.66252409  1
  O  O451  1  0.51709743  0.41611572  0.91505446  1
  O  O452  1  0.51575778  0.74928094  0.16531416  1
  O  O453  1  0.51596832  0.75114849  0.41529550  1
  O  O454  1  0.51557291  0.75025157  0.66585620  1
  O  O455  1  0.51493446  0.75100864  0.91312192  1
  O  O456  1  0.48537848  0.25017414  0.08696611  1
  O  O457  1  0.48347477  0.24929850  0.33730791  1
  O  O458  1  0.48602466  0.24978131  0.58669043  1
  O  O459  1  0.48600397  0.24953004  0.83557324  1
  O  O460  1  0.48257727  0.58284403  0.08467376  1
  O  O461  1  0.48356135  0.58283921  0.33552757  1
  O  O462  1  0.48399806  0.58300938  0.58469164  1
  O  O463  1  0.48479542  0.58312309  0.83710917  1
  O  O464  1  0.48275552  0.91696097  0.08527811  1
  O  O465  1  0.48128927  0.91779954  0.33542424  1
  O  O466  1  0.48242446  0.91697131  0.58804799  1
  O  O467  1  0.48246370  0.91753609  0.83510468  1
  O  O468  1  0.98551592  0.24970583  0.08679732  1
  O  O469  1  0.98373728  0.24993248  0.33729999  1
  O  O470  1  0.98165369  0.24937962  0.58501926  1
  O  O471  1  0.98212749  0.25028026  0.83769059  1
  O  O472  1  0.98246979  0.58307616  0.08449437  1
  O  O473  1  0.98372875  0.58398801  0.33493554  1
  O  O474  1  0.98275992  0.58321325  0.58491843  1
  O  O475  1  0.98191617  0.58289428  0.83727401  1
  O  O476  1  0.98430313  0.91717761  0.08638797  1
  O  O477  1  0.98453317  0.91707060  0.33763635  1
  O  O478  1  0.98577298  0.91747943  0.58770668  1
  O  O479  1  0.98532670  0.91700132  0.83627110  1
  O  O480  1  0.08904119  0.31494084  0.07799992  1
  O  O481  1  0.08755764  0.31482988  0.32725159  1
  O  O482  1  0.08545020  0.31484364  0.57620530  1
  O  O483  1  0.08563229  0.31505309  0.82716019  1
  O  O484  1  0.08660116  0.64780550  0.07693656  1
  O  O485  1  0.08752496  0.64906958  0.32845316  1
  O  O486  1  0.08676796  0.64787037  0.57792507  1
  O  O487  1  0.08546332  0.64793461  0.82695450  1
  O  O488  1  0.08776773  0.98282141  0.07745682  1
  O  O489  1  0.08842266  0.98116557  0.32725123  1
  O  O490  1  0.08927269  0.98256981  0.57757735  1
  O  O491  1  0.08912228  0.98197289  0.82670817  1
  O  O492  1  0.58877454  0.31621473  0.07884671  1
  O  O493  1  0.58768942  0.31340940  0.32717761  1
  O  O494  1  0.58943647  0.31578469  0.57733050  1
  O  O495  1  0.59050864  0.31291521  0.82723534  1
  O  O496  1  0.58700160  0.64694171  0.07676760  1
  O  O497  1  0.58715319  0.64840244  0.32740900  1
  O  O498  1  0.58770464  0.64789897  0.57747842  1
  O  O499  1  0.58799068  0.64878261  0.82757674  1
  O  O500  1  0.58646361  0.98189478  0.07745890  1
  O  O501  1  0.58500276  0.98331628  0.32736498  1
  O  O502  1  0.58601146  0.98170070  0.57725391  1
  O  O503  1  0.58618917  0.98310873  0.82650546  1
  O  O504  1  0.41029876  0.01901800  0.17259748  1
  O  O505  1  0.41116302  0.01900246  0.42204851  1
  O  O506  1  0.41090106  0.01785413  0.67194992  1
  O  O507  1  0.41226567  0.01754126  0.92222200  1
  O  O508  1  0.41332027  0.35251634  0.17367113  1
  O  O509  1  0.41158334  0.34947235  0.42244077  1
  O  O510  1  0.41479400  0.35121501  0.67274918  1
  O  O511  1  0.41358834  0.35085438  0.92322757  1
  O  O512  1  0.41226322  0.68339584  0.17179665  1
  O  O513  1  0.41240831  0.68597609  0.42255191  1
  O  O514  1  0.41137854  0.68589632  0.67347810  1
  O  O515  1  0.41117726  0.68651645  0.92242296  1
  O  O516  1  0.91432842  0.01783668  0.17298244  1
  O  O517  1  0.91214804  0.01847124  0.42139437  1
  O  O518  1  0.91156851  0.01946405  0.67368844  1
  O  O519  1  0.91172973  0.01912747  0.92241082  1
  O  O520  1  0.91373519  0.35202613  0.17329302  1
  O  O521  1  0.91085533  0.34998466  0.42184832  1
  O  O522  1  0.91062270  0.34954420  0.67183540  1
  O  O523  1  0.91046257  0.35094818  0.92217994  1
  O  O524  1  0.91507743  0.68512846  0.17201156  1
  O  O525  1  0.91369759  0.68655390  0.42322808  1
  O  O526  1  0.91089987  0.68573043  0.67269524  1
  O  O527  1  0.91194357  0.68467841  0.92164594  1
  O  O528  1  0.16298433  0.01853185  0.20218027  1
  O  O529  1  0.16390085  0.01877166  0.45276708  1
  O  O530  1  0.16484473  0.01775198  0.70262933  1
  O  O531  1  0.16267352  0.01862600  0.95274936  1
  O  O532  1  0.16308155  0.35024764  0.20252175  1
  O  O533  1  0.16377230  0.35034123  0.45247584  1
  O  O534  1  0.16244788  0.35135026  0.70244508  1
  O  O535  1  0.16091397  0.35154937  0.95362265  1
  O  O536  1  0.15969069  0.68644577  0.20251647  1
  O  O537  1  0.16118128  0.68598275  0.45199694  1
  O  O538  1  0.16417963  0.68604710  0.70233050  1
  O  O539  1  0.16083369  0.68426495  0.95370754  1
  O  O540  1  0.66364319  0.01921442  0.20279550  1
  O  O541  1  0.66116349  0.01898181  0.45117456  1
  O  O542  1  0.66314516  0.01763189  0.70261855  1
  O  O543  1  0.66110064  0.01896723  0.95206513  1
  O  O544  1  0.66342029  0.35003286  0.20291939  1
  O  O545  1  0.66359490  0.35067217  0.45284102  1
  O  O546  1  0.66369943  0.35076995  0.70222061  1
  O  O547  1  0.66127411  0.35159713  0.95415632  1
  O  O548  1  0.66370991  0.68521997  0.20259927  1
  O  O549  1  0.66490789  0.68531821  0.45181461  1
  O  O550  1  0.66455232  0.68611045  0.70213601  1
  O  O551  1  0.66288642  0.68414114  0.95309037  1
  O  O552  1  0.33589404  0.31447641  0.04817715  1
  O  O553  1  0.33682171  0.31466044  0.29770592  1
  O  O554  1  0.33723822  0.31513509  0.54689414  1
  O  O555  1  0.33786241  0.31430252  0.79798731  1
  O  O556  1  0.33556860  0.64813693  0.04910593  1
  O  O557  1  0.33751495  0.64737761  0.29675639  1
  O  O558  1  0.33764504  0.64707295  0.54704238  1
  O  O559  1  0.33697632  0.64942938  0.79760676  1
  O  O560  1  0.33601937  0.98256057  0.04674233  1
  O  O561  1  0.33588174  0.98294272  0.29727770  1
  O  O562  1  0.33764295  0.98283863  0.54690763  1
  O  O563  1  0.33829861  0.98172822  0.79741467  1
  O  O564  1  0.83624303  0.31431366  0.04794459  1
  O  O565  1  0.83743014  0.31487023  0.29744749  1
  O  O566  1  0.83709474  0.31510015  0.54723372  1
  O  O567  1  0.83705424  0.31469129  0.79736708  1
  O  O568  1  0.83758810  0.64820438  0.04830676  1
  O  O569  1  0.83907310  0.64718154  0.29658069  1
  O  O570  1  0.83831388  0.64853803  0.54640866  1
  O  O571  1  0.83836870  0.64830521  0.79795948  1
  O  O572  1  0.83868654  0.98191271  0.04882274  1
  O  O573  1  0.83982582  0.98338200  0.29715459  1
  O  O574  1  0.83884369  0.98116766  0.54685524  1
  O  O575  1  0.83571081  0.98238841  0.79775404  1
  O  O576  1  0.41077359  0.14887400  0.17279341  1
  O  O577  1  0.41170435  0.14909189  0.42237365  1
  O  O578  1  0.41092147  0.14785218  0.67280279  1
  O  O579  1  0.41237713  0.14751726  0.92318190  1
  O  O580  1  0.41356106  0.48249026  0.17254156  1
  O  O581  1  0.41029520  0.47957571  0.42259508  1
  O  O582  1  0.41450998  0.48125309  0.67251290  1
  O  O583  1  0.41312286  0.48087920  0.92292432  1
  O  O584  1  0.41164869  0.81356614  0.17241863  1
  O  O585  1  0.41212326  0.81626385  0.42185223  1
  O  O586  1  0.41177071  0.81591723  0.67299986  1
  O  O587  1  0.41158506  0.81673677  0.92158733  1
  O  O588  1  0.91361832  0.14771211  0.17344012  1
  O  O589  1  0.91220143  0.14864741  0.42160844  1
  O  O590  1  0.91132924  0.14937884  0.67255023  1
  O  O591  1  0.91201217  0.14937018  0.92224882  1
  O  O592  1  0.91389105  0.48201528  0.17234158  1
  O  O593  1  0.91016020  0.48005869  0.42205835  1
  O  O594  1  0.90947362  0.47962482  0.67254213  1
  O  O595  1  0.91051137  0.48123195  0.92171779  1
  O  O596  1  0.91511245  0.81531057  0.17229656  1
  O  O597  1  0.91430632  0.81653325  0.42315887  1
  O  O598  1  0.91171301  0.81564812  0.67316088  1
  O  O599  1  0.91182402  0.81495730  0.92224670  1
  O  O600  1  0.08918395  0.18467732  0.07798455  1
  O  O601  1  0.08762321  0.18504818  0.32722575  1
  O  O602  1  0.08604246  0.18497100  0.57638117  1
  O  O603  1  0.08557202  0.18513921  0.82684989  1
  O  O604  1  0.08625748  0.51767118  0.07683219  1
  O  O605  1  0.08723622  0.51891120  0.32734762  1
  O  O606  1  0.08606704  0.51767111  0.57737498  1
  O  O607  1  0.08531969  0.51786882  0.82704048  1
  O  O608  1  0.08827921  0.85259895  0.07784470  1
  O  O609  1  0.08783874  0.85121132  0.32832379  1
  O  O610  1  0.08949745  0.85256577  0.57771590  1
  O  O611  1  0.08917118  0.85216305  0.82687066  1
  O  O612  1  0.58939355  0.18613747  0.07782325  1
  O  O613  1  0.58699667  0.18350995  0.32770061  1
  O  O614  1  0.58990681  0.18575305  0.57695044  1
  O  O615  1  0.58897153  0.18290061  0.82782686  1
  O  O616  1  0.58645788  0.51693891  0.07749399  1
  O  O617  1  0.58739672  0.51819987  0.32733830  1
  O  O618  1  0.58767272  0.51754003  0.57748489  1
  O  O619  1  0.58857366  0.51861844  0.82776984  1
  O  O620  1  0.58636355  0.85172552  0.07758077  1
  O  O621  1  0.58555871  0.85330544  0.32719461  1
  O  O622  1  0.58592052  0.85166891  0.57727538  1
  O  O623  1  0.58672946  0.85320975  0.82610192  1
  O  O624  1  0.33590542  0.18444776  0.04756871  1
  O  O625  1  0.33666526  0.18472965  0.29751037  1
  O  O626  1  0.33764893  0.18511511  0.54648079  1
  O  O627  1  0.33753426  0.18410148  0.79724182  1
  O  O628  1  0.33604027  0.51826542  0.04878624  1
  O  O629  1  0.33776742  0.51703030  0.29590359  1
  O  O630  1  0.33709732  0.51679097  0.54696227  1
  O  O631  1  0.33742325  0.51903428  0.79807656  1
  O  O632  1  0.33584657  0.85243813  0.04743707  1
  O  O633  1  0.33587603  0.85300090  0.29815933  1
  O  O634  1  0.33797549  0.85280218  0.54763712  1
  O  O635  1  0.33781134  0.85166916  0.79773338  1
  O  O636  1  0.83618803  0.18456418  0.04785734  1
  O  O637  1  0.83745078  0.18497699  0.29815708  1
  O  O638  1  0.83746671  0.18523022  0.54792531  1
  O  O639  1  0.83726095  0.18459507  0.79756245  1
  O  O640  1  0.83759446  0.51843518  0.04829737  1
  O  O641  1  0.83879855  0.51681121  0.29560193  1
  O  O642  1  0.83802231  0.51823939  0.54654330  1
  O  O643  1  0.83816059  0.51797933  0.79786763  1
  O  O644  1  0.83850763  0.85209944  0.04891695  1
  O  O645  1  0.84089626  0.85328668  0.29765830  1
  O  O646  1  0.83819378  0.85109430  0.54653340  1
  O  O647  1  0.83625612  0.85232772  0.79749293  1
  O  O648  1  0.16284976  0.14849225  0.20249345  1
  O  O649  1  0.16375315  0.14874490  0.45266074  1
  O  O650  1  0.16487623  0.14778434  0.70207496  1
  O  O651  1  0.16260127  0.14876789  0.95290426  1
  O  O652  1  0.16288330  0.48012001  0.20156302  1
  O  O653  1  0.16374828  0.48043473  0.45202735  1
  O  O654  1  0.16266293  0.48147474  0.70247023  1
  O  O655  1  0.16093805  0.48197825  0.95348641  1
  O  O656  1  0.16037310  0.81666731  0.20347013  1
  O  O657  1  0.16199875  0.81605106  0.45260199  1
  O  O658  1  0.16438897  0.81612747  0.70287125  1
  O  O659  1  0.16052220  0.81474233  0.95380550  1
  O  O660  1  0.66330792  0.14927517  0.20395086  1
  O  O661  1  0.66157818  0.14894751  0.45213670  1
  O  O662  1  0.66255370  0.14775532  0.70317240  1
  O  O663  1  0.66154234  0.14892602  0.95259381  1
  O  O664  1  0.66342200  0.47994146  0.20173009  1
  O  O665  1  0.66359458  0.48074078  0.45215940  1
  O  O666  1  0.66377968  0.48077496  0.70170419  1
  O  O667  1  0.66189366  0.48201728  0.95380337  1
  O  O668  1  0.66369022  0.81546361  0.20240690  1
  O  O669  1  0.66516833  0.81546276  0.45143279  1
  O  O670  1  0.66429728  0.81625902  0.70231432  1
  O  O671  1  0.66243542  0.81440460  0.95289718  1
