# generated using pymatgen
data_Na2MnFe(PO4)2
_symmetry_space_group_name_H-M   'P 1'
_cell_length_a   21.09278409
_cell_length_b   18.94771606
_cell_length_c   20.05116037
_cell_angle_alpha   89.99981270
_cell_angle_beta   89.99701366
_cell_angle_gamma   89.99794084
_symmetry_Int_Tables_number   1
_chemical_formula_structural   Na2MnFe(PO4)2
_chemical_formula_sum   'Na96 Mn48 Fe48 P96 O384'
_cell_volume   8013.64842081
_cell_formula_units_Z   48
loop_
 _symmetry_equiv_pos_site_id
 _symmetry_equiv_pos_as_xyz
  1  'x, y, z'
loop_
 _atom_site_type_symbol
 _atom_site_label
 _atom_site_symmetry_multiplicity
 _atom_site_fract_x
 _atom_site_fract_y
 _atom_site_fract_z
 _atom_site_occupancy
  Na  Na0  1  -0.00187998  -0.00102345  0.00113564  1
  Na  Na1  1  -0.00006962  -0.00094488  0.24889132  1
  Na  Na2  1  0.00223413  -0.00000223  0.49974814  1
  Na  Na3  1  -0.00084116  -0.00113555  0.75134267  1
  Na  Na4  1  -0.00048307  0.33377262  0.00049014  1
  Na  Na5  1  -0.00024334  0.33358008  0.24963371  1
  Na  Na6  1  -0.00105693  0.33274059  0.49978011  1
  Na  Na7  1  -0.00207681  0.33218832  0.75015420  1
  Na  Na8  1  0.00041899  0.66686278  -0.00093804  1
  Na  Na9  1  0.00018774  0.66648530  0.24955335  1
  Na  Na10  1  -0.00044819  0.66602242  0.50046994  1
  Na  Na11  1  0.00015244  0.66655692  0.75001700  1
  Na  Na12  1  0.50141310  -0.00002337  -0.00115652  1
  Na  Na13  1  0.49930023  -0.00054477  0.24926243  1
  Na  Na14  1  0.49788179  -0.00102998  0.50154203  1
  Na  Na15  1  0.50010413  -0.00065422  0.74976767  1
  Na  Na16  1  0.50264340  0.33454238  -0.00030430  1
  Na  Na17  1  0.49919525  0.33342391  0.25024011  1
  Na  Na18  1  0.49749296  0.33356774  0.49985520  1
  Na  Na19  1  0.49937837  0.33311701  0.74975218  1
  Na  Na20  1  0.49833602  0.66617027  0.00035201  1
  Na  Na21  1  0.49886427  0.66676119  0.24936398  1
  Na  Na22  1  0.49704729  0.66618706  0.50008432  1
  Na  Na23  1  0.49787438  0.66617487  0.75045698  1
  Na  Na24  1  0.24900243  -0.00136035  0.12513618  1
  Na  Na25  1  0.24889868  -0.00027360  0.37570932  1
  Na  Na26  1  0.24949355  -0.00001782  0.62465478  1
  Na  Na27  1  0.25151555  0.00064534  0.87498097  1
  Na  Na28  1  0.25144439  0.33300277  0.12398462  1
  Na  Na29  1  0.25322534  0.33492229  0.37512502  1
  Na  Na30  1  0.25018484  0.33311449  0.62483755  1
  Na  Na31  1  0.25178237  0.33395537  0.87574287  1
  Na  Na32  1  0.24970501  0.66630785  0.12478220  1
  Na  Na33  1  0.25156814  0.66741276  0.37488810  1
  Na  Na34  1  0.24883152  0.66628071  0.62591529  1
  Na  Na35  1  0.24893519  0.66678299  0.87522649  1
  Na  Na36  1  0.75112950  -0.00025613  0.12482421  1
  Na  Na37  1  0.75141012  -0.00053784  0.37500008  1
  Na  Na38  1  0.75102103  -0.00085028  0.62514180  1
  Na  Na39  1  0.74983248  -0.00117512  0.87417410  1
  Na  Na40  1  0.74612321  0.33247834  0.12395464  1
  Na  Na41  1  0.75004207  0.33391804  0.37558299  1
  Na  Na42  1  0.75124374  0.33389866  0.62654960  1
  Na  Na43  1  0.74846612  0.33320082  0.87485175  1
  Na  Na44  1  0.75018739  0.66586962  0.12494066  1
  Na  Na45  1  0.75168585  0.66649614  0.37489304  1
  Na  Na46  1  0.75380967  0.66752429  0.62513782  1
  Na  Na47  1  0.75318817  0.66761071  0.87445745  1
  Na  Na48  1  -0.00280895  0.16755770  0.00057505  1
  Na  Na49  1  0.00130172  0.16550158  0.24841295  1
  Na  Na50  1  0.00120642  0.16610487  0.49966264  1
  Na  Na51  1  -0.00112736  0.16664192  0.75057429  1
  Na  Na52  1  -0.00033189  0.50104064  -0.00011174  1
  Na  Na53  1  -0.00142057  0.50158003  0.25030683  1
  Na  Na54  1  0.00015255  0.50097133  0.50041743  1
  Na  Na55  1  0.00022117  0.50087974  0.75061182  1
  Na  Na56  1  0.00022698  0.83294053  -0.00020383  1
  Na  Na57  1  0.00070062  0.83301028  0.24965130  1
  Na  Na58  1  -0.00073004  0.83406028  0.49967293  1
  Na  Na59  1  0.00001342  0.83302064  0.75059390  1
  Na  Na60  1  0.49937535  0.16621835  -0.00050241  1
  Na  Na61  1  0.49824297  0.16628163  0.24966899  1
  Na  Na62  1  0.49637327  0.16681569  0.50086315  1
  Na  Na63  1  0.49896980  0.16596509  0.75030026  1
  Na  Na64  1  0.50185681  0.50058911  -0.00023089  1
  Na  Na65  1  0.49982366  0.50098875  0.25024552  1
  Na  Na66  1  0.49765962  0.50121918  0.49925886  1
  Na  Na67  1  0.49978532  0.50075244  0.74992341  1
  Na  Na68  1  0.49951431  0.83385885  -0.00068510  1
  Na  Na69  1  0.49921995  0.83305556  0.24895455  1
  Na  Na70  1  0.49789665  0.83379492  0.50117669  1
  Na  Na71  1  0.49964904  0.83337323  0.75012601  1
  Na  Na72  1  0.25154855  0.16562576  0.12512604  1
  Na  Na73  1  0.25037030  0.16590700  0.37543682  1
  Na  Na74  1  0.25063538  0.16604233  0.62430382  1
  Na  Na75  1  0.25228447  0.16559206  0.87561135  1
  Na  Na76  1  0.25216030  0.50044844  0.12438228  1
  Na  Na77  1  0.25283430  0.50047579  0.37475960  1
  Na  Na78  1  0.25071073  0.50060136  0.62500713  1
  Na  Na79  1  0.24893786  0.50175374  0.87501195  1
  Na  Na80  1  0.24842312  0.83345185  0.12402426  1
  Na  Na81  1  0.24861467  0.83308571  0.37585610  1
  Na  Na82  1  0.24791642  0.83350997  0.62582094  1
  Na  Na83  1  0.24932716  0.83295348  0.87558316  1
  Na  Na84  1  0.74847730  0.16679709  0.12446181  1
  Na  Na85  1  0.74956898  0.16667475  0.37551319  1
  Na  Na86  1  0.75103738  0.16584949  0.62643648  1
  Na  Na87  1  0.75025232  0.16620274  0.87399179  1
  Na  Na88  1  0.74882224  0.50099692  0.12423509  1
  Na  Na89  1  0.74972007  0.50095245  0.37496321  1
  Na  Na90  1  0.75200356  0.50024616  0.62584284  1
  Na  Na91  1  0.74945037  0.50109546  0.87510617  1
  Na  Na92  1  0.75039317  0.83383603  0.12509313  1
  Na  Na93  1  0.75335415  0.83289222  0.37499377  1
  Na  Na94  1  0.75313708  0.83315378  0.62443522  1
  Na  Na95  1  0.75143420  0.83343677  0.87455228  1
  Mn  Mn96  1  0.85697600  0.41647182  0.25171184  1
  Mn  Mn97  1  0.35664160  0.75051473  0.75276767  1
  Mn  Mn98  1  0.10744495  0.08327654  0.12180579  1
  Mn  Mn99  1  0.35884158  0.41719617  0.00228492  1
  Mn  Mn100  1  0.64220065  0.91614442  0.24872902  1
  Mn  Mn101  1  0.10765535  0.74999322  0.37308352  1
  Mn  Mn102  1  0.60722743  0.41719388  0.62252107  1
  Mn  Mn103  1  0.85843739  0.74954325  0.25189967  1
  Mn  Mn104  1  0.89095961  0.25084573  0.12741920  1
  Mn  Mn105  1  0.10850701  0.41746288  0.12305068  1
  Mn  Mn106  1  0.64269953  0.58402591  0.49839742  1
  Mn  Mn107  1  0.35731714  0.75027206  0.25200245  1
  Mn  Mn108  1  0.64297092  0.91625959  0.49753310  1
  Mn  Mn109  1  0.64063525  0.25034726  0.24856164  1
  Mn  Mn110  1  0.85846023  0.08276224  0.75245563  1
  Mn  Mn111  1  0.60727376  0.08335691  0.62248689  1
  Mn  Mn112  1  0.14224920  0.25076304  0.49733807  1
  Mn  Mn113  1  0.60807023  0.74973846  0.12205270  1
  Mn  Mn114  1  0.60825671  0.74945854  0.62275812  1
  Mn  Mn115  1  0.60661685  0.41690896  0.37329181  1
  Mn  Mn116  1  0.35760355  0.41638398  0.75312928  1
  Mn  Mn117  1  0.14318160  0.25044146  0.24767921  1
  Mn  Mn118  1  0.14279839  0.58317281  0.24779992  1
  Mn  Mn119  1  0.60741112  0.75044567  0.37380764  1
  Mn  Mn120  1  0.89214336  0.24967028  0.37736165  1
  Mn  Mn121  1  0.64190273  0.24986155  0.49807012  1
  Mn  Mn122  1  0.64220218  0.24946180  0.74755389  1
  Mn  Mn123  1  0.60645339  0.08272627  0.37384479  1
  Mn  Mn124  1  0.39117662  0.91591486  0.62776055  1
  Mn  Mn125  1  0.60797422  0.75015871  0.87282480  1
  Mn  Mn126  1  0.85819734  0.41721470  0.75286138  1
  Mn  Mn127  1  0.10722520  0.08345971  0.87361714  1
  Mn  Mn128  1  0.39179920  0.91615170  0.12671845  1
  Mn  Mn129  1  0.14185530  0.91723611  0.74838671  1
  Mn  Mn130  1  0.14265100  0.24978406  0.99734778  1
  Mn  Mn131  1  0.60802983  0.08323191  0.12225905  1
  Mn  Mn132  1  0.10865839  0.41639879  0.37227615  1
  Mn  Mn133  1  0.35743414  0.08266028  0.25277204  1
  Mn  Mn134  1  0.10750402  0.41639214  0.87293015  1
  Mn  Mn135  1  0.85926349  0.08327703  0.50243392  1
  Mn  Mn136  1  0.85849198  0.41671074  0.50240985  1
  Mn  Mn137  1  0.85641003  0.41664285  0.00243046  1
  Mn  Mn138  1  0.14211847  0.25017531  0.74864571  1
  Mn  Mn139  1  0.39304049  0.25085654  0.12691921  1
  Mn  Mn140  1  0.85790389  0.08404042  0.25244418  1
  Mn  Mn141  1  0.10763518  0.41636605  0.62249376  1
  Mn  Mn142  1  0.64273643  0.58488997  0.74775755  1
  Mn  Mn143  1  0.39109096  0.25034044  0.62796368  1
  Fe  Fe144  1  0.89401501  0.91667572  0.37659632  1
  Fe  Fe145  1  0.60714343  0.41727114  0.12357152  1
  Fe  Fe146  1  0.14334376  0.58339667  0.49838663  1
  Fe  Fe147  1  0.89173217  0.25010175  0.87758874  1
  Fe  Fe148  1  0.39252110  0.58421691  0.37712173  1
  Fe  Fe149  1  0.35794456  0.08219203  0.00110041  1
  Fe  Fe150  1  0.10710167  0.74955147  0.12275766  1
  Fe  Fe151  1  0.35874659  0.41667564  0.25141851  1
  Fe  Fe152  1  0.39325419  0.58336848  0.12622286  1
  Fe  Fe153  1  0.35624004  0.75047316  0.00114511  1
  Fe  Fe154  1  0.35631854  0.75014060  0.50210563  1
  Fe  Fe155  1  0.89266706  0.58362253  0.12626297  1
  Fe  Fe156  1  0.39082909  0.91627190  0.37707579  1
  Fe  Fe157  1  0.85780987  0.75018700  0.00176044  1
  Fe  Fe158  1  0.39172001  0.24948587  0.37704866  1
  Fe  Fe159  1  0.39348046  0.24972960  0.87690798  1
  Fe  Fe160  1  0.64229001  0.58380077  0.24840040  1
  Fe  Fe161  1  0.89286096  0.24961814  0.62624549  1
  Fe  Fe162  1  0.35721737  0.41739290  0.50201754  1
  Fe  Fe163  1  0.10653755  0.75030798  0.62323695  1
  Fe  Fe164  1  0.10769319  0.08322074  0.62403389  1
  Fe  Fe165  1  0.85608286  0.08286921  0.00092624  1
  Fe  Fe166  1  0.64370840  0.91574460  0.74834174  1
  Fe  Fe167  1  0.39222609  0.58372754  0.87720370  1
  Fe  Fe168  1  0.14209701  0.91654203  0.24816710  1
  Fe  Fe169  1  0.14249558  0.58307581  0.74832630  1
  Fe  Fe170  1  0.64208047  0.24914095  0.99711502  1
  Fe  Fe171  1  0.89307761  0.91586762  0.12645324  1
  Fe  Fe172  1  0.10645110  0.74996939  0.87380310  1
  Fe  Fe173  1  0.89352556  0.58312759  0.87731829  1
  Fe  Fe174  1  0.39165987  0.58371197  0.62704484  1
  Fe  Fe175  1  0.14248554  0.91646258  0.99806215  1
  Fe  Fe176  1  0.14283560  0.58352237  0.99839884  1
  Fe  Fe177  1  0.35733816  0.08300703  0.75193051  1
  Fe  Fe178  1  0.10781405  0.08357218  0.37299860  1
  Fe  Fe179  1  0.60689258  0.41693649  0.87327230  1
  Fe  Fe180  1  0.39307289  0.91641111  0.87719609  1
  Fe  Fe181  1  0.60703523  0.08301417  0.87322447  1
  Fe  Fe182  1  0.89251569  0.58333813  0.37707994  1
  Fe  Fe183  1  0.89404190  0.91692834  0.62651462  1
  Fe  Fe184  1  0.35590289  0.08266477  0.50171878  1
  Fe  Fe185  1  0.85887101  0.74995317  0.50200096  1
  Fe  Fe186  1  0.64351915  0.91625176  0.99782923  1
  Fe  Fe187  1  0.14235863  0.91607577  0.49840412  1
  Fe  Fe188  1  0.85881287  0.75027172  0.75179803  1
  Fe  Fe189  1  0.89247528  0.91655027  0.87769213  1
  Fe  Fe190  1  0.64299395  0.58433077  0.99765609  1
  Fe  Fe191  1  0.89405231  0.58338447  0.62695460  1
  P  P192  1  0.05318854  0.25043390  0.10970966  1
  P  P193  1  0.05350805  0.24934018  0.35943611  1
  P  P194  1  0.05241697  0.24909858  0.61032671  1
  P  P195  1  0.05135331  0.24974556  0.86051116  1
  P  P196  1  0.05313197  0.58424758  0.10943097  1
  P  P197  1  0.05357602  0.58352899  0.36123502  1
  P  P198  1  0.05457524  0.58420200  0.61096197  1
  P  P199  1  0.05437689  0.58424437  0.86100653  1
  P  P200  1  0.05422446  0.91544062  0.11034374  1
  P  P201  1  0.05459068  0.91703582  0.36052238  1
  P  P202  1  0.05337640  0.91645091  0.60983838  1
  P  P203  1  0.05310802  0.91606461  0.86231454  1
  P  P204  1  0.55420899  0.25067212  0.10915898  1
  P  P205  1  0.55065608  0.24957136  0.36079694  1
  P  P206  1  0.55241599  0.25005926  0.60995357  1
  P  P207  1  0.55368054  0.24941844  0.86108488  1
  P  P208  1  0.55430911  0.58304887  0.11042425  1
  P  P209  1  0.55243908  0.58422305  0.35988172  1
  P  P210  1  0.55161850  0.58382094  0.60985516  1
  P  P211  1  0.55334437  0.58375452  0.86110998  1
  P  P212  1  0.55424110  0.91632896  0.10870956  1
  P  P213  1  0.55077111  0.91623812  0.36045819  1
  P  P214  1  0.55442721  0.91593882  0.61124386  1
  P  P215  1  0.55459156  0.91696485  0.86046541  1
  P  P216  1  0.44540496  0.08268929  0.13850287  1
  P  P217  1  0.44484357  0.08233078  0.39093479  1
  P  P218  1  0.44388733  0.08266061  0.64002445  1
  P  P219  1  0.44602864  0.08251887  0.88882318  1
  P  P220  1  0.44777977  0.41807856  0.14008263  1
  P  P221  1  0.44409433  0.41730190  0.38920043  1
  P  P222  1  0.44462008  0.41813419  0.63918828  1
  P  P223  1  0.44779500  0.41699867  0.88978958  1
  P  P224  1  0.44514286  0.74941184  0.13808622  1
  P  P225  1  0.44515500  0.75046197  0.39065131  1
  P  P226  1  0.44477597  0.74927147  0.63950930  1
  P  P227  1  0.44561131  0.75036922  0.89041220  1
  P  P228  1  0.94456767  0.08236001  0.13818397  1
  P  P229  1  0.94860366  0.08242602  0.38952639  1
  P  P230  1  0.94843071  0.08267303  0.63999624  1
  P  P231  1  0.94552035  0.08295352  0.89125129  1
  P  P232  1  0.94645838  0.41825222  0.13980058  1
  P  P233  1  0.94701701  0.41753072  0.38979332  1
  P  P234  1  0.94688907  0.41687283  0.64022577  1
  P  P235  1  0.94628558  0.41701423  0.89047287  1
  P  P236  1  0.94652070  0.74971524  0.13806928  1
  P  P237  1  0.94632586  0.74983778  0.39036406  1
  P  P238  1  0.94655807  0.75030405  0.63922918  1
  P  P239  1  0.94567020  0.74981971  0.88933173  1
  P  P240  1  0.19526716  0.08237423  0.23592430  1
  P  P241  1  0.19507948  0.08254422  0.48600253  1
  P  P242  1  0.19738800  0.08365180  0.73494899  1
  P  P243  1  0.19799373  0.08227053  0.98501193  1
  P  P244  1  0.19944229  0.41701949  0.23466511  1
  P  P245  1  0.19806804  0.41802212  0.48505602  1
  P  P246  1  0.19656743  0.41729904  0.73516321  1
  P  P247  1  0.19725370  0.41792917  0.98500778  1
  P  P248  1  0.19552414  0.75055663  0.23434292  1
  P  P249  1  0.19586046  0.74953394  0.48689510  1
  P  P250  1  0.19373417  0.74936352  0.73623287  1
  P  P251  1  0.19498337  0.74971572  0.98581395  1
  P  P252  1  0.69625628  0.08290882  0.23521734  1
  P  P253  1  0.69742949  0.08291350  0.48508516  1
  P  P254  1  0.69537948  0.08174347  0.73626673  1
  P  P255  1  0.69678191  0.08259146  0.98397068  1
  P  P256  1  0.69508413  0.41803847  0.23455971  1
  P  P257  1  0.69688531  0.41722392  0.48523352  1
  P  P258  1  0.69514051  0.41738371  0.73631165  1
  P  P259  1  0.69380283  0.41727332  0.98544261  1
  P  P260  1  0.69664034  0.74933048  0.23523437  1
  P  P261  1  0.69916716  0.74999866  0.48494452  1
  P  P262  1  0.69887527  0.75095681  0.73492332  1
  P  P263  1  0.69840923  0.75002391  0.98477060  1
  P  P264  1  0.30550289  0.24894911  0.01372198  1
  P  P265  1  0.30450437  0.25046246  0.26535435  1
  P  P266  1  0.30433268  0.24991904  0.51375643  1
  P  P267  1  0.30385443  0.24898608  0.76620679  1
  P  P268  1  0.30436738  0.58479407  0.01414040  1
  P  P269  1  0.30563150  0.58298192  0.26404950  1
  P  P270  1  0.30398513  0.58420364  0.51451281  1
  P  P271  1  0.30337545  0.58375300  0.76497548  1
  P  P272  1  0.30326494  0.91618145  0.01336355  1
  P  P273  1  0.30179538  0.91606308  0.26566948  1
  P  P274  1  0.30251764  0.91614370  0.51425503  1
  P  P275  1  0.30353178  0.91723516  0.76589873  1
  P  P276  1  0.80221634  0.24923800  0.01344451  1
  P  P277  1  0.80197082  0.25039652  0.26531230  1
  P  P278  1  0.80383171  0.24981263  0.51652611  1
  P  P279  1  0.80545199  0.24989398  0.76476859  1
  P  P280  1  0.80412058  0.58422149  0.01403107  1
  P  P281  1  0.80386555  0.58312212  0.26421416  1
  P  P282  1  0.80594559  0.58414964  0.51492340  1
  P  P283  1  0.80622117  0.58443439  0.76460169  1
  P  P284  1  0.80434461  0.91636502  0.01396601  1
  P  P285  1  0.80569314  0.91646062  0.26451062  1
  P  P286  1  0.80656668  0.91604762  0.51441691  1
  P  P287  1  0.80547874  0.91580507  0.76421679  1
  O  O288  1  0.05727245  0.25018703  0.18642381  1
  O  O289  1  0.05667442  0.25017619  0.43619394  1
  O  O290  1  0.05600605  0.24978836  0.68703135  1
  O  O291  1  0.05593191  0.24985085  0.93711365  1
  O  O292  1  0.05686754  0.58357186  0.18618705  1
  O  O293  1  0.05904579  0.58333251  0.43781629  1
  O  O294  1  0.05891495  0.58330591  0.68766782  1
  O  O295  1  0.05908898  0.58355723  0.93762940  1
  O  O296  1  0.05853392  0.91615791  0.18710164  1
  O  O297  1  0.05926256  0.91618370  0.43717092  1
  O  O298  1  0.05627339  0.91651165  0.68726049  1
  O  O299  1  0.05828576  0.91680436  0.93854902  1
  O  O300  1  0.55619593  0.24945539  0.18599001  1
  O  O301  1  0.55461303  0.24971523  0.43744213  1
  O  O302  1  0.55611655  0.24973633  0.68674167  1
  O  O303  1  0.55830007  0.24901308  0.93779529  1
  O  O304  1  0.55852997  0.58435972  0.18707770  1
  O  O305  1  0.55655850  0.58424068  0.43654974  1
  O  O306  1  0.55618151  0.58431046  0.68652852  1
  O  O307  1  0.55875258  0.58493936  0.93772677  1
  O  O308  1  0.55740581  0.91610946  0.18545670  1
  O  O309  1  0.55534828  0.91603104  0.43713314  1
  O  O310  1  0.55946134  0.91552295  0.68796135  1
  O  O311  1  0.55995886  0.91607382  0.93712740  1
  O  O312  1  0.44120003  0.08199379  0.06172442  1
  O  O313  1  0.44282696  0.08221283  0.31411929  1
  O  O314  1  0.43892015  0.08234450  0.56328480  1
  O  O315  1  0.44165240  0.08236403  0.81219673  1
  O  O316  1  0.44453842  0.41755059  0.06334348  1
  O  O317  1  0.44132158  0.41704858  0.31235811  1
  O  O318  1  0.44031175  0.41763948  0.56240710  1
  O  O319  1  0.44412892  0.41702214  0.81311601  1
  O  O320  1  0.44055428  0.75043109  0.06146635  1
  O  O321  1  0.44270214  0.75079877  0.31384894  1
  O  O322  1  0.44007685  0.75016245  0.56277761  1
  O  O323  1  0.44254705  0.75029700  0.81371313  1
  O  O324  1  0.93964028  0.08319507  0.06157817  1
  O  O325  1  0.94474990  0.08288067  0.31282911  1
  O  O326  1  0.94547736  0.08268881  0.56342445  1
  O  O327  1  0.94339468  0.08266045  0.81427077  1
  O  O328  1  0.94273978  0.41740180  0.06310643  1
  O  O329  1  0.94362541  0.41736265  0.31306044  1
  O  O330  1  0.94441454  0.41707700  0.56349946  1
  O  O331  1  0.94384094  0.41699714  0.81369198  1
  O  O332  1  0.94197165  0.74988481  0.06148952  1
  O  O333  1  0.94391247  0.74950976  0.31328280  1
  O  O334  1  0.94271766  0.75012086  0.56259157  1
  O  O335  1  0.94200598  0.75014217  0.81255782  1
  O  O336  1  0.19397931  0.08268900  0.06169859  1
  O  O337  1  0.19134619  0.08304318  0.31271060  1
  O  O338  1  0.19051045  0.08321613  0.56274155  1
  O  O339  1  0.19317214  0.08345408  0.81154537  1
  O  O340  1  0.19435013  0.41725822  0.06176219  1
  O  O341  1  0.19540601  0.41735818  0.31135148  1
  O  O342  1  0.19378260  0.41724246  0.56173174  1
  O  O343  1  0.19334125  0.41678211  0.81192966  1
  O  O344  1  0.19088013  0.74962459  0.06251364  1
  O  O345  1  0.19271987  0.74962314  0.31113805  1
  O  O346  1  0.19123075  0.74972670  0.56357513  1
  O  O347  1  0.18969749  0.75023476  0.81297401  1
  O  O348  1  0.69370957  0.08279225  0.06070515  1
  O  O349  1  0.69274097  0.08267131  0.31194755  1
  O  O350  1  0.69382241  0.08263426  0.56189100  1
  O  O351  1  0.69087718  0.08266214  0.81293857  1
  O  O352  1  0.69024272  0.41742141  0.06222237  1
  O  O353  1  0.69229584  0.41743051  0.31136408  1
  O  O354  1  0.69374346  0.41739812  0.56203718  1
  O  O355  1  0.69023158  0.41735246  0.81307588  1
  O  O356  1  0.69454607  0.74977115  0.06141759  1
  O  O357  1  0.69358133  0.74994582  0.31189301  1
  O  O358  1  0.69491832  0.74999882  0.56162635  1
  O  O359  1  0.69445318  0.75022752  0.81153034  1
  O  O360  1  0.30729064  0.24968207  0.18852513  1
  O  O361  1  0.30816204  0.24975693  0.43698099  1
  O  O362  1  0.30609236  0.25004463  0.68937328  1
  O  O363  1  0.31010976  0.24992814  0.93699327  1
  O  O364  1  0.30958260  0.58360661  0.18729594  1
  O  O365  1  0.30835729  0.58448116  0.43781190  1
  O  O366  1  0.30796668  0.58381034  0.68831801  1
  O  O367  1  0.30894816  0.58384519  0.93741438  1
  O  O368  1  0.30597122  0.91598990  0.18896867  1
  O  O369  1  0.30673674  0.91600443  0.43751308  1
  O  O370  1  0.30585958  0.91615941  0.68943245  1
  O  O371  1  0.30827998  0.91637098  0.93675763  1
  O  O372  1  0.80506960  0.25033198  0.18848599  1
  O  O373  1  0.80689072  0.24971225  0.43971992  1
  O  O374  1  0.81038185  0.24971563  0.68806309  1
  O  O375  1  0.80741924  0.25026018  0.93679546  1
  O  O376  1  0.80873319  0.58335894  0.18753272  1
  O  O377  1  0.80952400  0.58330926  0.43810466  1
  O  O378  1  0.81074214  0.58345285  0.68786631  1
  O  O379  1  0.80922722  0.58351086  0.93739361  1
  O  O380  1  0.80975232  0.91617189  0.18771547  1
  O  O381  1  0.81092277  0.91710992  0.43768340  1
  O  O382  1  0.81047930  0.91675459  0.68757139  1
  O  O383  1  0.80875246  0.91616098  0.93722581  1
  O  O384  1  0.23552165  0.24919591  0.03793950  1
  O  O385  1  0.23495858  0.25028302  0.29091226  1
  O  O386  1  0.23445734  0.24976690  0.53845110  1
  O  O387  1  0.23434067  0.24977082  0.79187386  1
  O  O388  1  0.23399144  0.58395794  0.03774814  1
  O  O389  1  0.23563273  0.58407366  0.28845456  1
  O  O390  1  0.23367457  0.58374189  0.53855209  1
  O  O391  1  0.23294146  0.58414692  0.78837229  1
  O  O392  1  0.23292355  0.91589835  0.03709149  1
  O  O393  1  0.23166515  0.91618962  0.28978515  1
  O  O394  1  0.23227178  0.91629527  0.53843546  1
  O  O395  1  0.23355331  0.91685314  0.79117088  1
  O  O396  1  0.73167449  0.24958093  0.03657406  1
  O  O397  1  0.73239969  0.25045567  0.29060901  1
  O  O398  1  0.73427133  0.24994140  0.54193574  1
  O  O399  1  0.73517174  0.24969887  0.78798944  1
  O  O400  1  0.73354266  0.58367643  0.03709901  1
  O  O401  1  0.73355663  0.58366335  0.28788417  1
  O  O402  1  0.73606921  0.58383996  0.53968533  1
  O  O403  1  0.73605501  0.58436556  0.78836631  1
  O  O404  1  0.73391997  0.91647781  0.03767195  1
  O  O405  1  0.73573699  0.91603743  0.28878925  1
  O  O406  1  0.73648505  0.91627802  0.53845217  1
  O  O407  1  0.73509622  0.91605184  0.78771935  1
  O  O408  1  0.26518021  0.08229580  0.21151082  1
  O  O409  1  0.26554781  0.08283097  0.46251078  1
  O  O410  1  0.26740677  0.08298225  0.71071000  1
  O  O411  1  0.26811958  0.08253744  0.96077178  1
  O  O412  1  0.26942258  0.41675249  0.21003715  1
  O  O413  1  0.26826309  0.41803495  0.46110008  1
  O  O414  1  0.26621061  0.41689734  0.71008799  1
  O  O415  1  0.26696477  0.41829396  0.95987751  1
  O  O416  1  0.26521426  0.75003577  0.20928121  1
  O  O417  1  0.26603813  0.74990599  0.46269398  1
  O  O418  1  0.26371864  0.75016632  0.71226548  1
  O  O419  1  0.26528367  0.74997502  0.96172079  1
  O  O420  1  0.76591148  0.08317123  0.21008850  1
  O  O421  1  0.76719308  0.08299976  0.46037886  1
  O  O422  1  0.76557674  0.08217726  0.71244906  1
  O  O423  1  0.76682095  0.08241181  0.95914766  1
  O  O424  1  0.76455531  0.41686527  0.20879031  1
  O  O425  1  0.76651306  0.41734018  0.46013539  1
  O  O426  1  0.76538428  0.41729333  0.71298037  1
  O  O427  1  0.76382842  0.41723093  0.96099269  1
  O  O428  1  0.76640619  0.74967160  0.20997484  1
  O  O429  1  0.76926947  0.74994464  0.46080356  1
  O  O430  1  0.76908416  0.75057747  0.71097868  1
  O  O431  1  0.76850786  0.75031908  0.96033504  1
  O  O432  1  0.01475344  0.08231786  0.16180275  1
  O  O433  1  0.01857581  0.08295226  0.41418949  1
  O  O434  1  0.01825144  0.08251492  0.66560741  1
  O  O435  1  0.01502600  0.08306089  0.91693082  1
  O  O436  1  0.01614831  0.41792357  0.16487794  1
  O  O437  1  0.01665269  0.41703859  0.41512515  1
  O  O438  1  0.01638704  0.41667151  0.66604320  1
  O  O439  1  0.01582687  0.41714607  0.91602143  1
  O  O440  1  0.01664721  0.74964361  0.16239919  1
  O  O441  1  0.01588302  0.74977418  0.41565189  1
  O  O442  1  0.01681567  0.75011350  0.66352945  1
  O  O443  1  0.01595012  0.74987985  0.91340769  1
  O  O444  1  0.51535113  0.08280624  0.16265527  1
  O  O445  1  0.51423116  0.08243064  0.41716011  1
  O  O446  1  0.51413173  0.08277840  0.66337983  1
  O  O447  1  0.51643641  0.08276710  0.91267446  1
  O  O448  1  0.51765095  0.41730497  0.16497783  1
  O  O449  1  0.51389534  0.41753352  0.41432917  1
  O  O450  1  0.51448206  0.41734169  0.66360187  1
  O  O451  1  0.51783202  0.41724951  0.91438902  1
  O  O452  1  0.51513422  0.74973989  0.16219271  1
  O  O453  1  0.51469140  0.75016126  0.41641588  1
  O  O454  1  0.51480529  0.74961449  0.66368211  1
  O  O455  1  0.51541650  0.75023391  0.91535006  1
  O  O456  1  0.48466244  0.25049265  0.08352944  1
  O  O457  1  0.48063358  0.24980517  0.33619704  1
  O  O458  1  0.48254824  0.25021638  0.58566067  1
  O  O459  1  0.48330619  0.24929640  0.83726542  1
  O  O460  1  0.48399026  0.58343219  0.08644925  1
  O  O461  1  0.48214481  0.58403741  0.33605246  1
  O  O462  1  0.48150062  0.58385816  0.58583178  1
  O  O463  1  0.48278174  0.58397046  0.83801426  1
  O  O464  1  0.48438740  0.91650313  0.08408432  1
  O  O465  1  0.48066678  0.91617086  0.33616128  1
  O  O466  1  0.48420015  0.91621761  0.58813873  1
  O  O467  1  0.48396957  0.91629753  0.83757014  1
  O  O468  1  0.98317833  0.25066684  0.08564223  1
  O  O469  1  0.98392636  0.24931453  0.33401941  1
  O  O470  1  0.98242497  0.24943068  0.58554079  1
  O  O471  1  0.98115572  0.24950574  0.83666604  1
  O  O472  1  0.98305042  0.58411623  0.08500614  1
  O  O473  1  0.98315040  0.58408391  0.33789988  1
  O  O474  1  0.98410565  0.58391043  0.58755372  1
  O  O475  1  0.98390810  0.58377585  0.83763122  1
  O  O476  1  0.98378570  0.91579865  0.08678266  1
  O  O477  1  0.98423254  0.91600586  0.33675726  1
  O  O478  1  0.98349496  0.91654772  0.58529563  1
  O  O479  1  0.98271608  0.91603007  0.83866423  1
  O  O480  1  0.08718796  0.31547367  0.07731619  1
  O  O481  1  0.08761505  0.31451128  0.32704958  1
  O  O482  1  0.08632593  0.31402821  0.57727880  1
  O  O483  1  0.08485070  0.31476957  0.82745510  1
  O  O484  1  0.08699919  0.64928595  0.07678922  1
  O  O485  1  0.08689112  0.64849091  0.32784831  1
  O  O486  1  0.08764364  0.64943401  0.57788184  1
  O  O487  1  0.08727144  0.64952074  0.82783961  1
  O  O488  1  0.08781951  0.98015804  0.07666675  1
  O  O489  1  0.08749223  0.98226159  0.32732534  1
  O  O490  1  0.08760685  0.98126632  0.57784022  1
  O  O491  1  0.08617118  0.98110468  0.82830312  1
  O  O492  1  0.58846106  0.31599057  0.07772219  1
  O  O493  1  0.58453372  0.31462436  0.32815466  1
  O  O494  1  0.58619573  0.31516075  0.57750857  1
  O  O495  1  0.58673732  0.31474469  0.82819335  1
  O  O496  1  0.58803763  0.64758934  0.07633612  1
  O  O497  1  0.58598889  0.64924396  0.32686473  1
  O  O498  1  0.58539742  0.64871255  0.57674842  1
  O  O499  1  0.58638831  0.64873844  0.82717427  1
  O  O500  1  0.58850079  0.98120755  0.07614971  1
  O  O501  1  0.58451709  0.98128090  0.32768219  1
  O  O502  1  0.58769090  0.98099090  0.57797253  1
  O  O503  1  0.58746845  0.98218199  0.82724363  1
  O  O504  1  0.41176474  0.01786563  0.17184820  1
  O  O505  1  0.41021094  0.01731060  0.42303943  1
  O  O506  1  0.41050076  0.01787553  0.67351075  1
  O  O507  1  0.41280733  0.01733122  0.92231871  1
  O  O508  1  0.41331582  0.35332202  0.17271776  1
  O  O509  1  0.41014241  0.35241244  0.42205812  1
  O  O510  1  0.41069565  0.35324282  0.67221517  1
  O  O511  1  0.41437265  0.35180017  0.92249581  1
  O  O512  1  0.41188623  0.68409682  0.17083434  1
  O  O513  1  0.41064512  0.68525978  0.42255999  1
  O  O514  1  0.41129662  0.68401411  0.67221159  1
  O  O515  1  0.41121696  0.68552046  0.92289174  1
  O  O516  1  0.91158469  0.01692531  0.17100129  1
  O  O517  1  0.91528071  0.01721418  0.42224240  1
  O  O518  1  0.91438434  0.01753758  0.67250343  1
  O  O519  1  0.91114570  0.01781845  0.92315901  1
  O  O520  1  0.91216389  0.35335747  0.17243508  1
  O  O521  1  0.91269088  0.35247623  0.42202516  1
  O  O522  1  0.91241157  0.35183945  0.67214231  1
  O  O523  1  0.91192740  0.35202024  0.92267950  1
  O  O524  1  0.91302836  0.68458485  0.17117196  1
  O  O525  1  0.91184698  0.68508877  0.42266943  1
  O  O526  1  0.91292882  0.68544320  0.67256110  1
  O  O527  1  0.91226238  0.68469169  0.92232802  1
  O  O528  1  0.16158920  0.01714242  0.20339025  1
  O  O529  1  0.16196218  0.01732763  0.45302544  1
  O  O530  1  0.16310078  0.01861607  0.70214209  1
  O  O531  1  0.16429396  0.01726459  0.95229959  1
  O  O532  1  0.16540829  0.35212619  0.20210351  1
  O  O533  1  0.16472802  0.35289133  0.45197180  1
  O  O534  1  0.16248469  0.35223057  0.70269320  1
  O  O535  1  0.16346588  0.35277548  0.95238552  1
  O  O536  1  0.16103903  0.68580409  0.20161371  1
  O  O537  1  0.16293576  0.68433230  0.45348120  1
  O  O538  1  0.16046559  0.68423358  0.70330652  1
  O  O539  1  0.16170431  0.68454211  0.95265115  1
  O  O540  1  0.66251249  0.01778000  0.20253822  1
  O  O541  1  0.66353527  0.01788100  0.45238761  1
  O  O542  1  0.66239831  0.01634973  0.70349842  1
  O  O543  1  0.66282169  0.01749094  0.95151195  1
  O  O544  1  0.65981353  0.35353572  0.20227518  1
  O  O545  1  0.66273826  0.35212749  0.45295741  1
  O  O546  1  0.66188291  0.35227048  0.70322791  1
  O  O547  1  0.66003766  0.35220005  0.95256267  1
  O  O548  1  0.66281174  0.68411598  0.20284528  1
  O  O549  1  0.66532437  0.68500596  0.45228016  1
  O  O550  1  0.66518966  0.68599208  0.70173696  1
  O  O551  1  0.66479580  0.68499723  0.95171116  1
  O  O552  1  0.33892689  0.31418149  0.04683496  1
  O  O553  1  0.33887835  0.31560195  0.29704538  1
  O  O554  1  0.33772705  0.31523776  0.54645306  1
  O  O555  1  0.33893210  0.31356160  0.79866258  1
  O  O556  1  0.33720797  0.65016084  0.04711998  1
  O  O557  1  0.33966639  0.64769436  0.29737087  1
  O  O558  1  0.33702462  0.64929851  0.54807207  1
  O  O559  1  0.33692104  0.64853151  0.79841182  1
  O  O560  1  0.33643938  0.98113300  0.04692385  1
  O  O561  1  0.33576447  0.98083975  0.29864035  1
  O  O562  1  0.33591893  0.98121279  0.54720113  1
  O  O563  1  0.33761727  0.98239324  0.79796438  1
  O  O564  1  0.83518595  0.31420321  0.04736461  1
  O  O565  1  0.83618099  0.31539802  0.29747480  1
  O  O566  1  0.83839432  0.31474164  0.54872498  1
  O  O567  1  0.83858545  0.31492382  0.79829640  1
  O  O568  1  0.83716475  0.64942366  0.04730312  1
  O  O569  1  0.83780948  0.64793288  0.29748528  1
  O  O570  1  0.83983452  0.64939801  0.54727618  1
  O  O571  1  0.83982419  0.64964472  0.79716883  1
  O  O572  1  0.83766994  0.98141665  0.04703849  1
  O  O573  1  0.83931587  0.98141092  0.29760263  1
  O  O574  1  0.84034255  0.98071240  0.54817476  1
  O  O575  1  0.83885063  0.98063081  0.79805187  1
  O  O576  1  0.41187295  0.14786997  0.17111538  1
  O  O577  1  0.41022276  0.14742683  0.42279553  1
  O  O578  1  0.41046162  0.14770920  0.67324836  1
  O  O579  1  0.41248577  0.14740434  0.92212675  1
  O  O580  1  0.41393363  0.48325189  0.17235893  1
  O  O581  1  0.41017042  0.48262779  0.42155006  1
  O  O582  1  0.41139384  0.48343519  0.67203181  1
  O  O583  1  0.41396908  0.48206389  0.92247020  1
  O  O584  1  0.41150782  0.81416552  0.17173474  1
  O  O585  1  0.41062473  0.81527233  0.42319788  1
  O  O586  1  0.41105361  0.81400732  0.67287498  1
  O  O587  1  0.41148158  0.81557301  0.92275770  1
  O  O588  1  0.91138906  0.14740133  0.17178349  1
  O  O589  1  0.91449353  0.14724850  0.42235456  1
  O  O590  1  0.91411844  0.14755434  0.67243290  1
  O  O591  1  0.91077379  0.14788070  0.92302080  1
  O  O592  1  0.91267821  0.48369739  0.17175121  1
  O  O593  1  0.91318068  0.48268386  0.42225024  1
  O  O594  1  0.91292003  0.48212069  0.67251617  1
  O  O595  1  0.91210037  0.48223955  0.92244756  1
  O  O596  1  0.91316065  0.81474242  0.17138470  1
  O  O597  1  0.91230088  0.81507658  0.42224524  1
  O  O598  1  0.91332523  0.81553233  0.67237340  1
  O  O599  1  0.91199397  0.81460151  0.92272917  1
  O  O600  1  0.08668269  0.18526719  0.07678372  1
  O  O601  1  0.08776066  0.18416003  0.32760002  1
  O  O602  1  0.08618574  0.18393248  0.57809021  1
  O  O603  1  0.08506319  0.18470881  0.82768337  1
  O  O604  1  0.08730919  0.51947675  0.07652356  1
  O  O605  1  0.08657808  0.51858977  0.32737642  1
  O  O606  1  0.08807257  0.51948767  0.57716569  1
  O  O607  1  0.08795665  0.51952390  0.82726000  1
  O  O608  1  0.08746186  0.85029019  0.07737938  1
  O  O609  1  0.08831702  0.85224416  0.32703685  1
  O  O610  1  0.08717554  0.85133454  0.57758589  1
  O  O611  1  0.08637628  0.85106235  0.82881828  1
  O  O612  1  0.58869981  0.18591604  0.07631872  1
  O  O613  1  0.58420931  0.18447263  0.32803376  1
  O  O614  1  0.58605705  0.18492380  0.57733124  1
  O  O615  1  0.58690898  0.18435547  0.82778192  1
  O  O616  1  0.58753056  0.51772365  0.07778781  1
  O  O617  1  0.58628518  0.51927712  0.32701416  1
  O  O618  1  0.58515568  0.51873367  0.57705711  1
  O  O619  1  0.58639920  0.51865796  0.82798621  1
  O  O620  1  0.58838947  0.85141274  0.07591245  1
  O  O621  1  0.58464908  0.85128564  0.32753360  1
  O  O622  1  0.58752768  0.85094542  0.57758423  1
  O  O623  1  0.58809303  0.85213699  0.82668655  1
  O  O624  1  0.33891388  0.18374169  0.04627903  1
  O  O625  1  0.33870490  0.18548247  0.29796104  1
  O  O626  1  0.33782254  0.18474431  0.54655714  1
  O  O627  1  0.33797284  0.18358419  0.79773690  1
  O  O628  1  0.33853274  0.52025748  0.04762696  1
  O  O629  1  0.33889013  0.51772555  0.29676219  1
  O  O630  1  0.33768169  0.51925000  0.54760704  1
  O  O631  1  0.33659743  0.51873212  0.79841102  1
  O  O632  1  0.33632313  0.85097107  0.04672111  1
  O  O633  1  0.33544268  0.85106374  0.29862574  1
  O  O634  1  0.33576650  0.85114363  0.54761476  1
  O  O635  1  0.33781679  0.85253249  0.79886300  1
  O  O636  1  0.83505744  0.18395875  0.04643676  1
  O  O637  1  0.83622317  0.18540229  0.29766295  1
  O  O638  1  0.83827423  0.18480129  0.54884996  1
  O  O639  1  0.83888521  0.18484910  0.79797802  1
  O  O640  1  0.83739037  0.51945678  0.04792932  1
  O  O641  1  0.83698061  0.51810152  0.29764406  1
  O  O642  1  0.84003442  0.51945719  0.54817907  1
  O  O643  1  0.83966303  0.51962244  0.79839767  1
  O  O644  1  0.83777803  0.85132165  0.04731516  1
  O  O645  1  0.83979931  0.85155788  0.29734255  1
  O  O646  1  0.84011220  0.85076222  0.54706694  1
  O  O647  1  0.83877750  0.85072592  0.79740629  1
  O  O648  1  0.16184246  0.14736738  0.20262547  1
  O  O649  1  0.16178435  0.14737769  0.45228658  1
  O  O650  1  0.16377183  0.14865161  0.70201155  1
  O  O651  1  0.16430139  0.14729739  0.95207845  1
  O  O652  1  0.16571560  0.48217253  0.20199221  1
  O  O653  1  0.16453685  0.48310954  0.45232408  1
  O  O654  1  0.16279831  0.48261635  0.70301303  1
  O  O655  1  0.16290255  0.48303550  0.95314130  1
  O  O656  1  0.16152228  0.81580941  0.20234926  1
  O  O657  1  0.16222259  0.81443296  0.45374561  1
  O  O658  1  0.15973247  0.81431399  0.70293399  1
  O  O659  1  0.16120589  0.81454274  0.95258453  1
  O  O660  1  0.66202651  0.14798331  0.20292983  1
  O  O661  1  0.66325008  0.14798851  0.45288940  1
  O  O662  1  0.66188701  0.14667092  0.70288445  1
  O  O663  1  0.66265321  0.14750129  0.95121128  1
  O  O664  1  0.66149404  0.48362293  0.20248735  1
  O  O665  1  0.66271400  0.48222032  0.45284082  1
  O  O666  1  0.66209129  0.48255173  0.70306659  1
  O  O667  1  0.66027435  0.48250049  0.95253462  1
  O  O668  1  0.66248223  0.81419295  0.20254707  1
  O  O669  1  0.66545776  0.81497306  0.45195617  1
  O  O670  1  0.66534679  0.81605794  0.70218825  1
  O  O671  1  0.66459123  0.81502847  0.95204959  1
