# generated using pymatgen
data_Na2MnFe(PO4)2
_symmetry_space_group_name_H-M   'P 1'
_cell_length_a   21.08603445
_cell_length_b   18.93883139
_cell_length_c   20.04482614
_cell_angle_alpha   90.00067119
_cell_angle_beta   90.00200084
_cell_angle_gamma   90.00160960
_symmetry_Int_Tables_number   1
_chemical_formula_structural   Na2MnFe(PO4)2
_chemical_formula_sum   'Na96 Mn48 Fe48 P96 O384'
_cell_volume   8004.79810180
_cell_formula_units_Z   48
loop_
 _symmetry_equiv_pos_site_id
 _symmetry_equiv_pos_as_xyz
  1  'x, y, z'
loop_
 _atom_site_type_symbol
 _atom_site_label
 _atom_site_symmetry_multiplicity
 _atom_site_fract_x
 _atom_site_fract_y
 _atom_site_fract_z
 _atom_site_occupancy
  Na  Na0  1  -0.00176273  0.00056874  -0.00013777  1
  Na  Na1  1  -0.00154666  0.00007754  0.25061987  1
  Na  Na2  1  -0.00278694  -0.00070872  0.49919152  1
  Na  Na3  1  -0.00335611  -0.00066799  0.74958283  1
  Na  Na4  1  0.00150727  0.33360964  0.00017862  1
  Na  Na5  1  0.00241368  0.33430690  0.24876916  1
  Na  Na6  1  0.00107350  0.33401423  0.50088923  1
  Na  Na7  1  0.00082294  0.33380834  0.75044129  1
  Na  Na8  1  -0.00169250  0.66680441  -0.00074495  1
  Na  Na9  1  -0.00268112  0.66652058  0.24966530  1
  Na  Na10  1  -0.00275434  0.66630732  0.49953518  1
  Na  Na11  1  -0.00188247  0.66644850  0.75045038  1
  Na  Na12  1  0.50023709  -0.00058630  0.00104124  1
  Na  Na13  1  0.50162829  0.00000622  0.25121052  1
  Na  Na14  1  0.49971419  -0.00051708  0.49936651  1
  Na  Na15  1  0.49937965  -0.00007682  0.74876728  1
  Na  Na16  1  0.49985726  0.33254124  0.00041656  1
  Na  Na17  1  0.50031027  0.33339136  0.24943528  1
  Na  Na18  1  0.49969729  0.33360805  0.50055765  1
  Na  Na19  1  0.50139200  0.33398783  0.75035436  1
  Na  Na20  1  0.50202455  0.66680615  -0.00098672  1
  Na  Na21  1  0.50190651  0.66684999  0.25014117  1
  Na  Na22  1  0.50075223  0.66617562  0.50098666  1
  Na  Na23  1  0.50105826  0.66640624  0.75032622  1
  Na  Na24  1  0.25019774  -0.00055270  0.12462854  1
  Na  Na25  1  0.25116311  -0.00006981  0.37399187  1
  Na  Na26  1  0.25094014  -0.00040457  0.62575329  1
  Na  Na27  1  0.25138764  0.00026667  0.87587694  1
  Na  Na28  1  0.24951731  0.33336751  0.12612218  1
  Na  Na29  1  0.24930871  0.33345416  0.37488595  1
  Na  Na30  1  0.24780123  0.33315618  0.62414462  1
  Na  Na31  1  0.24666636  0.33269703  0.87499047  1
  Na  Na32  1  0.24944478  0.66654406  0.12613987  1
  Na  Na33  1  0.24844306  0.66629399  0.37437319  1
  Na  Na34  1  0.25163119  0.66755896  0.62472951  1
  Na  Na35  1  0.24903403  0.66579247  0.87427792  1
  Na  Na36  1  0.74947496  0.00004014  0.12411007  1
  Na  Na37  1  0.75115929  0.00020915  0.37510480  1
  Na  Na38  1  0.75230963  0.00021062  0.62555682  1
  Na  Na39  1  0.75142971  0.00087603  0.87501362  1
  Na  Na40  1  0.74884979  0.33303389  0.12608725  1
  Na  Na41  1  0.74849644  0.33293427  0.37522173  1
  Na  Na42  1  0.75035089  0.33406243  0.62423929  1
  Na  Na43  1  0.75074763  0.33406847  0.87491798  1
  Na  Na44  1  0.75117674  0.66733899  0.12611243  1
  Na  Na45  1  0.75239685  0.66725230  0.37453284  1
  Na  Na46  1  0.75330245  0.66700512  0.62380125  1
  Na  Na47  1  0.74990738  0.66565545  0.87523558  1
  Na  Na48  1  0.00040725  0.16633408  -0.00000201  1
  Na  Na49  1  0.00104011  0.16595663  0.24974872  1
  Na  Na50  1  -0.00147010  0.16698541  0.49999059  1
  Na  Na51  1  -0.00016663  0.16610257  0.75052583  1
  Na  Na52  1  -0.00033659  0.49969603  -0.00068639  1
  Na  Na53  1  -0.00162132  0.50029786  0.24933444  1
  Na  Na54  1  -0.00206060  0.50029560  0.50034251  1
  Na  Na55  1  -0.00024891  0.49929068  0.75090119  1
  Na  Na56  1  -0.00248903  0.83358984  -0.00006356  1
  Na  Na57  1  -0.00154448  0.83348197  0.24973108  1
  Na  Na58  1  -0.00094837  0.83307431  0.49929163  1
  Na  Na59  1  -0.00345880  0.83407240  0.74928267  1
  Na  Na60  1  0.50216953  0.16629811  0.00011972  1
  Na  Na61  1  0.50010793  0.16716305  0.25012092  1
  Na  Na62  1  0.49791310  0.16768326  0.50039080  1
  Na  Na63  1  0.50084408  0.16616493  0.74950311  1
  Na  Na64  1  0.50059825  0.50049382  -0.00069000  1
  Na  Na65  1  0.50046909  0.49979748  0.24984301  1
  Na  Na66  1  0.49983825  0.49995114  0.50104496  1
  Na  Na67  1  0.50089787  0.50043099  0.75029910  1
  Na  Na68  1  0.49963407  0.83414182  0.00100690  1
  Na  Na69  1  0.50269067  0.83326204  0.25052119  1
  Na  Na70  1  0.50242319  0.83300669  0.49968339  1
  Na  Na71  1  0.49882111  0.83461696  0.74936732  1
  Na  Na72  1  0.24822160  0.16764949  0.12510976  1
  Na  Na73  1  0.25063289  0.16668108  0.37466135  1
  Na  Na74  1  0.25020950  0.16656700  0.62371149  1
  Na  Na75  1  0.24768281  0.16730344  0.87593264  1
  Na  Na76  1  0.25027425  0.49975401  0.12645800  1
  Na  Na77  1  0.25057410  0.49979939  0.37497645  1
  Na  Na78  1  0.25011453  0.49965594  0.62568637  1
  Na  Na79  1  0.24812319  0.50067413  0.87395185  1
  Na  Na80  1  0.25119094  0.83286734  0.12528721  1
  Na  Na81  1  0.24790770  0.83439193  0.37396751  1
  Na  Na82  1  0.24993849  0.83384702  0.62513394  1
  Na  Na83  1  0.25157283  0.83330880  0.87522770  1
  Na  Na84  1  0.74821766  0.16669358  0.12457986  1
  Na  Na85  1  0.75113934  0.16578153  0.37537737  1
  Na  Na86  1  0.75221744  0.16565655  0.62570643  1
  Na  Na87  1  0.74943274  0.16660748  0.87536703  1
  Na  Na88  1  0.75086012  0.49935325  0.12677550  1
  Na  Na89  1  0.75099663  0.49956806  0.37464583  1
  Na  Na90  1  0.75097976  0.49996561  0.62335368  1
  Na  Na91  1  0.74994682  0.50006849  0.87438710  1
  Na  Na92  1  0.75002899  0.83344936  0.12475456  1
  Na  Na93  1  0.74969994  0.83378119  0.37481296  1
  Na  Na94  1  0.75227238  0.83296155  0.62474009  1
  Na  Na95  1  0.75349688  0.83173186  0.87535751  1
  Mn  Mn96  1  0.85759837  0.41565453  0.25302926  1
  Mn  Mn97  1  0.14237313  0.91617417  0.99745747  1
  Mn  Mn98  1  0.60883112  0.75001921  0.62289035  1
  Mn  Mn99  1  0.64286714  0.58355311  0.24786800  1
  Mn  Mn100  1  0.35814321  0.08342241  0.25139723  1
  Mn  Mn101  1  0.60825259  0.08391264  0.37309261  1
  Mn  Mn102  1  0.35819646  0.08419920  0.00274772  1
  Mn  Mn103  1  0.64244686  0.91651107  0.99707080  1
  Mn  Mn104  1  0.64246022  0.24933794  0.49768721  1
  Mn  Mn105  1  0.39274498  0.58379279  0.87771499  1
  Mn  Mn106  1  0.35713467  0.41613069  0.75209215  1
  Mn  Mn107  1  0.89229032  0.24982011  0.87780855  1
  Mn  Mn108  1  0.39198796  0.24942146  0.87732068  1
  Mn  Mn109  1  0.35865223  0.74998630  0.25242351  1
  Mn  Mn110  1  0.14244500  0.24927590  0.49709548  1
  Mn  Mn111  1  0.35794574  0.75024111  0.50141908  1
  Mn  Mn112  1  0.10658120  0.74988064  0.62250540  1
  Mn  Mn113  1  0.64351316  0.58383737  0.49763634  1
  Mn  Mn114  1  0.14176150  0.58421942  0.49808028  1
  Mn  Mn115  1  0.39278604  0.58319987  0.37775193  1
  Mn  Mn116  1  0.10663308  0.75031460  0.12241427  1
  Mn  Mn117  1  0.14159426  0.58347748  0.74696374  1
  Mn  Mn118  1  0.60774936  0.41694348  0.12224621  1
  Mn  Mn119  1  0.39185342  0.25046778  0.62782924  1
  Mn  Mn120  1  0.10675906  0.75048236  0.87291975  1
  Mn  Mn121  1  0.10698704  0.08274641  0.87277719  1
  Mn  Mn122  1  0.89239605  0.25036307  0.62764480  1
  Mn  Mn123  1  0.89146114  0.58315280  0.87790341  1
  Mn  Mn124  1  0.89212686  0.25051645  0.37649978  1
  Mn  Mn125  1  0.10699968  0.08266860  0.62244278  1
  Mn  Mn126  1  0.35832668  0.74894141  0.00253533  1
  Mn  Mn127  1  0.60814994  0.08354367  0.62260889  1
  Mn  Mn128  1  0.64294258  0.25072455  0.74748230  1
  Mn  Mn129  1  0.35777574  0.08404194  0.75260382  1
  Mn  Mn130  1  0.10753827  0.41696979  0.12201025  1
  Mn  Mn131  1  0.89197491  0.25008426  0.12730191  1
  Mn  Mn132  1  0.14162911  0.91702203  0.74788269  1
  Mn  Mn133  1  0.60885792  0.75122601  0.87241653  1
  Mn  Mn134  1  0.35837410  0.75007740  0.75216615  1
  Mn  Mn135  1  0.35790908  0.41660621  0.25237223  1
  Mn  Mn136  1  0.10729474  0.08320844  0.37277797  1
  Mn  Mn137  1  0.39334109  0.91654395  0.37768477  1
  Mn  Mn138  1  0.89138326  0.91677119  0.12748302  1
  Mn  Mn139  1  0.14148357  0.91734641  0.24762352  1
  Mn  Mn140  1  0.64331079  0.91590127  0.74782818  1
  Mn  Mn141  1  0.60900680  0.41617076  0.87277388  1
  Mn  Mn142  1  0.35695254  0.41690145  0.00137290  1
  Mn  Mn143  1  0.14102829  0.58330308  0.24768954  1
  Fe  Fe144  1  0.89241583  0.58297292  0.62719552  1
  Fe  Fe145  1  0.89174502  0.91697552  0.87700859  1
  Fe  Fe146  1  0.14178004  0.24949836  0.74813131  1
  Fe  Fe147  1  0.85728401  0.08380029  0.75254354  1
  Fe  Fe148  1  0.60795792  0.74990955  0.12345812  1
  Fe  Fe149  1  0.89183354  0.58293647  0.12598126  1
  Fe  Fe150  1  0.10573964  0.74967407  0.37351904  1
  Fe  Fe151  1  0.85769384  0.75031775  0.50130912  1
  Fe  Fe152  1  0.35736923  0.08291642  0.50145588  1
  Fe  Fe153  1  0.39265775  0.91602284  0.62581160  1
  Fe  Fe154  1  0.60779680  0.41682997  0.62313265  1
  Fe  Fe155  1  0.85736252  0.41651586  0.75151858  1
  Fe  Fe156  1  0.85780840  0.41602413  0.50176054  1
  Fe  Fe157  1  0.10667238  0.41691971  0.87334174  1
  Fe  Fe158  1  0.64376277  0.58313656  0.74802442  1
  Fe  Fe159  1  0.85627821  0.08427033  0.00238550  1
  Fe  Fe160  1  0.39263831  0.25049757  0.37617477  1
  Fe  Fe161  1  0.89177143  0.91631269  0.37691959  1
  Fe  Fe162  1  0.64176386  0.24906537  0.24864770  1
  Fe  Fe163  1  0.14194287  0.91675040  0.49850584  1
  Fe  Fe164  1  0.64355243  0.91728037  0.24878217  1
  Fe  Fe165  1  0.85669751  0.75099367  0.25212416  1
  Fe  Fe166  1  0.60771845  0.08303238  0.12374168  1
  Fe  Fe167  1  0.89275621  0.58291838  0.37663029  1
  Fe  Fe168  1  0.60726269  0.41665873  0.37448130  1
  Fe  Fe169  1  0.85685432  0.08338622  0.25096683  1
  Fe  Fe170  1  0.39304455  0.91701649  0.87656225  1
  Fe  Fe171  1  0.35745596  0.41678412  0.50222592  1
  Fe  Fe172  1  0.14282156  0.24955254  0.24840457  1
  Fe  Fe173  1  0.39284039  0.24981428  0.12673943  1
  Fe  Fe174  1  0.60916385  0.74920119  0.37347048  1
  Fe  Fe175  1  0.10682109  0.08281254  0.12323835  1
  Fe  Fe176  1  0.14189752  0.58333021  0.99886131  1
  Fe  Fe177  1  0.85749224  0.74943835  0.75189760  1
  Fe  Fe178  1  0.64383430  0.91667733  0.49902997  1
  Fe  Fe179  1  0.14251679  0.25045446  0.99857307  1
  Fe  Fe180  1  0.89203391  0.91617306  0.62657472  1
  Fe  Fe181  1  0.85760007  0.08350253  0.50179257  1
  Fe  Fe182  1  0.64335545  0.58274647  0.99928437  1
  Fe  Fe183  1  0.85672964  0.74929135  0.00256558  1
  Fe  Fe184  1  0.64262444  0.25058397  0.99855086  1
  Fe  Fe185  1  0.39341184  0.58362739  0.62663080  1
  Fe  Fe186  1  0.39280080  0.58372112  0.12598232  1
  Fe  Fe187  1  0.10723999  0.41746922  0.37432179  1
  Fe  Fe188  1  0.85737113  0.41631145  0.00147683  1
  Fe  Fe189  1  0.60764132  0.08286226  0.87336647  1
  Fe  Fe190  1  0.10641062  0.41733990  0.62297901  1
  Fe  Fe191  1  0.39393753  0.91644382  0.12684707  1
  P  P192  1  0.05493503  0.24886840  0.11056929  1
  P  P193  1  0.05388650  0.25085680  0.35938658  1
  P  P194  1  0.05443161  0.25036347  0.61112065  1
  P  P195  1  0.05492452  0.25057294  0.86084831  1
  P  P196  1  0.05157572  0.58368791  0.10907441  1
  P  P197  1  0.05165730  0.58351098  0.36037065  1
  P  P198  1  0.05120910  0.58284971  0.61005460  1
  P  P199  1  0.05393103  0.58300545  0.86116593  1
  P  P200  1  0.05253843  0.91753939  0.10970534  1
  P  P201  1  0.05249520  0.91600357  0.36115870  1
  P  P202  1  0.05159680  0.91661557  0.60908682  1
  P  P203  1  0.05093649  0.91658490  0.85979450  1
  P  P204  1  0.55424286  0.24912482  0.11083324  1
  P  P205  1  0.55270799  0.25089360  0.35998804  1
  P  P206  1  0.55365321  0.25093164  0.61011846  1
  P  P207  1  0.55497498  0.24896993  0.86101611  1
  P  P208  1  0.55318771  0.58407215  0.10949047  1
  P  P209  1  0.55422290  0.58284576  0.36053832  1
  P  P210  1  0.55461479  0.58267425  0.61139487  1
  P  P211  1  0.55641425  0.58342657  0.86035384  1
  P  P212  1  0.55482831  0.91673290  0.11188762  1
  P  P213  1  0.55668270  0.91605854  0.36110635  1
  P  P214  1  0.55353486  0.91683033  0.60924042  1
  P  P215  1  0.55271067  0.91780910  0.85969258  1
  P  P216  1  0.44837119  0.08334619  0.14001869  1
  P  P217  1  0.44632985  0.08434899  0.39030339  1
  P  P218  1  0.44530045  0.08231405  0.63851595  1
  P  P219  1  0.44805927  0.08273567  0.89025417  1
  P  P220  1  0.44619880  0.41685367  0.13928997  1
  P  P221  1  0.44721779  0.41594618  0.39063033  1
  P  P222  1  0.44679467  0.41758016  0.63945286  1
  P  P223  1  0.44719445  0.41643936  0.89007040  1
  P  P224  1  0.44848806  0.74964662  0.13997526  1
  P  P225  1  0.44939082  0.74992280  0.39007804  1
  P  P226  1  0.44706953  0.75008725  0.63952686  1
  P  P227  1  0.44753477  0.75106431  0.89012961  1
  P  P228  1  0.94561824  0.08373898  0.13964453  1
  P  P229  1  0.94420306  0.08296356  0.38900503  1
  P  P230  1  0.94427958  0.08261593  0.63938694  1
  P  P231  1  0.94412633  0.08292187  0.88991455  1
  P  P232  1  0.94489516  0.41706258  0.13858324  1
  P  P233  1  0.94738537  0.41667070  0.39038458  1
  P  P234  1  0.94584871  0.41717977  0.63977707  1
  P  P235  1  0.94583474  0.41636322  0.88975860  1
  P  P236  1  0.94371036  0.74904452  0.13945617  1
  P  P237  1  0.94496355  0.75036095  0.38874827  1
  P  P238  1  0.94404266  0.74984711  0.63895306  1
  P  P239  1  0.94372265  0.75060546  0.88957956  1
  P  P240  1  0.19582804  0.08391408  0.23427822  1
  P  P241  1  0.19772908  0.08191162  0.48483676  1
  P  P242  1  0.19623799  0.08386371  0.73487973  1
  P  P243  1  0.19531199  0.08374069  0.98641141  1
  P  P244  1  0.19462279  0.41616019  0.23663657  1
  P  P245  1  0.19600406  0.41735309  0.48561024  1
  P  P246  1  0.19387076  0.41577866  0.73520974  1
  P  P247  1  0.19535172  0.41714163  0.98465698  1
  P  P248  1  0.19479133  0.75023446  0.23595361  1
  P  P249  1  0.19558978  0.75106107  0.48412330  1
  P  P250  1  0.19632433  0.75035533  0.73457199  1
  P  P251  1  0.19663184  0.74905745  0.98492255  1
  P  P252  1  0.69711281  0.08293846  0.23483548  1
  P  P253  1  0.69844008  0.08243184  0.48552073  1
  P  P254  1  0.69717335  0.08293792  0.73626029  1
  P  P255  1  0.69554183  0.08397970  0.98568930  1
  P  P256  1  0.69489427  0.41580388  0.23677883  1
  P  P257  1  0.69669902  0.41689984  0.48543972  1
  P  P258  1  0.69775636  0.41761471  0.73388093  1
  P  P259  1  0.69809499  0.41686937  0.98560379  1
  P  P260  1  0.69635269  0.75095818  0.23580925  1
  P  P261  1  0.69831060  0.75047112  0.48476675  1
  P  P262  1  0.69892050  0.74911960  0.73489778  1
  P  P263  1  0.69685842  0.74900008  0.98650087  1
  P  P264  1  0.30237541  0.25052964  0.01583904  1
  P  P265  1  0.30417365  0.24986520  0.26443395  1
  P  P266  1  0.30498716  0.25041495  0.51325897  1
  P  P267  1  0.30128323  0.25025136  0.76530930  1
  P  P268  1  0.30197891  0.58296213  0.01586947  1
  P  P269  1  0.30446784  0.58353922  0.26429525  1
  P  P270  1  0.30399916  0.58273547  0.51556307  1
  P  P271  1  0.30465383  0.58314758  0.76385223  1
  P  P272  1  0.30576850  0.91658660  0.01501057  1
  P  P273  1  0.30512012  0.91666969  0.26385806  1
  P  P274  1  0.30258568  0.91692153  0.51499117  1
  P  P275  1  0.30504129  0.91683927  0.76487143  1
  P  P276  1  0.80200298  0.25016943  0.01504843  1
  P  P277  1  0.80141350  0.24880600  0.26488007  1
  P  P278  1  0.80376888  0.25023649  0.51487893  1
  P  P279  1  0.80377667  0.25064217  0.76514680  1
  P  P280  1  0.80256911  0.58263512  0.01586107  1
  P  P281  1  0.80550873  0.58403436  0.26444588  1
  P  P282  1  0.80637195  0.58294529  0.51356405  1
  P  P283  1  0.80400260  0.58264555  0.76352115  1
  P  P284  1  0.80434970  0.91708047  0.01372962  1
  P  P285  1  0.80293528  0.91706144  0.26511969  1
  P  P286  1  0.80443000  0.91649017  0.51410496  1
  P  P287  1  0.80544290  0.91645147  0.76448094  1
  O  O288  1  0.05895293  0.24957120  0.18730256  1
  O  O289  1  0.05659885  0.24981681  0.43626970  1
  O  O290  1  0.05787554  0.24928533  0.68788424  1
  O  O291  1  0.05885712  0.24986731  0.93764037  1
  O  O292  1  0.05526380  0.58366740  0.18581494  1
  O  O293  1  0.05523718  0.58360480  0.43702127  1
  O  O294  1  0.05492370  0.58339245  0.68674535  1
  O  O295  1  0.05807513  0.58368759  0.93785581  1
  O  O296  1  0.05552521  0.91703724  0.18650939  1
  O  O297  1  0.05743641  0.91686584  0.43777405  1
  O  O298  1  0.05561213  0.91692568  0.68577656  1
  O  O299  1  0.05547621  0.91661055  0.93644520  1
  O  O300  1  0.55886661  0.24970955  0.18756662  1
  O  O301  1  0.55645339  0.24994261  0.43670170  1
  O  O302  1  0.55723436  0.25013301  0.68689450  1
  O  O303  1  0.55934942  0.25024364  0.93781119  1
  O  O304  1  0.55712929  0.58332073  0.18619973  1
  O  O305  1  0.55709866  0.58301026  0.43732085  1
  O  O306  1  0.55968903  0.58339597  0.68805683  1
  O  O307  1  0.56104721  0.58311007  0.93711678  1
  O  O308  1  0.55954084  0.91693653  0.18854809  1
  O  O309  1  0.56102437  0.91684069  0.43784754  1
  O  O310  1  0.55758446  0.91694086  0.68595482  1
  O  O311  1  0.55655586  0.91682755  0.93645107  1
  O  O312  1  0.44483338  0.08355934  0.06333709  1
  O  O313  1  0.44361242  0.08346196  0.31353386  1
  O  O314  1  0.44093045  0.08301063  0.56178664  1
  O  O315  1  0.44426937  0.08378755  0.81352066  1
  O  O316  1  0.44319409  0.41673854  0.06258254  1
  O  O317  1  0.44367554  0.41656199  0.31388837  1
  O  O318  1  0.44183032  0.41688164  0.56279029  1
  O  O319  1  0.44368010  0.41644420  0.81331065  1
  O  O320  1  0.44476961  0.74952990  0.06328372  1
  O  O321  1  0.44532501  0.75020044  0.31341564  1
  O  O322  1  0.44410845  0.74985258  0.56279430  1
  O  O323  1  0.44434777  0.75006399  0.81337740  1
  O  O324  1  0.94037603  0.08420942  0.06297355  1
  O  O325  1  0.94005889  0.08368792  0.31222292  1
  O  O326  1  0.94041451  0.08365047  0.56252670  1
  O  O327  1  0.94013011  0.08397651  0.81307394  1
  O  O328  1  0.94062420  0.41601649  0.06183950  1
  O  O329  1  0.94374714  0.41566689  0.31362596  1
  O  O330  1  0.94129387  0.41613135  0.56308318  1
  O  O331  1  0.94098742  0.41634845  0.81309677  1
  O  O332  1  0.93961717  0.74981110  0.06259745  1
  O  O333  1  0.94073847  0.75102633  0.31202241  1
  O  O334  1  0.94071327  0.75002901  0.56210530  1
  O  O335  1  0.93995292  0.74939445  0.81270992  1
  O  O336  1  0.19114621  0.08261661  0.06309753  1
  O  O337  1  0.19296636  0.08295538  0.31109005  1
  O  O338  1  0.19365722  0.08241472  0.56149097  1
  O  O339  1  0.19295870  0.08284988  0.81167499  1
  O  O340  1  0.19338437  0.41718748  0.06156208  1
  O  O341  1  0.19039772  0.41742525  0.31337316  1
  O  O342  1  0.19069052  0.41770128  0.56226531  1
  O  O343  1  0.18985567  0.41703034  0.81197706  1
  O  O344  1  0.19326062  0.75006742  0.06170978  1
  O  O345  1  0.18942813  0.75008776  0.31264627  1
  O  O346  1  0.19254299  0.75014751  0.56091494  1
  O  O347  1  0.19268472  0.75023789  0.81132619  1
  O  O348  1  0.69078855  0.08296828  0.06239772  1
  O  O349  1  0.69403816  0.08326796  0.31157703  1
  O  O350  1  0.69472542  0.08299494  0.56220462  1
  O  O351  1  0.69210125  0.08282408  0.81288983  1
  O  O352  1  0.69440597  0.41678408  0.06231197  1
  O  O353  1  0.69069848  0.41646004  0.31350076  1
  O  O354  1  0.69179171  0.41708465  0.56208484  1
  O  O355  1  0.69424982  0.41681631  0.81062785  1
  O  O356  1  0.69190080  0.75001939  0.06318220  1
  O  O357  1  0.69216873  0.74963371  0.31253552  1
  O  O358  1  0.69475464  0.74955872  0.56147181  1
  O  O359  1  0.69520507  0.74994014  0.81162471  1
  O  O360  1  0.30932819  0.24995432  0.18775012  1
  O  O361  1  0.30883381  0.25079798  0.43650563  1
  O  O362  1  0.30559790  0.25037706  0.68858073  1
  O  O363  1  0.30621063  0.25001489  0.93911841  1
  O  O364  1  0.30954213  0.58384212  0.18759729  1
  O  O365  1  0.30686243  0.58335713  0.43870798  1
  O  O366  1  0.30979595  0.58331062  0.68715628  1
  O  O367  1  0.30612357  0.58330167  0.93912977  1
  O  O368  1  0.31041090  0.91629668  0.18714333  1
  O  O369  1  0.30662684  0.91619159  0.43824702  1
  O  O370  1  0.30942438  0.91651514  0.68813257  1
  O  O371  1  0.31014765  0.91688379  0.93821978  1
  O  O372  1  0.80532433  0.24967955  0.18825452  1
  O  O373  1  0.80638362  0.25054625  0.43814586  1
  O  O374  1  0.80655605  0.25057204  0.68839476  1
  O  O375  1  0.80583806  0.25018870  0.93840105  1
  O  O376  1  0.80885588  0.58301100  0.18770630  1
  O  O377  1  0.80997214  0.58267092  0.43669974  1
  O  O378  1  0.80829828  0.58263599  0.68682120  1
  O  O379  1  0.80560198  0.58262045  0.93903877  1
  O  O380  1  0.80594195  0.91693959  0.18838671  1
  O  O381  1  0.80821341  0.91636225  0.43734700  1
  O  O382  1  0.80860184  0.91654935  0.68762492  1
  O  O383  1  0.80779953  0.91705948  0.93697737  1
  O  O384  1  0.23216764  0.25067573  0.03988435  1
  O  O385  1  0.23373442  0.24981449  0.28776049  1
  O  O386  1  0.23496752  0.25010531  0.53768236  1
  O  O387  1  0.23124664  0.24998070  0.78948237  1
  O  O388  1  0.23188124  0.58290105  0.04029903  1
  O  O389  1  0.23424471  0.58315905  0.28780943  1
  O  O390  1  0.23424562  0.58358276  0.54065254  1
  O  O391  1  0.23436529  0.58317443  0.78701957  1
  O  O392  1  0.23553781  0.91621231  0.03861913  1
  O  O393  1  0.23483228  0.91723425  0.28704883  1
  O  O394  1  0.23247048  0.91651298  0.53945907  1
  O  O395  1  0.23493741  0.91677465  0.78893109  1
  O  O396  1  0.73192524  0.25003459  0.03963186  1
  O  O397  1  0.73141537  0.24891442  0.28962233  1
  O  O398  1  0.73427563  0.24985296  0.54065678  1
  O  O399  1  0.73421480  0.25055959  0.79060913  1
  O  O400  1  0.73269419  0.58302111  0.04113787  1
  O  O401  1  0.73554511  0.58340984  0.28895671  1
  O  O402  1  0.73634249  0.58343480  0.53787990  1
  O  O403  1  0.73389486  0.58269582  0.78791800  1
  O  O404  1  0.73449741  0.91702165  0.03852262  1
  O  O405  1  0.73298132  0.91709755  0.28996756  1
  O  O406  1  0.73426273  0.91643205  0.53874427  1
  O  O407  1  0.73563747  0.91629828  0.78961636  1
  O  O408  1  0.26554343  0.08346033  0.20916386  1
  O  O409  1  0.26778812  0.08273229  0.46028937  1
  O  O410  1  0.26592766  0.08370465  0.70986078  1
  O  O411  1  0.26533388  0.08389310  0.96209848  1
  O  O412  1  0.26467028  0.41622323  0.21254415  1
  O  O413  1  0.26647135  0.41691695  0.46232936  1
  O  O414  1  0.26396041  0.41634761  0.71108758  1
  O  O415  1  0.26475891  0.41684408  0.95855127  1
  O  O416  1  0.26506139  0.75010117  0.21263542  1
  O  O417  1  0.26533991  0.75035986  0.45895210  1
  O  O418  1  0.26611557  0.75042771  0.70990863  1
  O  O419  1  0.26633309  0.74937699  0.95985220  1
  O  O420  1  0.76710209  0.08300446  0.20979510  1
  O  O421  1  0.76847796  0.08297310  0.46098293  1
  O  O422  1  0.76764950  0.08309328  0.71297949  1
  O  O423  1  0.76602342  0.08375108  0.96236169  1
  O  O424  1  0.76498971  0.41626763  0.21276986  1
  O  O425  1  0.76714283  0.41668352  0.46198265  1
  O  O426  1  0.76784970  0.41704914  0.70947114  1
  O  O427  1  0.76803000  0.41680649  0.96058133  1
  O  O428  1  0.76673582  0.75069168  0.21212939  1
  O  O429  1  0.76845802  0.75014688  0.46040012  1
  O  O430  1  0.76892601  0.74960730  0.71030927  1
  O  O431  1  0.76725801  0.74904250  0.96290258  1
  O  O432  1  0.01598593  0.08320930  0.16302408  1
  O  O433  1  0.01427926  0.08342993  0.41322059  1
  O  O434  1  0.01425478  0.08294979  0.66371342  1
  O  O435  1  0.01422150  0.08353320  0.91376333  1
  O  O436  1  0.01497628  0.41710753  0.16255254  1
  O  O437  1  0.01744306  0.41687124  0.41500360  1
  O  O438  1  0.01614503  0.41672543  0.66354596  1
  O  O439  1  0.01620251  0.41657607  0.91318062  1
  O  O440  1  0.01372384  0.75010417  0.16352818  1
  O  O441  1  0.01520905  0.74993663  0.41296494  1
  O  O442  1  0.01386244  0.75005213  0.66390415  1
  O  O443  1  0.01368935  0.75013741  0.91384574  1
  O  O444  1  0.51833458  0.08350781  0.16503373  1
  O  O445  1  0.51614820  0.08389770  0.41539849  1
  O  O446  1  0.51535423  0.08308198  0.66270099  1
  O  O447  1  0.51795919  0.08273355  0.91516299  1
  O  O448  1  0.51593066  0.41671372  0.16447974  1
  O  O449  1  0.51734138  0.41657956  0.41518809  1
  O  O450  1  0.51711930  0.41721047  0.66329011  1
  O  O451  1  0.51696618  0.41642147  0.91491559  1
  O  O452  1  0.51864570  0.74992222  0.16452464  1
  O  O453  1  0.51950827  0.74966532  0.41445777  1
  O  O454  1  0.51674053  0.75044137  0.66499320  1
  O  O455  1  0.51726709  0.75083809  0.91517742  1
  O  O456  1  0.48379993  0.24964079  0.08722122  1
  O  O457  1  0.48264894  0.25035780  0.33542917  1
  O  O458  1  0.48384641  0.25060231  0.58560216  1
  O  O459  1  0.48505418  0.24965128  0.83652495  1
  O  O460  1  0.48308649  0.58360495  0.08501340  1
  O  O461  1  0.48466814  0.58321465  0.33497376  1
  O  O462  1  0.48427883  0.58318669  0.58771706  1
  O  O463  1  0.48615730  0.58353052  0.83693632  1
  O  O464  1  0.48450864  0.91647110  0.08796412  1
  O  O465  1  0.48652347  0.91674395  0.33725841  1
  O  O466  1  0.48342106  0.91613546  0.58495327  1
  O  O467  1  0.48280670  0.91744161  0.83501266  1
  O  O468  1  0.98488355  0.24995393  0.08628723  1
  O  O469  1  0.98425848  0.25028863  0.33395157  1
  O  O470  1  0.98455626  0.25046748  0.58641995  1
  O  O471  1  0.98484067  0.24985098  0.83672664  1
  O  O472  1  0.98151266  0.58329574  0.08462870  1
  O  O473  1  0.98155263  0.58340060  0.33565093  1
  O  O474  1  0.98118305  0.58317366  0.58553514  1
  O  O475  1  0.98381695  0.58311558  0.83705711  1
  O  O476  1  0.98278416  0.91726005  0.08482187  1
  O  O477  1  0.98209453  0.91643804  0.33740450  1
  O  O478  1  0.98133911  0.91622285  0.58515730  1
  O  O479  1  0.98078466  0.91669877  0.83580941  1
  O  O480  1  0.08915376  0.31360957  0.07734129  1
  O  O481  1  0.08797438  0.31616167  0.32769609  1
  O  O482  1  0.08825185  0.31563598  0.57886672  1
  O  O483  1  0.08809072  0.31596254  0.82813163  1
  O  O484  1  0.08534786  0.64870010  0.07628674  1
  O  O485  1  0.08518090  0.64862464  0.32745115  1
  O  O486  1  0.08495008  0.64784441  0.57709875  1
  O  O487  1  0.08731603  0.64792060  0.82760907  1
  O  O488  1  0.08652417  0.98262543  0.07744136  1
  O  O489  1  0.08587084  0.98099327  0.32758304  1
  O  O490  1  0.08512991  0.98162733  0.57580670  1
  O  O491  1  0.08446527  0.98167631  0.82677369  1
  O  O492  1  0.58782905  0.31401419  0.07719966  1
  O  O493  1  0.58647953  0.31604368  0.32760810  1
  O  O494  1  0.58748798  0.31621279  0.57797296  1
  O  O495  1  0.58900854  0.31378218  0.82779217  1
  O  O496  1  0.58719983  0.64915573  0.07711109  1
  O  O497  1  0.58880914  0.64778236  0.32828107  1
  O  O498  1  0.58815773  0.64757103  0.57785341  1
  O  O499  1  0.59003649  0.64842582  0.82712772  1
  O  O500  1  0.58779801  0.98193979  0.07846830  1
  O  O501  1  0.59038522  0.98100746  0.32768975  1
  O  O502  1  0.58719619  0.98190236  0.57627956  1
  O  O503  1  0.58652504  0.98296168  0.82735001  1
  O  O504  1  0.41469851  0.01817878  0.17265730  1
  O  O505  1  0.41194649  0.01946174  0.42300213  1
  O  O506  1  0.41230137  0.01673335  0.67102433  1
  O  O507  1  0.41405259  0.01765145  0.92251808  1
  O  O508  1  0.41225636  0.35163288  0.17179386  1
  O  O509  1  0.41348104  0.35072128  0.42303813  1
  O  O510  1  0.41334698  0.35254196  0.67296885  1
  O  O511  1  0.41311269  0.35142796  0.92252174  1
  O  O512  1  0.41483156  0.68441438  0.17260886  1
  O  O513  1  0.41532712  0.68503511  0.42268413  1
  O  O514  1  0.41320759  0.68494847  0.67214139  1
  O  O515  1  0.41353891  0.68597892  0.92293962  1
  O  O516  1  0.91189270  0.01885113  0.17293011  1
  O  O517  1  0.91074464  0.01767995  0.42173320  1
  O  O518  1  0.91067019  0.01725073  0.67162506  1
  O  O519  1  0.91071339  0.01767952  0.92253957  1
  O  O520  1  0.91164152  0.35211998  0.17232946  1
  O  O521  1  0.91360511  0.35170517  0.42351285  1
  O  O522  1  0.91226043  0.35244976  0.67358382  1
  O  O523  1  0.91258064  0.35146547  0.92344592  1
  O  O524  1  0.91050282  0.68370751  0.17201257  1
  O  O525  1  0.91130226  0.68529465  0.42156857  1
  O  O526  1  0.91032718  0.68465371  0.67177746  1
  O  O527  1  0.90976508  0.68572839  0.92287535  1
  O  O528  1  0.16118296  0.01926403  0.20147996  1
  O  O529  1  0.16410904  0.01675819  0.45210539  1
  O  O530  1  0.16214976  0.01884494  0.70212014  1
  O  O531  1  0.16192123  0.01882799  0.95263192  1
  O  O532  1  0.16118820  0.35084289  0.20406293  1
  O  O533  1  0.16233658  0.35247366  0.45229022  1
  O  O534  1  0.16052710  0.35039366  0.70265019  1
  O  O535  1  0.16062425  0.35205234  0.95289999  1
  O  O536  1  0.16138849  0.68520958  0.20259563  1
  O  O537  1  0.16089382  0.68621203  0.45156004  1
  O  O538  1  0.16241529  0.68530472  0.70177733  1
  O  O539  1  0.16262302  0.68369657  0.95305755  1
  O  O540  1  0.66334743  0.01769633  0.20226733  1
  O  O541  1  0.66492578  0.01737510  0.45287924  1
  O  O542  1  0.66422395  0.01789504  0.70264837  1
  O  O543  1  0.66230272  0.01907870  0.95176702  1
  O  O544  1  0.66164429  0.35058881  0.20388791  1
  O  O545  1  0.66298026  0.35198964  0.45226588  1
  O  O546  1  0.66345521  0.35283163  0.70101420  1
  O  O547  1  0.66418352  0.35184143  0.95288876  1
  O  O548  1  0.66280644  0.68614946  0.20209945  1
  O  O549  1  0.66449169  0.68557590  0.45152379  1
  O  O550  1  0.66543946  0.68396838  0.70223759  1
  O  O551  1  0.66380393  0.68382848  0.95364028  1
  O  O552  1  0.33621240  0.31558677  0.04843549  1
  O  O553  1  0.33750850  0.31477373  0.29811502  1
  O  O554  1  0.33817178  0.31565674  0.54662358  1
  O  O555  1  0.33487571  0.31525723  0.79825480  1
  O  O556  1  0.33609215  0.64782436  0.04893493  1
  O  O557  1  0.33763763  0.64853122  0.29787066  1
  O  O558  1  0.33880909  0.64757770  0.54780016  1
  O  O559  1  0.33789258  0.64816749  0.79738679  1
  O  O560  1  0.33925206  0.98164965  0.04830746  1
  O  O561  1  0.33858051  0.98175018  0.29687504  1
  O  O562  1  0.33653524  0.98197878  0.54754196  1
  O  O563  1  0.33860562  0.98195849  0.79802719  1
  O  O564  1  0.83573277  0.31520235  0.04784665  1
  O  O565  1  0.83531916  0.31372966  0.29801041  1
  O  O566  1  0.83781522  0.31549535  0.54718063  1
  O  O567  1  0.83778067  0.31595883  0.79722910  1
  O  O568  1  0.83694569  0.64755425  0.04822876  1
  O  O569  1  0.83884516  0.64954430  0.29677745  1
  O  O570  1  0.84016689  0.64802869  0.54624221  1
  O  O571  1  0.83740887  0.64766345  0.79679374  1
  O  O572  1  0.83785962  0.98231469  0.04655825  1
  O  O573  1  0.83710570  0.98202534  0.29751326  1
  O  O574  1  0.83809923  0.98145882  0.54711301  1
  O  O575  1  0.83929716  0.98154628  0.79723778  1
  O  O576  1  0.41421252  0.14842268  0.17240507  1
  O  O577  1  0.41226289  0.14957832  0.42219608  1
  O  O578  1  0.41157105  0.14716994  0.67204406  1
  O  O579  1  0.41419677  0.14777302  0.92327602  1
  O  O580  1  0.41236051  0.48209685  0.17171094  1
  O  O581  1  0.41299575  0.48069153  0.42365370  1
  O  O582  1  0.41356947  0.48276056  0.67245249  1
  O  O583  1  0.41324585  0.48158930  0.92248682  1
  O  O584  1  0.41472816  0.81470748  0.17282470  1
  O  O585  1  0.41565474  0.81494740  0.42294986  1
  O  O586  1  0.41278704  0.81538341  0.67140562  1
  O  O587  1  0.41359785  0.81626735  0.92213312  1
  O  O588  1  0.91245759  0.14867518  0.17338249  1
  O  O589  1  0.91044592  0.14781552  0.42235311  1
  O  O590  1  0.91047472  0.14740527  0.67292415  1
  O  O591  1  0.91031776  0.14765879  0.92353206  1
  O  O592  1  0.91139166  0.48223486  0.17119711  1
  O  O593  1  0.91315218  0.48163445  0.42261370  1
  O  O594  1  0.91258682  0.48244224  0.67274972  1
  O  O595  1  0.91220099  0.48126249  0.92309769  1
  O  O596  1  0.90955069  0.81378747  0.17278997  1
  O  O597  1  0.91160977  0.81532193  0.42234008  1
  O  O598  1  0.91002983  0.81489284  0.67154546  1
  O  O599  1  0.91011245  0.81578258  0.92207710  1
  O  O600  1  0.08802936  0.18350560  0.07770122  1
  O  O601  1  0.08856054  0.18600796  0.32697011  1
  O  O602  1  0.08793013  0.18543454  0.57761393  1
  O  O603  1  0.08887976  0.18582260  0.82746146  1
  O  O604  1  0.08588459  0.51884649  0.07643584  1
  O  O605  1  0.08537715  0.51838869  0.32769055  1
  O  O606  1  0.08496455  0.51778490  0.57744446  1
  O  O607  1  0.08725035  0.51769855  0.82837570  1
  O  O608  1  0.08643892  0.85242920  0.07709493  1
  O  O609  1  0.08556893  0.85085507  0.32793061  1
  O  O610  1  0.08560827  0.85174083  0.57628300  1
  O  O611  1  0.08437219  0.85155661  0.82668960  1
  O  O612  1  0.58762189  0.18399462  0.07793000  1
  O  O613  1  0.58692262  0.18597016  0.32702161  1
  O  O614  1  0.58761073  0.18591889  0.57726538  1
  O  O615  1  0.58818126  0.18341438  0.82858135  1
  O  O616  1  0.58730953  0.51918002  0.07646154  1
  O  O617  1  0.58801012  0.51754662  0.32829623  1
  O  O618  1  0.58771427  0.51752503  0.57813015  1
  O  O619  1  0.58988773  0.51844341  0.82696069  1
  O  O620  1  0.58822163  0.85173004  0.07847670  1
  O  O621  1  0.59005783  0.85089377  0.32819576  1
  O  O622  1  0.58814252  0.85203405  0.57675141  1
  O  O623  1  0.58680959  0.85286051  0.82679616  1
  O  O624  1  0.33629824  0.18564792  0.04898661  1
  O  O625  1  0.33762235  0.18489983  0.29768047  1
  O  O626  1  0.33853994  0.18517591  0.54594359  1
  O  O627  1  0.33519279  0.18526013  0.79817574  1
  O  O628  1  0.33598164  0.51794195  0.04847456  1
  O  O629  1  0.33790351  0.51842279  0.29740076  1
  O  O630  1  0.33791877  0.51739964  0.54769729  1
  O  O631  1  0.33769579  0.51807149  0.79735274  1
  O  O632  1  0.33960430  0.85165937  0.04812653  1
  O  O633  1  0.33809888  0.85169787  0.29769300  1
  O  O634  1  0.33670838  0.85199376  0.54795241  1
  O  O635  1  0.33897737  0.85204517  0.79810762  1
  O  O636  1  0.83573229  0.18504046  0.04784083  1
  O  O637  1  0.83538122  0.18374052  0.29711229  1
  O  O638  1  0.83825123  0.18525499  0.54693311  1
  O  O639  1  0.83788837  0.18561149  0.79754567  1
  O  O640  1  0.83658531  0.51754421  0.04823308  1
  O  O641  1  0.83969975  0.51939296  0.29781724  1
  O  O642  1  0.83971351  0.51776852  0.54668199  1
  O  O643  1  0.83744057  0.51753154  0.79669581  1
  O  O644  1  0.83795565  0.85197282  0.04655316  1
  O  O645  1  0.83693399  0.85204400  0.29789555  1
  O  O646  1  0.83800429  0.85135642  0.54703871  1
  O  O647  1  0.83939604  0.85133540  0.79698169  1
  O  O648  1  0.16177498  0.14926036  0.20249020  1
  O  O649  1  0.16365210  0.14685805  0.45199585  1
  O  O650  1  0.16219988  0.14904899  0.70270346  1
  O  O651  1  0.16159184  0.14907553  0.95410948  1
  O  O652  1  0.16104096  0.48092186  0.20291424  1
  O  O653  1  0.16282597  0.48241951  0.45199261  1
  O  O654  1  0.15986317  0.48046881  0.70153866  1
  O  O655  1  0.16091138  0.48223887  0.95261848  1
  O  O656  1  0.16163550  0.81533993  0.20252880  1
  O  O657  1  0.16154912  0.81638077  0.45211173  1
  O  O658  1  0.16226421  0.81540178  0.70211430  1
  O  O659  1  0.16246973  0.81401601  0.95205458  1
  O  O660  1  0.66270346  0.14772609  0.20222542  1
  O  O661  1  0.66447764  0.14734580  0.45252814  1
  O  O662  1  0.66405780  0.14799149  0.70277522  1
  O  O663  1  0.66232282  0.14917413  0.95281811  1
  O  O664  1  0.66149964  0.48079699  0.20331229  1
  O  O665  1  0.66345898  0.48189904  0.45193544  1
  O  O666  1  0.66404925  0.48274097  0.70126000  1
  O  O667  1  0.66439237  0.48200866  0.95306031  1
  O  O668  1  0.66320187  0.81625780  0.20299538  1
  O  O669  1  0.66448044  0.81556622  0.45250203  1
  O  O670  1  0.66505039  0.81411200  0.70207088  1
  O  O671  1  0.66400256  0.81409262  0.95251882  1
