# generated using pymatgen
data_Na2MnFe(PO4)2
_symmetry_space_group_name_H-M   'P 1'
_cell_length_a   21.08124227
_cell_length_b   18.93298102
_cell_length_c   20.04086742
_cell_angle_alpha   89.99981372
_cell_angle_beta   89.99776046
_cell_angle_gamma   89.99961133
_symmetry_Int_Tables_number   1
_chemical_formula_structural   Na2MnFe(PO4)2
_chemical_formula_sum   'Na96 Mn48 Fe48 P96 O384'
_cell_volume   7998.92663230
_cell_formula_units_Z   48
loop_
 _symmetry_equiv_pos_site_id
 _symmetry_equiv_pos_as_xyz
  1  'x, y, z'
loop_
 _atom_site_type_symbol
 _atom_site_label
 _atom_site_symmetry_multiplicity
 _atom_site_fract_x
 _atom_site_fract_y
 _atom_site_fract_z
 _atom_site_occupancy
  Na  Na0  1  0.00117589  0.00009589  -0.00014915  1
  Na  Na1  1  0.00032687  0.00023569  0.24893446  1
  Na  Na2  1  -0.00117829  -0.00069559  0.50083695  1
  Na  Na3  1  0.00220337  0.00111307  0.75029756  1
  Na  Na4  1  -0.00075778  0.33347231  0.00052645  1
  Na  Na5  1  -0.00201100  0.33307322  0.25135187  1
  Na  Na6  1  -0.00006590  0.33343081  0.49943746  1
  Na  Na7  1  0.00065801  0.33316805  0.74909860  1
  Na  Na8  1  -0.00125816  0.66649454  0.00032105  1
  Na  Na9  1  -0.00030491  0.66718515  0.25042067  1
  Na  Na10  1  0.00244583  0.66794523  0.49905472  1
  Na  Na11  1  -0.00033968  0.66590775  0.74999898  1
  Na  Na12  1  0.49822802  -0.00065272  0.00065198  1
  Na  Na13  1  0.49925703  -0.00024597  0.24991094  1
  Na  Na14  1  0.49976056  -0.00011114  0.49927518  1
  Na  Na15  1  0.49974130  0.00000987  0.75003387  1
  Na  Na16  1  0.50090009  0.33413298  -0.00054479  1
  Na  Na17  1  0.50074132  0.33464643  0.24930063  1
  Na  Na18  1  0.49822163  0.33323328  0.50061158  1
  Na  Na19  1  0.49938260  0.33357184  0.75001764  1
  Na  Na20  1  0.50140255  0.66698893  0.00069837  1
  Na  Na21  1  0.49941866  0.66567968  0.24979502  1
  Na  Na22  1  0.49925124  0.66594571  0.49978474  1
  Na  Na23  1  0.50106931  0.66712568  0.75066938  1
  Na  Na24  1  0.25077380  -0.00044140  0.12462256  1
  Na  Na25  1  0.25133109  0.00033900  0.37599634  1
  Na  Na26  1  0.25015543  -0.00048639  0.62495342  1
  Na  Na27  1  0.25058854  -0.00014572  0.87416860  1
  Na  Na28  1  0.24846625  0.33248303  0.12489139  1
  Na  Na29  1  0.25114256  0.33390088  0.37525133  1
  Na  Na30  1  0.25095487  0.33342948  0.62449315  1
  Na  Na31  1  0.25202461  0.33451699  0.87455551  1
  Na  Na32  1  0.25067565  0.66679140  0.12641584  1
  Na  Na33  1  0.24899456  0.66594166  0.37352221  1
  Na  Na34  1  0.24882608  0.66592063  0.62404408  1
  Na  Na35  1  0.25043286  0.66699233  0.87627989  1
  Na  Na36  1  0.75033119  -0.00010033  0.12491119  1
  Na  Na37  1  0.75033923  -0.00016090  0.37592030  1
  Na  Na38  1  0.74868461  0.00045731  0.62454386  1
  Na  Na39  1  0.74905929  0.00040493  0.87460990  1
  Na  Na40  1  0.74954489  0.33350127  0.12456731  1
  Na  Na41  1  0.75078389  0.33427510  0.37554647  1
  Na  Na42  1  0.74918639  0.33316213  0.62471855  1
  Na  Na43  1  0.74961090  0.33355924  0.87512153  1
  Na  Na44  1  0.75047370  0.66682653  0.12543335  1
  Na  Na45  1  0.74963866  0.66625405  0.37475268  1
  Na  Na46  1  0.75031929  0.66725795  0.62589981  1
  Na  Na47  1  0.74964500  0.66674329  0.87447011  1
  Na  Na48  1  -0.00108579  0.16677956  0.00008420  1
  Na  Na49  1  -0.00191050  0.16716929  0.25024926  1
  Na  Na50  1  0.00016616  0.16589843  0.50040522  1
  Na  Na51  1  -0.00041926  0.16624759  0.74950825  1
  Na  Na52  1  -0.00116906  0.50001835  -0.00004961  1
  Na  Na53  1  -0.00156060  0.50042707  0.25166809  1
  Na  Na54  1  -0.00024283  0.49953076  0.49892156  1
  Na  Na55  1  0.00171478  0.49873492  0.74934049  1
  Na  Na56  1  0.00124940  0.83324186  0.00061975  1
  Na  Na57  1  0.00077505  0.83309043  0.24848587  1
  Na  Na58  1  0.00137597  0.83372711  0.50018593  1
  Na  Na59  1  0.00226408  0.83348326  0.75084177  1
  Na  Na60  1  0.49954963  0.16548511  0.00016399  1
  Na  Na61  1  0.49698291  0.16757699  0.24927320  1
  Na  Na62  1  0.49843024  0.16664253  0.49921174  1
  Na  Na63  1  0.49910898  0.16623365  0.75057819  1
  Na  Na64  1  0.50129083  0.49985342  -0.00011586  1
  Na  Na65  1  0.50110942  0.49974410  0.24904699  1
  Na  Na66  1  0.49962234  0.49944384  0.50030718  1
  Na  Na67  1  0.50007696  0.49923648  0.75072321  1
  Na  Na68  1  0.49979577  0.83464135  0.00083942  1
  Na  Na69  1  0.49931074  0.83432130  0.25048140  1
  Na  Na70  1  0.49968966  0.83440482  0.50019570  1
  Na  Na71  1  0.50107221  0.83418365  0.74938615  1
  Na  Na72  1  0.25258404  0.16523408  0.12507852  1
  Na  Na73  1  0.25142801  0.16627319  0.37610396  1
  Na  Na74  1  0.24984960  0.16670305  0.62472781  1
  Na  Na75  1  0.25065447  0.16636170  0.87369894  1
  Na  Na76  1  0.25190836  0.49894897  0.12536327  1
  Na  Na77  1  0.25034864  0.49989937  0.37445478  1
  Na  Na78  1  0.24980680  0.49993615  0.62402067  1
  Na  Na79  1  0.25152005  0.49929293  0.87618483  1
  Na  Na80  1  0.24796451  0.83439220  0.12484970  1
  Na  Na81  1  0.24941067  0.83392907  0.37442800  1
  Na  Na82  1  0.25112901  0.83379516  0.62446979  1
  Na  Na83  1  0.24963539  0.83469952  0.87567720  1
  Na  Na84  1  0.75027460  0.16646589  0.12460875  1
  Na  Na85  1  0.75185837  0.16546793  0.37577517  1
  Na  Na86  1  0.75067602  0.16615689  0.62507608  1
  Na  Na87  1  0.75105252  0.16551129  0.87442538  1
  Na  Na88  1  0.74855847  0.50012987  0.12544320  1
  Na  Na89  1  0.74948306  0.49918395  0.37470367  1
  Na  Na90  1  0.74829525  0.49906843  0.62532415  1
  Na  Na91  1  0.74737780  0.50018434  0.87500910  1
  Na  Na92  1  0.75190759  0.83282405  0.12488395  1
  Na  Na93  1  0.75056980  0.83377546  0.37554370  1
  Na  Na94  1  0.74816343  0.83495022  0.62509059  1
  Na  Na95  1  0.74948884  0.83381484  0.87488612  1
  Mn  Mn96  1  0.39194843  0.25043247  0.12719139  1
  Mn  Mn97  1  0.64202990  0.91639959  0.99796951  1
  Mn  Mn98  1  0.64205032  0.24952884  0.24833601  1
  Mn  Mn99  1  0.14201500  0.24934537  0.24856187  1
  Mn  Mn100  1  0.39298889  0.58439519  0.87784614  1
  Mn  Mn101  1  0.39233963  0.24941297  0.87757091  1
  Mn  Mn102  1  0.14277304  0.24990222  0.74756506  1
  Mn  Mn103  1  0.14238104  0.58316849  0.99880165  1
  Mn  Mn104  1  0.64226634  0.24963551  0.99725152  1
  Mn  Mn105  1  0.89170859  0.58381587  0.37794531  1
  Mn  Mn106  1  0.35831438  0.41583704  0.25221128  1
  Mn  Mn107  1  0.10839736  0.41591492  0.87316165  1
  Mn  Mn108  1  0.10721763  0.08270553  0.37286933  1
  Mn  Mn109  1  0.60768601  0.74944213  0.37226539  1
  Mn  Mn110  1  0.64159165  0.58362071  0.74755131  1
  Mn  Mn111  1  0.60700455  0.08359097  0.12309315  1
  Mn  Mn112  1  0.85763761  0.75085196  0.75246989  1
  Mn  Mn113  1  0.89279341  0.91714042  0.87684857  1
  Mn  Mn114  1  0.85814980  0.75004255  0.50270183  1
  Mn  Mn115  1  0.14229826  0.24932283  0.99746670  1
  Mn  Mn116  1  0.64190668  0.24905413  0.74759572  1
  Mn  Mn117  1  0.89235009  0.91655220  0.62778811  1
  Mn  Mn118  1  0.60714527  0.08422094  0.37248260  1
  Mn  Mn119  1  0.89156273  0.58274397  0.87742422  1
  Mn  Mn120  1  0.60835785  0.75026575  0.12327119  1
  Mn  Mn121  1  0.14243853  0.91660384  0.49713339  1
  Mn  Mn122  1  0.85713691  0.41703307  0.00230337  1
  Mn  Mn123  1  0.14209690  0.58323447  0.24689900  1
  Mn  Mn124  1  0.39147839  0.58345581  0.62771518  1
  Mn  Mn125  1  0.64156639  0.24956926  0.49760216  1
  Mn  Mn126  1  0.60767051  0.75021636  0.62212637  1
  Mn  Mn127  1  0.35803349  0.08382021  0.50287909  1
  Mn  Mn128  1  0.10886103  0.74974788  0.62262122  1
  Mn  Mn129  1  0.14240930  0.58348871  0.74793032  1
  Mn  Mn130  1  0.10705090  0.41655783  0.37270211  1
  Mn  Mn131  1  0.89293619  0.91626726  0.12692247  1
  Mn  Mn132  1  0.35731230  0.75042058  0.25234700  1
  Mn  Mn133  1  0.89288440  0.25001506  0.62694759  1
  Mn  Mn134  1  0.10815358  0.74996580  0.87295711  1
  Mn  Mn135  1  0.85772434  0.41613418  0.75171152  1
  Mn  Mn136  1  0.64167785  0.58367166  0.49766471  1
  Mn  Mn137  1  0.35836146  0.75017374  0.00292065  1
  Mn  Mn138  1  0.89168990  0.25110188  0.12742829  1
  Mn  Mn139  1  0.10857880  0.08399579  0.12226452  1
  Mn  Mn140  1  0.35855094  0.74997842  0.75293022  1
  Mn  Mn141  1  0.35746303  0.74939097  0.50166275  1
  Mn  Mn142  1  0.89302949  0.58321206  0.62670825  1
  Mn  Mn143  1  0.85790926  0.08300826  0.25248769  1
  Fe  Fe144  1  0.85728307  0.08313075  0.75190731  1
  Fe  Fe145  1  0.39244779  0.24939603  0.62670727  1
  Fe  Fe146  1  0.39223524  0.25079689  0.37696390  1
  Fe  Fe147  1  0.64268145  0.58372963  0.24837428  1
  Fe  Fe148  1  0.35740598  0.08344276  0.00089218  1
  Fe  Fe149  1  0.39322299  0.91642552  0.87641720  1
  Fe  Fe150  1  0.60802489  0.75075066  0.87378190  1
  Fe  Fe151  1  0.85732965  0.75021203  0.00125376  1
  Fe  Fe152  1  0.60609626  0.41575334  0.62324980  1
  Fe  Fe153  1  0.10758757  0.08396783  0.62343889  1
  Fe  Fe154  1  0.10715977  0.75070147  0.37264496  1
  Fe  Fe155  1  0.39289851  0.58305272  0.37616282  1
  Fe  Fe156  1  0.89262892  0.91696880  0.37651774  1
  Fe  Fe157  1  0.60668009  0.41623248  0.87300894  1
  Fe  Fe158  1  0.60762025  0.41657827  0.12315031  1
  Fe  Fe159  1  0.35816365  0.41660669  0.00235088  1
  Fe  Fe160  1  0.10850914  0.41610543  0.62226713  1
  Fe  Fe161  1  0.85634678  0.41710017  0.25152497  1
  Fe  Fe162  1  0.35738072  0.41695555  0.50150099  1
  Fe  Fe163  1  0.85698941  0.08335547  0.50242181  1
  Fe  Fe164  1  0.64283800  0.58398679  0.99875135  1
  Fe  Fe165  1  0.14290668  0.58259405  0.49773639  1
  Fe  Fe166  1  0.10652305  0.74883648  0.12295839  1
  Fe  Fe167  1  0.64290403  0.91624793  0.24901569  1
  Fe  Fe168  1  0.85754379  0.75002489  0.25187865  1
  Fe  Fe169  1  0.14273738  0.91731943  0.24864624  1
  Fe  Fe170  1  0.89267776  0.24973640  0.87626386  1
  Fe  Fe171  1  0.89190096  0.24922422  0.37772503  1
  Fe  Fe172  1  0.89166680  0.58312043  0.12664275  1
  Fe  Fe173  1  0.39191589  0.91591251  0.12757593  1
  Fe  Fe174  1  0.10771629  0.08381128  0.87314717  1
  Fe  Fe175  1  0.60719308  0.08302747  0.87313001  1
  Fe  Fe176  1  0.35742235  0.41674471  0.75145870  1
  Fe  Fe177  1  0.14403141  0.91683497  0.74843595  1
  Fe  Fe178  1  0.39344990  0.91729115  0.62690022  1
  Fe  Fe179  1  0.60676170  0.08407451  0.62357374  1
  Fe  Fe180  1  0.14369224  0.91722271  0.99801588  1
  Fe  Fe181  1  0.10653792  0.41737336  0.12384516  1
  Fe  Fe182  1  0.60679461  0.41639463  0.37369531  1
  Fe  Fe183  1  0.35747545  0.08321672  0.75157275  1
  Fe  Fe184  1  0.39388704  0.58375349  0.12640375  1
  Fe  Fe185  1  0.35725745  0.08290437  0.25169118  1
  Fe  Fe186  1  0.39271997  0.91622787  0.37655021  1
  Fe  Fe187  1  0.64193121  0.91749607  0.74849376  1
  Fe  Fe188  1  0.14339888  0.25046142  0.49802985  1
  Fe  Fe189  1  0.64258545  0.91691088  0.49794488  1
  Fe  Fe190  1  0.85646095  0.41655686  0.50232907  1
  Fe  Fe191  1  0.85748391  0.08266829  0.00080976  1
  P  P192  1  0.05322111  0.25131369  0.11038472  1
  P  P193  1  0.05258466  0.24957567  0.36141915  1
  P  P194  1  0.05489719  0.24973048  0.60943942  1
  P  P195  1  0.05245275  0.24898288  0.85975680  1
  P  P196  1  0.05147176  0.58294731  0.11053097  1
  P  P197  1  0.05452061  0.58400165  0.36095452  1
  P  P198  1  0.05476293  0.58220517  0.60864405  1
  P  P199  1  0.05312933  0.58297843  0.86013472  1
  P  P200  1  0.05599098  0.91598240  0.11045374  1
  P  P201  1  0.05259292  0.91643111  0.35903994  1
  P  P202  1  0.05527885  0.91775566  0.61146285  1
  P  P203  1  0.05607352  0.91794191  0.86080594  1
  P  P204  1  0.55325697  0.25047129  0.10982117  1
  P  P205  1  0.55127465  0.25094975  0.36002430  1
  P  P206  1  0.55168557  0.24936453  0.61022650  1
  P  P207  1  0.55329541  0.24948342  0.86009299  1
  P  P208  1  0.55499479  0.58305452  0.11077356  1
  P  P209  1  0.55280061  0.58207323  0.35944585  1
  P  P210  1  0.55270840  0.58232767  0.61002975  1
  P  P211  1  0.55500819  0.58372268  0.86179230  1
  P  P212  1  0.55308097  0.91679023  0.11160647  1
  P  P213  1  0.55378692  0.91688003  0.36046792  1
  P  P214  1  0.55416300  0.91844046  0.61045197  1
  P  P215  1  0.55313072  0.91709422  0.85992856  1
  P  P216  1  0.44401895  0.08227672  0.13935244  1
  P  P217  1  0.44476736  0.08322898  0.38870062  1
  P  P218  1  0.44693153  0.08336269  0.64004162  1
  P  P219  1  0.44617859  0.08204032  0.88918886  1
  P  P220  1  0.44700095  0.41768241  0.13852817  1
  P  P221  1  0.44688922  0.41706510  0.39037805  1
  P  P222  1  0.44544500  0.41581249  0.63936312  1
  P  P223  1  0.44597045  0.41674722  0.88951921  1
  P  P224  1  0.44681251  0.74999222  0.14032794  1
  P  P225  1  0.44660951  0.74972401  0.38974860  1
  P  P226  1  0.44669775  0.75090625  0.63993449  1
  P  P227  1  0.44869364  0.75143893  0.89040884  1
  P  P228  1  0.94584979  0.08325168  0.13866045  1
  P  P229  1  0.94546484  0.08263056  0.39077185  1
  P  P230  1  0.94613229  0.08325393  0.63978199  1
  P  P231  1  0.94641505  0.08382102  0.88915438  1
  P  P232  1  0.94641004  0.41792962  0.14110539  1
  P  P233  1  0.94367828  0.41593242  0.38959791  1
  P  P234  1  0.94746794  0.41648547  0.63842083  1
  P  P235  1  0.94661773  0.41529720  0.88980676  1
  P  P236  1  0.94533262  0.74900505  0.13919701  1
  P  P237  1  0.94650506  0.75144929  0.38872566  1
  P  P238  1  0.94756494  0.75019123  0.64040417  1
  P  P239  1  0.94628626  0.75049266  0.89086740  1
  P  P240  1  0.19791483  0.08256428  0.23543711  1
  P  P241  1  0.19571152  0.08431409  0.48616612  1
  P  P242  1  0.19647475  0.08275467  0.73545514  1
  P  P243  1  0.19778814  0.08270137  0.98397838  1
  P  P244  1  0.19603688  0.41630680  0.23440924  1
  P  P245  1  0.19669895  0.41620524  0.48557331  1
  P  P246  1  0.19760330  0.41650285  0.73421765  1
  P  P247  1  0.19721336  0.41671362  0.98651509  1
  P  P248  1  0.19429935  0.75124430  0.23536717  1
  P  P249  1  0.19599508  0.74917115  0.48347906  1
  P  P250  1  0.19764269  0.75104618  0.73515561  1
  P  P251  1  0.19579747  0.75034917  0.98674511  1
  P  P252  1  0.69657805  0.08240827  0.23521565  1
  P  P253  1  0.69595656  0.08296371  0.48628474  1
  P  P254  1  0.69563423  0.08273455  0.73532564  1
  P  P255  1  0.69693723  0.08306232  0.98431759  1
  P  P256  1  0.69535252  0.41701627  0.23594463  1
  P  P257  1  0.69511501  0.41622328  0.48554048  1
  P  P258  1  0.69429442  0.41586318  0.73518890  1
  P  P259  1  0.69437671  0.41752483  0.98564596  1
  P  P260  1  0.69794983  0.75043992  0.23546148  1
  P  P261  1  0.69672157  0.75095542  0.48479972  1
  P  P262  1  0.69502732  0.75151443  0.73608356  1
  P  P263  1  0.69750556  0.74939771  0.98490009  1
  P  P264  1  0.30360940  0.24973505  0.01460422  1
  P  P265  1  0.30383323  0.24911622  0.26584179  1
  P  P266  1  0.30456631  0.25102146  0.51454056  1
  P  P267  1  0.30506304  0.24987188  0.76336827  1
  P  P268  1  0.30465065  0.58293883  0.01635774  1
  P  P269  1  0.30533162  0.58312760  0.26422445  1
  P  P270  1  0.30350477  0.58248949  0.51312958  1
  P  P271  1  0.30334842  0.58247098  0.76556765  1
  P  P272  1  0.30468052  0.91749550  0.01415435  1
  P  P273  1  0.30369278  0.91718526  0.26459336  1
  P  P274  1  0.30551106  0.91660617  0.51457454  1
  P  P275  1  0.30491593  0.91760796  0.76428748  1
  P  P276  1  0.80450928  0.24897510  0.01343762  1
  P  P277  1  0.80366586  0.25090772  0.26587616  1
  P  P278  1  0.80422278  0.24988128  0.51414317  1
  P  P279  1  0.80404962  0.24910498  0.76522524  1
  P  P280  1  0.80238987  0.58386875  0.01560652  1
  P  P281  1  0.80332955  0.58324900  0.26380987  1
  P  P282  1  0.80280823  0.58235071  0.51539559  1
  P  P283  1  0.80303383  0.58283188  0.76483280  1
  P  P284  1  0.80367942  0.91697900  0.01452974  1
  P  P285  1  0.80317422  0.91588669  0.26552091  1
  P  P286  1  0.80352293  0.91753737  0.51426625  1
  P  P287  1  0.80193455  0.91809397  0.76486904  1
  O  O288  1  0.05612958  0.25004316  0.18714449  1
  O  O289  1  0.05828434  0.24980727  0.43806083  1
  O  O290  1  0.05755828  0.24978526  0.68590423  1
  O  O291  1  0.05602605  0.24958062  0.93660387  1
  O  O292  1  0.05507494  0.58322562  0.18721561  1
  O  O293  1  0.05911210  0.58299897  0.43766937  1
  O  O294  1  0.05727375  0.58256083  0.68550340  1
  O  O295  1  0.05645074  0.58315156  0.93691832  1
  O  O296  1  0.05957504  0.91746324  0.18721537  1
  O  O297  1  0.05637564  0.91708100  0.43584704  1
  O  O298  1  0.05974328  0.91721198  0.68816250  1
  O  O299  1  0.05997994  0.91727502  0.93761315  1
  O  O300  1  0.55620083  0.24995247  0.18664244  1
  O  O301  1  0.55508215  0.24999461  0.43667240  1
  O  O302  1  0.55536469  0.24931119  0.68691032  1
  O  O303  1  0.55611981  0.24919071  0.93684239  1
  O  O304  1  0.55956383  0.58379328  0.18755018  1
  O  O305  1  0.55621956  0.58297638  0.43615138  1
  O  O306  1  0.55582659  0.58297491  0.68684280  1
  O  O307  1  0.55865109  0.58399084  0.93855903  1
  O  O308  1  0.55860086  0.91661395  0.18823611  1
  O  O309  1  0.55876435  0.91685982  0.43713786  1
  O  O310  1  0.55861435  0.91780377  0.68719184  1
  O  O311  1  0.55628591  0.91742212  0.93669712  1
  O  O312  1  0.44046027  0.08285504  0.06255055  1
  O  O313  1  0.44117079  0.08303225  0.31161177  1
  O  O314  1  0.44372210  0.08334854  0.56378473  1
  O  O315  1  0.44144247  0.08296962  0.81248231  1
  O  O316  1  0.44228143  0.41683822  0.06195035  1
  O  O317  1  0.44393749  0.41689847  0.31334836  1
  O  O318  1  0.44082189  0.41682240  0.56269721  1
  O  O319  1  0.44115282  0.41673543  0.81278206  1
  O  O320  1  0.44439259  0.75033139  0.06357193  1
  O  O321  1  0.44368947  0.74996850  0.31296040  1
  O  O322  1  0.44349561  0.75003521  0.56319352  1
  O  O323  1  0.44497067  0.75071389  0.81368712  1
  O  O324  1  0.94151042  0.08274858  0.06196112  1
  O  O325  1  0.94301506  0.08285469  0.31392620  1
  O  O326  1  0.94086353  0.08285148  0.56309278  1
  O  O327  1  0.94175728  0.08271384  0.81245192  1
  O  O328  1  0.94276121  0.41723698  0.06432633  1
  O  O329  1  0.93943167  0.41692283  0.31285585  1
  O  O330  1  0.94182050  0.41655133  0.56180333  1
  O  O331  1  0.94374272  0.41598637  0.81306019  1
  O  O332  1  0.94044387  0.74983100  0.06250331  1
  O  O333  1  0.94146013  0.75055256  0.31202327  1
  O  O334  1  0.94427090  0.75075637  0.56354632  1
  O  O335  1  0.94323038  0.75074017  0.81404421  1
  O  O336  1  0.19436489  0.08344179  0.06085098  1
  O  O337  1  0.19405141  0.08308539  0.31209660  1
  O  O338  1  0.19162296  0.08348846  0.56312928  1
  O  O339  1  0.19194781  0.08374847  0.81212247  1
  O  O340  1  0.19144281  0.41686780  0.06308392  1
  O  O341  1  0.19261626  0.41680027  0.31115763  1
  O  O342  1  0.19248443  0.41622869  0.56227790  1
  O  O343  1  0.19402687  0.41631030  0.81104152  1
  O  O344  1  0.19133869  0.74909103  0.06348241  1
  O  O345  1  0.19037234  0.75038986  0.31216217  1
  O  O346  1  0.19371839  0.75020284  0.56034302  1
  O  O347  1  0.19465260  0.75060282  0.81195977  1
  O  O348  1  0.69279326  0.08329605  0.06102828  1
  O  O349  1  0.69339037  0.08320482  0.31202398  1
  O  O350  1  0.69088483  0.08413344  0.56292096  1
  O  O351  1  0.69061324  0.08342616  0.81200575  1
  O  O352  1  0.69068951  0.41639586  0.06251115  1
  O  O353  1  0.69068498  0.41630657  0.31266451  1
  O  O354  1  0.68968845  0.41574871  0.56222906  1
  O  O355  1  0.68989839  0.41580636  0.81199577  1
  O  O356  1  0.69401105  0.75017756  0.06163966  1
  O  O357  1  0.69409711  0.75033458  0.31213089  1
  O  O358  1  0.69349072  0.75041601  0.56160947  1
  O  O359  1  0.69102138  0.75082839  0.81287966  1
  O  O360  1  0.30668362  0.25030865  0.18905160  1
  O  O361  1  0.30913558  0.25044242  0.43778150  1
  O  O362  1  0.30865694  0.24943933  0.68649353  1
  O  O363  1  0.30639026  0.25021726  0.93779065  1
  O  O364  1  0.31025986  0.58317907  0.18756801  1
  O  O365  1  0.30845550  0.58307641  0.43647612  1
  O  O366  1  0.30579724  0.58332310  0.68870539  1
  O  O367  1  0.30764984  0.58375315  0.93951928  1
  O  O368  1  0.30791931  0.91605987  0.18781117  1
  O  O369  1  0.30977225  0.91651370  0.43771447  1
  O  O370  1  0.30958029  0.91701435  0.68760512  1
  O  O371  1  0.30943588  0.91641089  0.93745500  1
  O  O372  1  0.80623892  0.25039581  0.18897940  1
  O  O373  1  0.80799678  0.24967435  0.43738619  1
  O  O374  1  0.80711513  0.25000278  0.68839918  1
  O  O375  1  0.80843854  0.24977352  0.93670535  1
  O  O376  1  0.80774867  0.58310878  0.18713390  1
  O  O377  1  0.80564489  0.58293764  0.43852689  1
  O  O378  1  0.80659158  0.58253012  0.68807060  1
  O  O379  1  0.80574064  0.58292172  0.93885256  1
  O  O380  1  0.80714416  0.91648730  0.18883338  1
  O  O381  1  0.80846216  0.91684247  0.43765249  1
  O  O382  1  0.80568320  0.91761121  0.68816590  1
  O  O383  1  0.80650192  0.91717743  0.93779366  1
  O  O384  1  0.23410018  0.24906005  0.04029096  1
  O  O385  1  0.23424334  0.25000065  0.29125893  1
  O  O386  1  0.23418466  0.25030282  0.53824534  1
  O  O387  1  0.23536586  0.25008345  0.78827061  1
  O  O388  1  0.23493659  0.58312254  0.04150095  1
  O  O389  1  0.23501860  0.58306476  0.28736707  1
  O  O390  1  0.23319527  0.58263966  0.53692203  1
  O  O391  1  0.23398908  0.58289875  0.79159410  1
  O  O392  1  0.23422386  0.91706928  0.03767083  1
  O  O393  1  0.23341719  0.91688929  0.28862461  1
  O  O394  1  0.23521399  0.91667629  0.53803340  1
  O  O395  1  0.23455351  0.91740369  0.78798869  1
  O  O396  1  0.73459430  0.24954272  0.03810237  1
  O  O397  1  0.73400266  0.24975222  0.29132330  1
  O  O398  1  0.73431927  0.24981221  0.53880713  1
  O  O399  1  0.73427207  0.24931419  0.79011518  1
  O  O400  1  0.73235311  0.58351936  0.04030201  1
  O  O401  1  0.73297850  0.58325036  0.28790735  1
  O  O402  1  0.73323993  0.58292897  0.54082283  1
  O  O403  1  0.73324165  0.58324434  0.78955064  1
  O  O404  1  0.73404452  0.91662199  0.04002755  1
  O  O405  1  0.73300263  0.91648087  0.28992307  1
  O  O406  1  0.73315001  0.91755532  0.53797911  1
  O  O407  1  0.73194913  0.91769756  0.78955867  1
  O  O408  1  0.26788636  0.08253075  0.21071279  1
  O  O409  1  0.26553298  0.08379975  0.46229061  1
  O  O410  1  0.26691333  0.08310131  0.71165798  1
  O  O411  1  0.26783480  0.08309503  0.95942503  1
  O  O412  1  0.26611852  0.41591978  0.21014550  1
  O  O413  1  0.26691460  0.41647617  0.46131667  1
  O  O414  1  0.26773599  0.41646285  0.70977984  1
  O  O415  1  0.26773490  0.41692619  0.96328233  1
  O  O416  1  0.26447811  0.75061552  0.21147105  1
  O  O417  1  0.26558717  0.74984523  0.45795799  1
  O  O418  1  0.26715916  0.75041685  0.70951930  1
  O  O419  1  0.26585374  0.75065700  0.96252841  1
  O  O420  1  0.76625264  0.08292349  0.21009416  1
  O  O421  1  0.76636894  0.08301809  0.46281341  1
  O  O422  1  0.76606647  0.08344866  0.71188411  1
  O  O423  1  0.76711510  0.08279272  0.96016378  1
  O  O424  1  0.76575615  0.41680280  0.21213960  1
  O  O425  1  0.76562122  0.41633101  0.46249984  1
  O  O426  1  0.76444975  0.41566430  0.71139722  1
  O  O427  1  0.76441877  0.41696133  0.96137899  1
  O  O428  1  0.76799488  0.75013011  0.21082181  1
  O  O429  1  0.76639469  0.75019016  0.45972517  1
  O  O430  1  0.76494199  0.75127545  0.71152315  1
  O  O431  1  0.76756911  0.75012098  0.96025359  1
  O  O432  1  0.01596654  0.08369383  0.16283568  1
  O  O433  1  0.01513242  0.08261673  0.41616061  1
  O  O434  1  0.01670016  0.08404971  0.66275776  1
  O  O435  1  0.01675812  0.08335511  0.91305014  1
  O  O436  1  0.01632971  0.41710749  0.16601816  1
  O  O437  1  0.01397987  0.41651352  0.41313146  1
  O  O438  1  0.01795076  0.41579773  0.66158826  1
  O  O439  1  0.01620193  0.41607515  0.91535209  1
  O  O440  1  0.01584791  0.74960425  0.16248854  1
  O  O441  1  0.01687726  0.75104373  0.41234843  1
  O  O442  1  0.01727094  0.74976751  0.66534824  1
  O  O443  1  0.01603954  0.75026135  0.91575721  1
  O  O444  1  0.51395627  0.08331164  0.16391572  1
  O  O445  1  0.51465983  0.08315547  0.41331987  1
  O  O446  1  0.51700310  0.08339207  0.66512984  1
  O  O447  1  0.51655286  0.08241511  0.91293718  1
  O  O448  1  0.51730156  0.41737934  0.16238508  1
  O  O449  1  0.51684303  0.41666283  0.41522676  1
  O  O450  1  0.51585500  0.41613914  0.66309197  1
  O  O451  1  0.51650529  0.41669329  0.91269071  1
  O  O452  1  0.51629813  0.75020604  0.16610844  1
  O  O453  1  0.51619439  0.74989953  0.41526947  1
  O  O454  1  0.51639437  0.75066501  0.66500951  1
  O  O455  1  0.51864447  0.75128883  0.91531346  1
  O  O456  1  0.48363731  0.25017192  0.08449412  1
  O  O457  1  0.48127636  0.25120530  0.33527602  1
  O  O458  1  0.48166516  0.24934846  0.58551515  1
  O  O459  1  0.48365743  0.24975472  0.83476499  1
  O  O460  1  0.48466104  0.58355476  0.08699740  1
  O  O461  1  0.48273702  0.58255271  0.33482967  1
  O  O462  1  0.48302289  0.58263810  0.58497320  1
  O  O463  1  0.48513330  0.58331394  0.83688053  1
  O  O464  1  0.48264601  0.91654406  0.08831093  1
  O  O465  1  0.48322555  0.91686459  0.33730001  1
  O  O466  1  0.48374440  0.91776174  0.58685084  1
  O  O467  1  0.48311725  0.91707825  0.83503213  1
  O  O468  1  0.98358109  0.25065058  0.08514656  1
  O  O469  1  0.98209197  0.24950438  0.33835971  1
  O  O470  1  0.98510503  0.24975527  0.58417118  1
  O  O471  1  0.98260528  0.24930051  0.83467330  1
  O  O472  1  0.98151983  0.58327984  0.08560914  1
  O  O473  1  0.98428337  0.58375200  0.33734309  1
  O  O474  1  0.98519469  0.58345341  0.58301631  1
  O  O475  1  0.98347198  0.58259103  0.83496705  1
  O  O476  1  0.98592906  0.91634166  0.08617888  1
  O  O477  1  0.98259334  0.91693984  0.33441051  1
  O  O478  1  0.98524947  0.91705068  0.58729028  1
  O  O479  1  0.98601041  0.91735041  0.83654370  1
  O  O480  1  0.08687611  0.31689469  0.07846967  1
  O  O481  1  0.08565530  0.31455920  0.32782802  1
  O  O482  1  0.08925813  0.31465344  0.57663834  1
  O  O483  1  0.08670822  0.31389506  0.82720985  1
  O  O484  1  0.08572484  0.64783984  0.07777452  1
  O  O485  1  0.08769856  0.64923114  0.32798917  1
  O  O486  1  0.08992603  0.64691364  0.57653837  1
  O  O487  1  0.08697281  0.64824441  0.82765817  1
  O  O488  1  0.09002349  0.98069666  0.07684395  1
  O  O489  1  0.08687885  0.98137214  0.32622371  1
  O  O490  1  0.08834431  0.98318834  0.57838834  1
  O  O491  1  0.08949527  0.98323402  0.82798908  1
  O  O492  1  0.58742088  0.31558312  0.07779560  1
  O  O493  1  0.58542491  0.31601532  0.32781379  1
  O  O494  1  0.58545950  0.31443682  0.57746400  1
  O  O495  1  0.58741035  0.31459128  0.82788234  1
  O  O496  1  0.58865721  0.64801009  0.07744619  1
  O  O497  1  0.58712624  0.64685224  0.32636492  1
  O  O498  1  0.58683498  0.64737936  0.57745013  1
  O  O499  1  0.58831919  0.64908991  0.82895987  1
  O  O500  1  0.58595495  0.98185120  0.07789006  1
  O  O501  1  0.58705966  0.98180629  0.32689065  1
  O  O502  1  0.58715966  0.98378266  0.57734170  1
  O  O503  1  0.58712374  0.98205811  0.82696221  1
  O  O504  1  0.41066116  0.01696148  0.17225407  1
  O  O505  1  0.41110487  0.01825600  0.42147442  1
  O  O506  1  0.41289098  0.01830707  0.67305604  1
  O  O507  1  0.41283167  0.01688765  0.92218156  1
  O  O508  1  0.41362110  0.35271173  0.17219668  1
  O  O509  1  0.41238812  0.35231875  0.42286831  1
  O  O510  1  0.41234782  0.35043302  0.67228827  1
  O  O511  1  0.41269534  0.35166304  0.92291438  1
  O  O512  1  0.41269026  0.68467470  0.17220773  1
  O  O513  1  0.41268890  0.68425726  0.42177763  1
  O  O514  1  0.41264291  0.68592199  0.67275009  1
  O  O515  1  0.41470544  0.68649966  0.92327229  1
  O  O516  1  0.91269342  0.01811221  0.17203546  1
  O  O517  1  0.91132243  0.01733330  0.42288545  1
  O  O518  1  0.91329064  0.01827586  0.67378974  1
  O  O519  1  0.91274687  0.01903373  0.92294886  1
  O  O520  1  0.91174196  0.35321635  0.17382682  1
  O  O521  1  0.91053578  0.35066144  0.42260819  1
  O  O522  1  0.91392593  0.35159847  0.67187067  1
  O  O523  1  0.91282017  0.34989096  0.92193618  1
  O  O524  1  0.91221495  0.68388410  0.17259024  1
  O  O525  1  0.91312506  0.68650101  0.42236360  1
  O  O526  1  0.91317264  0.68510722  0.67228543  1
  O  O527  1  0.91175858  0.68555176  0.92315959  1
  O  O528  1  0.16401323  0.01760988  0.20268588  1
  O  O529  1  0.16198591  0.01942103  0.45285237  1
  O  O530  1  0.16315946  0.01752465  0.70244978  1
  O  O531  1  0.16393488  0.01756494  0.95167212  1
  O  O532  1  0.16178710  0.35134635  0.20217915  1
  O  O533  1  0.16340040  0.35084914  0.45254160  1
  O  O534  1  0.16369208  0.35158209  0.70140452  1
  O  O535  1  0.16444781  0.35149677  0.95269291  1
  O  O536  1  0.16038362  0.68640213  0.20190680  1
  O  O537  1  0.16188278  0.68391811  0.45164954  1
  O  O538  1  0.16317824  0.68602505  0.70291166  1
  O  O539  1  0.16252402  0.68529196  0.95325650  1
  O  O540  1  0.66274223  0.01706113  0.20311130  1
  O  O541  1  0.66268968  0.01781459  0.45320558  1
  O  O542  1  0.66239610  0.01758883  0.70215410  1
  O  O543  1  0.66289470  0.01805556  0.95163059  1
  O  O544  1  0.66189954  0.35209591  0.20229714  1
  O  O545  1  0.66189643  0.35130462  0.45170788  1
  O  O546  1  0.66064729  0.35088458  0.70189024  1
  O  O547  1  0.66033692  0.35287504  0.95212763  1
  O  O548  1  0.66394004  0.68542950  0.20282867  1
  O  O549  1  0.66230208  0.68599567  0.45234973  1
  O  O550  1  0.66131779  0.68652643  0.70288996  1
  O  O551  1  0.66379516  0.68415959  0.95252155  1
  O  O552  1  0.33762095  0.31480648  0.04728265  1
  O  O553  1  0.33868011  0.31393731  0.29843855  1
  O  O554  1  0.33776631  0.31631289  0.54742755  1
  O  O555  1  0.33890368  0.31509447  0.79583642  1
  O  O556  1  0.33903572  0.64793062  0.04886672  1
  O  O557  1  0.33865792  0.64808591  0.29777276  1
  O  O558  1  0.33664587  0.64749849  0.54688508  1
  O  O559  1  0.33801787  0.64738116  0.79795771  1
  O  O560  1  0.33766514  0.98288437  0.04702945  1
  O  O561  1  0.33724364  0.98227627  0.29744305  1
  O  O562  1  0.33896855  0.98143978  0.54791997  1
  O  O563  1  0.33819575  0.98285451  0.79735936  1
  O  O564  1  0.83813068  0.31403027  0.04674822  1
  O  O565  1  0.83733542  0.31631798  0.29788432  1
  O  O566  1  0.83782950  0.31514813  0.54695844  1
  O  O567  1  0.83839223  0.31387026  0.79805519  1
  O  O568  1  0.83637122  0.64903590  0.04789162  1
  O  O569  1  0.83677934  0.64837035  0.29700460  1
  O  O570  1  0.83732533  0.64739329  0.54744650  1
  O  O571  1  0.83710752  0.64792717  0.79718727  1
  O  O572  1  0.83770143  0.98214133  0.04694408  1
  O  O573  1  0.83727453  0.98071515  0.29859761  1
  O  O574  1  0.83682146  0.98267914  0.54752518  1
  O  O575  1  0.83578918  0.98327370  0.79736737  1
  O  O576  1  0.40962918  0.14699368  0.17233123  1
  O  O577  1  0.41131083  0.14854624  0.42121699  1
  O  O578  1  0.41270552  0.14833170  0.67296860  1
  O  O579  1  0.41250447  0.14684055  0.92283671  1
  O  O580  1  0.41385615  0.48277857  0.17180511  1
  O  O581  1  0.41303055  0.48230538  0.42271885  1
  O  O582  1  0.41188270  0.48057173  0.67319667  1
  O  O583  1  0.41276340  0.48163905  0.92313663  1
  O  O584  1  0.41213366  0.81489638  0.17257739  1
  O  O585  1  0.41236447  0.81477168  0.42199469  1
  O  O586  1  0.41301623  0.81630953  0.67212181  1
  O  O587  1  0.41466742  0.81656884  0.92267549  1
  O  O588  1  0.91201992  0.14817544  0.17158754  1
  O  O589  1  0.91099180  0.14755420  0.42322687  1
  O  O590  1  0.91244806  0.14815739  0.67293119  1
  O  O591  1  0.91295207  0.14908325  0.92194525  1
  O  O592  1  0.91252290  0.48321889  0.17342952  1
  O  O593  1  0.90999028  0.48079808  0.42312397  1
  O  O594  1  0.91466283  0.48160729  0.67212745  1
  O  O595  1  0.91192838  0.48004531  0.92246095  1
  O  O596  1  0.91194961  0.81394711  0.17291990  1
  O  O597  1  0.91357285  0.81678704  0.42187151  1
  O  O598  1  0.91372370  0.81527447  0.67317762  1
  O  O599  1  0.91231327  0.81562518  0.92342595  1
  O  O600  1  0.08771225  0.18653357  0.07746128  1
  O  O601  1  0.08560118  0.18445546  0.32782513  1
  O  O602  1  0.08908181  0.18446937  0.57703307  1
  O  O603  1  0.08643803  0.18382516  0.82745058  1
  O  O604  1  0.08523063  0.51761421  0.07805818  1
  O  O605  1  0.08785123  0.51900803  0.32745501  1
  O  O606  1  0.08858904  0.51681385  0.57636747  1
  O  O607  1  0.08753539  0.51803597  0.82784188  1
  O  O608  1  0.08943468  0.85048617  0.07819340  1
  O  O609  1  0.08667933  0.85147565  0.32652402  1
  O  O610  1  0.08907563  0.85295359  0.57799563  1
  O  O611  1  0.09022395  0.85319558  0.82759956  1
  O  O612  1  0.58738182  0.18537813  0.07738196  1
  O  O613  1  0.58486452  0.18586120  0.32689630  1
  O  O614  1  0.58548899  0.18426324  0.57743133  1
  O  O615  1  0.58712373  0.18422871  0.82763794  1
  O  O616  1  0.58832921  0.51801324  0.07772089  1
  O  O617  1  0.58665059  0.51682791  0.32716565  1
  O  O618  1  0.58663136  0.51713361  0.57786092  1
  O  O619  1  0.58872100  0.51853258  0.82907420  1
  O  O620  1  0.58644276  0.85184517  0.07807390  1
  O  O621  1  0.58707623  0.85187862  0.32687233  1
  O  O622  1  0.58795054  0.85368488  0.57684409  1
  O  O623  1  0.58726900  0.85205304  0.82752326  1
  O  O624  1  0.33809543  0.18447529  0.04615896  1
  O  O625  1  0.33768280  0.18373042  0.29775123  1
  O  O626  1  0.33830042  0.18632447  0.54811141  1
  O  O627  1  0.33873632  0.18464346  0.79620527  1
  O  O628  1  0.33909617  0.51788752  0.04835860  1
  O  O629  1  0.33873601  0.51807007  0.29769268  1
  O  O630  1  0.33676012  0.51738267  0.54641752  1
  O  O631  1  0.33755729  0.51706843  0.79709428  1
  O  O632  1  0.33819044  0.85283864  0.04830118  1
  O  O633  1  0.33744808  0.85236619  0.29813425  1
  O  O634  1  0.33896125  0.85153415  0.54768189  1
  O  O635  1  0.33836656  0.85283116  0.79826777  1
  O  O636  1  0.83792701  0.18361618  0.04599795  1
  O  O637  1  0.83871332  0.18617491  0.29814792  1
  O  O638  1  0.83801496  0.18478108  0.54700039  1
  O  O639  1  0.83818556  0.18378196  0.79719696  1
  O  O640  1  0.83647737  0.51899936  0.04873927  1
  O  O641  1  0.83653896  0.51818738  0.29714747  1
  O  O642  1  0.83672840  0.51696671  0.54742802  1
  O  O643  1  0.83653007  0.51757294  0.79758924  1
  O  O644  1  0.83795553  0.85186001  0.04674668  1
  O  O645  1  0.83688323  0.85071039  0.29820556  1
  O  O646  1  0.83669609  0.85248019  0.54793693  1
  O  O647  1  0.83614231  0.85329026  0.79766827  1
  O  O648  1  0.16430164  0.14774818  0.20244742  1
  O  O649  1  0.16236655  0.14965740  0.45339800  1
  O  O650  1  0.16283617  0.14750179  0.70183064  1
  O  O651  1  0.16355004  0.14749461  0.95103402  1
  O  O652  1  0.16229670  0.48130861  0.20131321  1
  O  O653  1  0.16298798  0.48103860  0.45230033  1
  O  O654  1  0.16362669  0.48153602  0.70160181  1
  O  O655  1  0.16404313  0.48170332  0.95291043  1
  O  O656  1  0.16100206  0.81652379  0.20279528  1
  O  O657  1  0.16124720  0.81408693  0.45108202  1
  O  O658  1  0.16376575  0.81633532  0.70290461  1
  O  O659  1  0.16226340  0.81563101  0.95413296  1
  O  O660  1  0.66233542  0.14743690  0.20271613  1
  O  O661  1  0.66279386  0.14789675  0.45234354  1
  O  O662  1  0.66195576  0.14751411  0.70148670  1
  O  O663  1  0.66317030  0.14791455  0.95104088  1
  O  O664  1  0.66205078  0.48224157  0.20292058  1
  O  O665  1  0.66186331  0.48123063  0.45200449  1
  O  O666  1  0.66062995  0.48083076  0.70206426  1
  O  O667  1  0.66101706  0.48299502  0.95335446  1
  O  O668  1  0.66435164  0.81566944  0.20267098  1
  O  O669  1  0.66293029  0.81629079  0.45267627  1
  O  O670  1  0.66148863  0.81685728  0.70355617  1
  O  O671  1  0.66307541  0.81417932  0.95206923  1
