# generated using pymatgen
data_Na2MnFe(PO4)2
_symmetry_space_group_name_H-M   'P 1'
_cell_length_a   21.09070174
_cell_length_b   18.94374504
_cell_length_c   20.04895923
_cell_angle_alpha   90.00035782
_cell_angle_beta   89.99633709
_cell_angle_gamma   90.00210718
_symmetry_Int_Tables_number   1
_chemical_formula_structural   Na2MnFe(PO4)2
_chemical_formula_sum   'Na96 Mn48 Fe48 P96 O384'
_cell_volume   8010.29852642
_cell_formula_units_Z   48
loop_
 _symmetry_equiv_pos_site_id
 _symmetry_equiv_pos_as_xyz
  1  'x, y, z'
loop_
 _atom_site_type_symbol
 _atom_site_label
 _atom_site_symmetry_multiplicity
 _atom_site_fract_x
 _atom_site_fract_y
 _atom_site_fract_z
 _atom_site_occupancy
  Na  Na0  1  -0.00005077  0.00024517  0.00018864  1
  Na  Na1  1  0.00040565  -0.00057964  0.25088788  1
  Na  Na2  1  0.00266653  0.00086765  0.49913232  1
  Na  Na3  1  -0.00047130  -0.00004886  0.74935406  1
  Na  Na4  1  0.00038865  0.33242279  0.00101079  1
  Na  Na5  1  0.00313403  0.33371724  0.24948197  1
  Na  Na6  1  0.00167590  0.33380918  0.49943924  1
  Na  Na7  1  -0.00140202  0.33230663  0.75085737  1
  Na  Na8  1  -0.00112178  0.66681781  -0.00021856  1
  Na  Na9  1  0.00228358  0.66804879  0.24918217  1
  Na  Na10  1  -0.00126714  0.66637095  0.50055102  1
  Na  Na11  1  -0.00250227  0.66684584  0.75032207  1
  Na  Na12  1  0.50028229  0.00022211  -0.00041193  1
  Na  Na13  1  0.49691500  -0.00072880  0.24988931  1
  Na  Na14  1  0.49984934  0.00028650  0.50055394  1
  Na  Na15  1  0.50222315  0.00029246  0.75002431  1
  Na  Na16  1  0.50151486  0.33348257  -0.00090472  1
  Na  Na17  1  0.49903991  0.33201933  0.25001668  1
  Na  Na18  1  0.49920273  0.33287418  0.50109949  1
  Na  Na19  1  0.50034307  0.33313215  0.75016794  1
  Na  Na20  1  0.49902969  0.66638842  0.00069984  1
  Na  Na21  1  0.50019416  0.66741114  0.24919589  1
  Na  Na22  1  0.49893595  0.66760463  0.49928990  1
  Na  Na23  1  0.49772362  0.66619025  0.75096260  1
  Na  Na24  1  0.25097617  0.00098380  0.12517304  1
  Na  Na25  1  0.25067541  -0.00011445  0.37368922  1
  Na  Na26  1  0.24897167  -0.00042853  0.62514909  1
  Na  Na27  1  0.24863372  -0.00006310  0.87577938  1
  Na  Na28  1  0.24798374  0.33227290  0.12497165  1
  Na  Na29  1  0.24938546  0.33273281  0.37415187  1
  Na  Na30  1  0.25211579  0.33386532  0.62522828  1
  Na  Na31  1  0.25027351  0.33335157  0.87621245  1
  Na  Na32  1  0.25028269  0.66743677  0.12411602  1
  Na  Na33  1  0.24953297  0.66700977  0.37480497  1
  Na  Na34  1  0.25286227  0.66768150  0.62544471  1
  Na  Na35  1  0.25300592  0.66740166  0.87539068  1
  Na  Na36  1  0.75092722  0.00024585  0.12553626  1
  Na  Na37  1  0.74937442  0.00026585  0.37439092  1
  Na  Na38  1  0.74768673  -0.00080283  0.62406785  1
  Na  Na39  1  0.74872997  -0.00064295  0.87530271  1
  Na  Na40  1  0.74942290  0.33273595  0.12451579  1
  Na  Na41  1  0.75147903  0.33338206  0.37421848  1
  Na  Na42  1  0.75024939  0.33270294  0.62596131  1
  Na  Na43  1  0.74846678  0.33250509  0.87530546  1
  Na  Na44  1  0.74812972  0.66631067  0.12609467  1
  Na  Na45  1  0.74851909  0.66658468  0.37522182  1
  Na  Na46  1  0.75133748  0.66762764  0.62462510  1
  Na  Na47  1  0.75154824  0.66797066  0.87415583  1
  Na  Na48  1  0.00093441  0.16644847  0.00068453  1
  Na  Na49  1  0.00160559  0.16620415  0.24990762  1
  Na  Na50  1  0.00001748  0.16703114  0.49922823  1
  Na  Na51  1  -0.00056750  0.16706713  0.75069881  1
  Na  Na52  1  0.00269493  0.49889023  0.00078253  1
  Na  Na53  1  0.00377462  0.49922435  0.24932910  1
  Na  Na54  1  0.00120612  0.50018461  0.49968012  1
  Na  Na55  1  -0.00074494  0.50026680  0.75013888  1
  Na  Na56  1  -0.00302288  0.83382179  -0.00037975  1
  Na  Na57  1  0.00093391  0.83270899  0.25048532  1
  Na  Na58  1  0.00131003  0.83249502  0.50014407  1
  Na  Na59  1  -0.00302251  0.83385289  0.74958316  1
  Na  Na60  1  0.49963079  0.16738299  -0.00010616  1
  Na  Na61  1  0.49770615  0.16673801  0.24996756  1
  Na  Na62  1  0.49870156  0.16652841  0.50035739  1
  Na  Na63  1  0.50132784  0.16659879  0.74969360  1
  Na  Na64  1  0.50220996  0.49927348  -0.00002590  1
  Na  Na65  1  0.50277004  0.49880945  0.24985961  1
  Na  Na66  1  0.49830804  0.50086308  0.49964367  1
  Na  Na67  1  0.49851197  0.50075440  0.75093965  1
  Na  Na68  1  0.49863126  0.83386459  -0.00067507  1
  Na  Na69  1  0.49763873  0.83356283  0.24964430  1
  Na  Na70  1  0.49933751  0.83315774  0.50045041  1
  Na  Na71  1  0.50059233  0.83286036  0.75056121  1
  Na  Na72  1  0.24935661  0.16687313  0.12460266  1
  Na  Na73  1  0.24992291  0.16676069  0.37393442  1
  Na  Na74  1  0.25088301  0.16620481  0.62574291  1
  Na  Na75  1  0.24996331  0.16655546  0.87609665  1
  Na  Na76  1  0.24736230  0.50066275  0.12423151  1
  Na  Na77  1  0.24812527  0.50101353  0.37482976  1
  Na  Na78  1  0.25217633  0.49963246  0.62602839  1
  Na  Na79  1  0.25031116  0.49952608  0.87524136  1
  Na  Na80  1  0.25129268  0.83281664  0.12564854  1
  Na  Na81  1  0.25078627  0.83324186  0.37368475  1
  Na  Na82  1  0.25091313  0.83314204  0.62427088  1
  Na  Na83  1  0.25239541  0.83216711  0.87582125  1
  Na  Na84  1  0.75099134  0.16693061  0.12557978  1
  Na  Na85  1  0.74971356  0.16694070  0.37467094  1
  Na  Na86  1  0.74977159  0.16648952  0.62441407  1
  Na  Na87  1  0.75003901  0.16719604  0.87513804  1
  Na  Na88  1  0.74684565  0.50062220  0.12438575  1
  Na  Na89  1  0.74842579  0.50062000  0.37507960  1
  Na  Na90  1  0.75145671  0.49888322  0.62563224  1
  Na  Na91  1  0.74697599  0.50113900  0.87485289  1
  Na  Na92  1  0.75080592  0.83314463  0.12600700  1
  Na  Na93  1  0.75029268  0.83296096  0.37434667  1
  Na  Na94  1  0.74985799  0.83294821  0.62410820  1
  Na  Na95  1  0.75012155  0.83367662  0.87524149  1
  Mn  Mn96  1  0.85720664  0.08262469  0.75183801  1
  Mn  Mn97  1  0.89387500  0.25039429  0.37668778  1
  Mn  Mn98  1  0.39259331  0.91714061  0.87732799  1
  Mn  Mn99  1  0.14307892  0.91649460  0.24698008  1
  Mn  Mn100  1  0.14269621  0.24931620  0.49807990  1
  Mn  Mn101  1  0.85910344  0.41701822  0.50183996  1
  Mn  Mn102  1  0.89288299  0.58322701  0.37631798  1
  Mn  Mn103  1  0.85817932  0.41693492  0.25155510  1
  Mn  Mn104  1  0.89351099  0.91633228  0.37735161  1
  Mn  Mn105  1  0.64154420  0.91634752  0.49686981  1
  Mn  Mn106  1  0.85792866  0.08291723  0.50151224  1
  Mn  Mn107  1  0.14238656  0.25034142  0.74835937  1
  Mn  Mn108  1  0.35819786  0.08336983  0.75278093  1
  Mn  Mn109  1  0.10809335  0.08369039  0.62258876  1
  Mn  Mn110  1  0.60764133  0.74946215  0.87306784  1
  Mn  Mn111  1  0.35766895  0.41652218  0.00276824  1
  Mn  Mn112  1  0.10809002  0.41680658  0.62369288  1
  Mn  Mn113  1  0.60730590  0.08362544  0.12336845  1
  Mn  Mn114  1  0.10775866  0.74969799  0.62339072  1
  Mn  Mn115  1  0.60730475  0.41745619  0.62270320  1
  Mn  Mn116  1  0.60695703  0.75044881  0.12234119  1
  Mn  Mn117  1  0.85785826  0.74958673  0.25246299  1
  Mn  Mn118  1  0.60848201  0.08397915  0.87288134  1
  Mn  Mn119  1  0.14164789  0.91656067  0.99780043  1
  Mn  Mn120  1  0.14326680  0.58373815  0.74821131  1
  Mn  Mn121  1  0.89217313  0.91717585  0.62652542  1
  Mn  Mn122  1  0.39276644  0.58252579  0.12775760  1
  Mn  Mn123  1  0.64170444  0.58412418  0.74694417  1
  Mn  Mn124  1  0.89171322  0.58255839  0.87788533  1
  Mn  Mn125  1  0.89233737  0.58294919  0.12747611  1
  Mn  Mn126  1  0.39193406  0.58317588  0.37652049  1
  Mn  Mn127  1  0.85806142  0.08312665  0.00276551  1
  Mn  Mn128  1  0.39248189  0.25035548  0.62803575  1
  Mn  Mn129  1  0.85695955  0.41751090  0.00217579  1
  Mn  Mn130  1  0.35719998  0.08313406  0.00216960  1
  Mn  Mn131  1  0.14168135  0.91581520  0.74851483  1
  Mn  Mn132  1  0.35768944  0.41694676  0.50197156  1
  Mn  Mn133  1  0.64192494  0.58310658  0.49847699  1
  Mn  Mn134  1  0.64165597  0.91691288  0.24776042  1
  Mn  Mn135  1  0.39236759  0.91647597  0.62755371  1
  Mn  Mn136  1  0.60768830  0.41605717  0.37275017  1
  Mn  Mn137  1  0.35727585  0.41707832  0.25164603  1
  Mn  Mn138  1  0.10698709  0.75025353  0.87244332  1
  Mn  Mn139  1  0.64222693  0.25026879  0.49748319  1
  Mn  Mn140  1  0.85752304  0.41662655  0.75301433  1
  Mn  Mn141  1  0.64187035  0.25016723  0.24786084  1
  Mn  Mn142  1  0.14238269  0.58422654  0.49863550  1
  Mn  Mn143  1  0.14242048  0.58362303  0.99709459  1
  Fe  Fe144  1  0.35806809  0.41668757  0.75312030  1
  Fe  Fe145  1  0.14250266  0.58376937  0.24805244  1
  Fe  Fe146  1  0.89221403  0.58270635  0.62660428  1
  Fe  Fe147  1  0.39230163  0.58364967  0.62692435  1
  Fe  Fe148  1  0.14230949  0.24981606  0.99785316  1
  Fe  Fe149  1  0.35743592  0.75025574  0.00227945  1
  Fe  Fe150  1  0.10708381  0.41615927  0.87283932  1
  Fe  Fe151  1  0.85808471  0.08357165  0.25198908  1
  Fe  Fe152  1  0.64240500  0.58390516  0.99803426  1
  Fe  Fe153  1  0.89261853  0.91722153  0.12674987  1
  Fe  Fe154  1  0.39349755  0.25029358  0.87687792  1
  Fe  Fe155  1  0.64187441  0.58333524  0.24849818  1
  Fe  Fe156  1  0.14356059  0.91644882  0.49827630  1
  Fe  Fe157  1  0.60674053  0.41650015  0.87320120  1
  Fe  Fe158  1  0.64258435  0.24971616  0.99827339  1
  Fe  Fe159  1  0.64280672  0.91674736  0.74828130  1
  Fe  Fe160  1  0.10879759  0.08330787  0.37268348  1
  Fe  Fe161  1  0.10760232  0.41636983  0.12280724  1
  Fe  Fe162  1  0.10882547  0.41697614  0.37300221  1
  Fe  Fe163  1  0.10635809  0.08332996  0.87341082  1
  Fe  Fe164  1  0.64285383  0.91651954  0.99897775  1
  Fe  Fe165  1  0.60734772  0.08301382  0.62266958  1
  Fe  Fe166  1  0.85661749  0.74977256  0.00191030  1
  Fe  Fe167  1  0.35662737  0.74988070  0.25180229  1
  Fe  Fe168  1  0.35712937  0.08274081  0.50154934  1
  Fe  Fe169  1  0.10714624  0.08269291  0.12370743  1
  Fe  Fe170  1  0.85646438  0.75048967  0.75105216  1
  Fe  Fe171  1  0.89355840  0.24965919  0.12673560  1
  Fe  Fe172  1  0.89254723  0.24981819  0.87719126  1
  Fe  Fe173  1  0.64298459  0.24934191  0.74818166  1
  Fe  Fe174  1  0.39186305  0.24938334  0.37657567  1
  Fe  Fe175  1  0.39313943  0.58246895  0.87741174  1
  Fe  Fe176  1  0.35826921  0.75011731  0.75205288  1
  Fe  Fe177  1  0.85735411  0.74984492  0.50136170  1
  Fe  Fe178  1  0.60751395  0.41567768  0.12313535  1
  Fe  Fe179  1  0.10723613  0.75065778  0.12260639  1
  Fe  Fe180  1  0.60588142  0.08305292  0.37303406  1
  Fe  Fe181  1  0.89132732  0.91751700  0.87676498  1
  Fe  Fe182  1  0.14334410  0.24999000  0.24776512  1
  Fe  Fe183  1  0.39234478  0.25000809  0.12603128  1
  Fe  Fe184  1  0.60642366  0.75067032  0.37345679  1
  Fe  Fe185  1  0.39239959  0.91709800  0.37713582  1
  Fe  Fe186  1  0.10836017  0.74971131  0.37356102  1
  Fe  Fe187  1  0.39228720  0.91745047  0.12628409  1
  Fe  Fe188  1  0.60699634  0.74985601  0.62313071  1
  Fe  Fe189  1  0.35752713  0.75049294  0.50153600  1
  Fe  Fe190  1  0.89244238  0.25035432  0.62661438  1
  Fe  Fe191  1  0.35697248  0.08347940  0.25181405  1
  P  P192  1  0.05485484  0.24918537  0.11104529  1
  P  P193  1  0.05561826  0.24978774  0.35904518  1
  P  P194  1  0.05220213  0.25029980  0.61026735  1
  P  P195  1  0.05335149  0.24981159  0.86171766  1
  P  P196  1  0.05505196  0.58404801  0.11091779  1
  P  P197  1  0.05478573  0.58414968  0.35943317  1
  P  P198  1  0.05205507  0.58350082  0.61071006  1
  P  P199  1  0.05324564  0.58280624  0.85993908  1
  P  P200  1  0.05221759  0.91650155  0.11051203  1
  P  P201  1  0.05621095  0.91614773  0.36103914  1
  P  P202  1  0.05421463  0.91639350  0.60916084  1
  P  P203  1  0.05106371  0.91719072  0.86012860  1
  P  P204  1  0.55259215  0.25011391  0.10956960  1
  P  P205  1  0.55158846  0.24852803  0.36032311  1
  P  P206  1  0.55467397  0.24930823  0.61118511  1
  P  P207  1  0.55448619  0.25069761  0.86057915  1
  P  P208  1  0.55519003  0.58256490  0.11056029  1
  P  P209  1  0.55361100  0.58447487  0.35958752  1
  P  P210  1  0.55134502  0.58458052  0.61008234  1
  P  P211  1  0.55362505  0.58293254  0.86138016  1
  P  P212  1  0.55210876  0.91696233  0.10950692  1
  P  P213  1  0.55153346  0.91696006  0.36007762  1
  P  P214  1  0.55485366  0.91605975  0.61135777  1
  P  P215  1  0.55554914  0.91650621  0.86070804  1
  P  P216  1  0.44535823  0.08368845  0.14011075  1
  P  P217  1  0.44500132  0.08310016  0.38933073  1
  P  P218  1  0.44686525  0.08286564  0.63918858  1
  P  P219  1  0.44700423  0.08441763  0.89002496  1
  P  P220  1  0.44805636  0.41565897  0.13974110  1
  P  P221  1  0.44640441  0.41563579  0.38966615  1
  P  P222  1  0.44569262  0.41775919  0.64096335  1
  P  P223  1  0.44653021  0.41629184  0.88927494  1
  P  P224  1  0.44431567  0.75086136  0.13927158  1
  P  P225  1  0.44533184  0.75082352  0.38895186  1
  P  P226  1  0.44598701  0.74962064  0.63953064  1
  P  P227  1  0.44481180  0.74922026  0.88989458  1
  P  P228  1  0.94734149  0.08326631  0.14044643  1
  P  P229  1  0.94795615  0.08332876  0.38856318  1
  P  P230  1  0.94670206  0.08424889  0.63966112  1
  P  P231  1  0.94689558  0.08350287  0.89004877  1
  P  P232  1  0.94812605  0.41589549  0.13956722  1
  P  P233  1  0.94928491  0.41699964  0.38903629  1
  P  P234  1  0.94647687  0.41642210  0.64030531  1
  P  P235  1  0.94768319  0.41575337  0.89065875  1
  P  P236  1  0.94624595  0.75060875  0.13877445  1
  P  P237  1  0.94795514  0.74967368  0.39030319  1
  P  P238  1  0.94447343  0.74940358  0.63926605  1
  P  P239  1  0.94365255  0.75095767  0.88935012  1
  P  P240  1  0.19630627  0.08378856  0.23521410  1
  P  P241  1  0.19770355  0.08245253  0.48423008  1
  P  P242  1  0.19551039  0.08337630  0.73650730  1
  P  P243  1  0.19399682  0.08384170  0.98592063  1
  P  P244  1  0.19480929  0.41681764  0.23522748  1
  P  P245  1  0.19652343  0.41681580  0.48476953  1
  P  P246  1  0.19754953  0.41661182  0.73650431  1
  P  P247  1  0.19443724  0.41563418  0.98545259  1
  P  P248  1  0.19590985  0.74950509  0.23517662  1
  P  P249  1  0.19774283  0.75080070  0.48473346  1
  P  P250  1  0.19859083  0.74982200  0.73528533  1
  P  P251  1  0.19660946  0.75044369  0.98577177  1
  P  P252  1  0.69660284  0.08345772  0.23605698  1
  P  P253  1  0.69465049  0.08336144  0.48450833  1
  P  P254  1  0.69579450  0.08340300  0.73424375  1
  P  P255  1  0.69679914  0.08346715  0.98578372  1
  P  P256  1  0.69588674  0.41697688  0.23421117  1
  P  P257  1  0.69731494  0.41651334  0.48496148  1
  P  P258  1  0.69492818  0.41584802  0.73640379  1
  P  P259  1  0.69410330  0.41625152  0.98552321  1
  P  P260  1  0.69463919  0.74989034  0.23635278  1
  P  P261  1  0.69574616  0.74967716  0.48521105  1
  P  P262  1  0.69670959  0.75089265  0.73432413  1
  P  P263  1  0.69736038  0.75036126  0.98541907  1
  P  P264  1  0.30362238  0.24998094  0.01454582  1
  P  P265  1  0.30411877  0.24959283  0.26353678  1
  P  P266  1  0.30474316  0.24867010  0.51388191  1
  P  P267  1  0.30438348  0.25064065  0.76655801  1
  P  P268  1  0.30494335  0.58345945  0.01408523  1
  P  P269  1  0.30179346  0.58386847  0.26433937  1
  P  P270  1  0.30413097  0.58453639  0.51547622  1
  P  P271  1  0.30604914  0.58334041  0.76498316  1
  P  P272  1  0.30368225  0.91630507  0.01576452  1
  P  P273  1  0.30554804  0.91681811  0.26391597  1
  P  P274  1  0.30392065  0.91692749  0.51333183  1
  P  P275  1  0.30337357  0.91617247  0.76542620  1
  P  P276  1  0.80411043  0.25028816  0.01463743  1
  P  P277  1  0.80522793  0.24943194  0.26362670  1
  P  P278  1  0.80440101  0.24990570  0.51529285  1
  P  P279  1  0.80389068  0.24958499  0.76478686  1
  P  P280  1  0.80161126  0.58397117  0.01512772  1
  P  P281  1  0.80170376  0.58303393  0.26499997  1
  P  P282  1  0.80408160  0.58409000  0.51521532  1
  P  P283  1  0.80409438  0.58397359  0.76387650  1
  P  P284  1  0.80381262  0.91607379  0.01482659  1
  P  P285  1  0.80505299  0.91761032  0.26406449  1
  P  P286  1  0.80322039  0.91590715  0.51417207  1
  P  P287  1  0.80238701  0.91624011  0.76488523  1
  O  O288  1  0.05957107  0.24935522  0.18773062  1
  O  O289  1  0.05786577  0.24948473  0.43614715  1
  O  O290  1  0.05603165  0.25008375  0.68688871  1
  O  O291  1  0.05782046  0.24991291  0.93835147  1
  O  O292  1  0.05903760  0.58442789  0.18764288  1
  O  O293  1  0.05709343  0.58435230  0.43627235  1
  O  O294  1  0.05633582  0.58396668  0.68732529  1
  O  O295  1  0.05656838  0.58374622  0.93672710  1
  O  O296  1  0.05633145  0.91605514  0.18680831  1
  O  O297  1  0.06022234  0.91637482  0.43806389  1
  O  O298  1  0.05675607  0.91617992  0.68595201  1
  O  O299  1  0.05504968  0.91618979  0.93678384  1
  O  O300  1  0.55610725  0.24934518  0.18630584  1
  O  O301  1  0.55547273  0.24932866  0.43693705  1
  O  O302  1  0.55887657  0.24968968  0.68793439  1
  O  O303  1  0.55900681  0.24962482  0.93726710  1
  O  O304  1  0.55892703  0.58356825  0.18733519  1
  O  O305  1  0.55618134  0.58407478  0.43636650  1
  O  O306  1  0.55502315  0.58412607  0.68681835  1
  O  O307  1  0.55868750  0.58413112  0.93802471  1
  O  O308  1  0.55582270  0.91661479  0.18620953  1
  O  O309  1  0.55520517  0.91669377  0.43674455  1
  O  O310  1  0.55889301  0.91601770  0.68810013  1
  O  O311  1  0.55991835  0.91638626  0.93745415  1
  O  O312  1  0.44286054  0.08369916  0.06340752  1
  O  O313  1  0.44050214  0.08330917  0.31256511  1
  O  O314  1  0.44160829  0.08262834  0.56258968  1
  O  O315  1  0.44439159  0.08360304  0.81330440  1
  O  O316  1  0.44428351  0.41657444  0.06308703  1
  O  O317  1  0.44333650  0.41624775  0.31288931  1
  O  O318  1  0.44266836  0.41678478  0.56417127  1
  O  O319  1  0.44222103  0.41637507  0.81260658  1
  O  O320  1  0.44066059  0.75008369  0.06247842  1
  O  O321  1  0.44057660  0.74976221  0.31222645  1
  O  O322  1  0.44132684  0.75061105  0.56281560  1
  O  O323  1  0.44130883  0.75026963  0.81307104  1
  O  O324  1  0.94372097  0.08341806  0.06388286  1
  O  O325  1  0.94276087  0.08302220  0.31190012  1
  O  O326  1  0.94387684  0.08335896  0.56290651  1
  O  O327  1  0.94327152  0.08343746  0.81323986  1
  O  O328  1  0.94357416  0.41664733  0.06296045  1
  O  O329  1  0.94509497  0.41701200  0.31245808  1
  O  O330  1  0.94445071  0.41667669  0.56335231  1
  O  O331  1  0.94351270  0.41645613  0.81407491  1
  O  O332  1  0.94075884  0.74965569  0.06212115  1
  O  O333  1  0.94391269  0.74991295  0.31359633  1
  O  O334  1  0.94087173  0.75022020  0.56248266  1
  O  O335  1  0.93943357  0.75042881  0.81257801  1
  O  O336  1  0.19004255  0.08295203  0.06270919  1
  O  O337  1  0.19195826  0.08308156  0.31192382  1
  O  O338  1  0.19415264  0.08337173  0.56100003  1
  O  O339  1  0.19051629  0.08342473  0.81321739  1
  O  O340  1  0.19008155  0.41615809  0.06228718  1
  O  O341  1  0.19162585  0.41674974  0.31206402  1
  O  O342  1  0.19389727  0.41662204  0.56158673  1
  O  O343  1  0.19179833  0.41632648  0.81311255  1
  O  O344  1  0.19117885  0.75080354  0.06240180  1
  O  O345  1  0.19164431  0.75012189  0.31186616  1
  O  O346  1  0.19395378  0.75011004  0.56142163  1
  O  O347  1  0.19403828  0.74975902  0.81192681  1
  O  O348  1  0.69398287  0.08374530  0.06252796  1
  O  O349  1  0.69083546  0.08338000  0.31259990  1
  O  O350  1  0.69032279  0.08314324  0.56126368  1
  O  O351  1  0.69353800  0.08374936  0.81121576  1
  O  O352  1  0.69059630  0.41581716  0.06232496  1
  O  O353  1  0.69305494  0.41576911  0.31102184  1
  O  O354  1  0.69365124  0.41627347  0.56168795  1
  O  O355  1  0.69052973  0.41672898  0.81318570  1
  O  O356  1  0.69366157  0.75035049  0.06209150  1
  O  O357  1  0.69015522  0.75093675  0.31306544  1
  O  O358  1  0.69086864  0.74981720  0.56186559  1
  O  O359  1  0.69308925  0.74983167  0.81102652  1
  O  O360  1  0.30873990  0.25022497  0.18685617  1
  O  O361  1  0.30820151  0.24940704  0.43713341  1
  O  O362  1  0.30734141  0.24996235  0.68968454  1
  O  O363  1  0.30912907  0.25020734  0.93800292  1
  O  O364  1  0.30581729  0.58306639  0.18767822  1
  O  O365  1  0.30670144  0.58366976  0.43869153  1
  O  O366  1  0.30942971  0.58330786  0.68815664  1
  O  O367  1  0.30931510  0.58227688  0.93736982  1
  O  O368  1  0.30919413  0.91712345  0.18700145  1
  O  O369  1  0.30818978  0.91687430  0.43666494  1
  O  O370  1  0.30637059  0.91698876  0.68858119  1
  O  O371  1  0.30684712  0.91716924  0.93904683  1
  O  O372  1  0.80982904  0.24998816  0.18688585  1
  O  O373  1  0.80807289  0.24995501  0.43848367  1
  O  O374  1  0.80880431  0.24978034  0.68815221  1
  O  O375  1  0.80911990  0.25016550  0.93790769  1
  O  O376  1  0.80593881  0.58302643  0.18831942  1
  O  O377  1  0.80693085  0.58333909  0.43843912  1
  O  O378  1  0.80844208  0.58275257  0.68717917  1
  O  O379  1  0.80555891  0.58304920  0.93843082  1
  O  O380  1  0.80943759  0.91718575  0.18728069  1
  O  O381  1  0.80689403  0.91667573  0.43742240  1
  O  O382  1  0.80617512  0.91718016  0.68824256  1
  O  O383  1  0.80812624  0.91730806  0.93809282  1
  O  O384  1  0.23308702  0.24971661  0.03754237  1
  O  O385  1  0.23363910  0.24999369  0.28692914  1
  O  O386  1  0.23491520  0.24935187  0.53907307  1
  O  O387  1  0.23466696  0.25006106  0.79153082  1
  O  O388  1  0.23485974  0.58359909  0.03789065  1
  O  O389  1  0.23181672  0.58385546  0.28885875  1
  O  O390  1  0.23456985  0.58391031  0.54110963  1
  O  O391  1  0.23615385  0.58344901  0.78979793  1
  O  O392  1  0.23397163  0.91687794  0.04084901  1
  O  O393  1  0.23568499  0.91655600  0.28791267  1
  O  O394  1  0.23377226  0.91651083  0.53776560  1
  O  O395  1  0.23387218  0.91584542  0.79101782  1
  O  O396  1  0.73352984  0.25006484  0.03774024  1
  O  O397  1  0.73512316  0.24996316  0.28763790  1
  O  O398  1  0.73455051  0.24973942  0.53977765  1
  O  O399  1  0.73340859  0.24954849  0.78810452  1
  O  O400  1  0.73145521  0.58365102  0.03924715  1
  O  O401  1  0.73164673  0.58336764  0.28927066  1
  O  O402  1  0.73447712  0.58330442  0.54072929  1
  O  O403  1  0.73402390  0.58430484  0.78793945  1
  O  O404  1  0.73349220  0.91659237  0.03887902  1
  O  O405  1  0.73497404  0.91688207  0.28807067  1
  O  O406  1  0.73344554  0.91600964  0.53875934  1
  O  O407  1  0.73224985  0.91671076  0.78925907  1
  O  O408  1  0.26677951  0.08354230  0.21170494  1
  O  O409  1  0.26759070  0.08287006  0.45939823  1
  O  O410  1  0.26558548  0.08339580  0.71264630  1
  O  O411  1  0.26412332  0.08315607  0.96197479  1
  O  O412  1  0.26465663  0.41657114  0.21019593  1
  O  O413  1  0.26607559  0.41698385  0.45928966  1
  O  O414  1  0.26800321  0.41681223  0.71344637  1
  O  O415  1  0.26467726  0.41647244  0.96206811  1
  O  O416  1  0.26643098  0.75026279  0.21167532  1
  O  O417  1  0.26783137  0.75042871  0.46024173  1
  O  O418  1  0.26874782  0.75005771  0.71126119  1
  O  O419  1  0.26711993  0.75010466  0.96284025  1
  O  O420  1  0.76695808  0.08349052  0.21258443  1
  O  O421  1  0.76481174  0.08327479  0.46073605  1
  O  O422  1  0.76530412  0.08283705  0.70864864  1
  O  O423  1  0.76624689  0.08338572  0.96013226  1
  O  O424  1  0.76550349  0.41664030  0.20877946  1
  O  O425  1  0.76704737  0.41698498  0.45992238  1
  O  O426  1  0.76493011  0.41592135  0.71246035  1
  O  O427  1  0.76406576  0.41666539  0.96083716  1
  O  O428  1  0.76473030  0.74999902  0.21237526  1
  O  O429  1  0.76614330  0.74977388  0.46160010  1
  O  O430  1  0.76685047  0.75041723  0.71005090  1
  O  O431  1  0.76729551  0.75037236  0.96054458  1
  O  O432  1  0.01758237  0.08308374  0.16482400  1
  O  O433  1  0.01840964  0.08369687  0.41180156  1
  O  O434  1  0.01625673  0.08356780  0.66516169  1
  O  O435  1  0.01682247  0.08347395  0.91489717  1
  O  O436  1  0.01850108  0.41615339  0.16314845  1
  O  O437  1  0.01939037  0.41697419  0.41336124  1
  O  O438  1  0.01584569  0.41637069  0.66642954  1
  O  O439  1  0.01776553  0.41578624  0.91499609  1
  O  O440  1  0.01670302  0.75060019  0.16204116  1
  O  O441  1  0.01812795  0.74954487  0.41439953  1
  O  O442  1  0.01440854  0.75028842  0.66397032  1
  O  O443  1  0.01379653  0.75010184  0.91331284  1
  O  O444  1  0.51496297  0.08331785  0.16565350  1
  O  O445  1  0.51526839  0.08309052  0.41330450  1
  O  O446  1  0.51721385  0.08288397  0.66266466  1
  O  O447  1  0.51665813  0.08408398  0.91538797  1
  O  O448  1  0.51804408  0.41543409  0.16434031  1
  O  O449  1  0.51596629  0.41636260  0.41522468  1
  O  O450  1  0.51542911  0.41706302  0.66593126  1
  O  O451  1  0.51677658  0.41643031  0.91322024  1
  O  O452  1  0.51436680  0.75026012  0.16331677  1
  O  O453  1  0.51572289  0.75062093  0.41261614  1
  O  O454  1  0.51622429  0.74994235  0.66353831  1
  O  O455  1  0.51482181  0.74990445  0.91422792  1
  O  O456  1  0.48247776  0.25006109  0.08509846  1
  O  O457  1  0.48153874  0.24875096  0.33581480  1
  O  O458  1  0.48459366  0.24994268  0.58720294  1
  O  O459  1  0.48419717  0.25007877  0.83676961  1
  O  O460  1  0.48514721  0.58312708  0.08636787  1
  O  O461  1  0.48397919  0.58332495  0.33406845  1
  O  O462  1  0.48147175  0.58420763  0.58521536  1
  O  O463  1  0.48324262  0.58297636  0.83803491  1
  O  O464  1  0.48198792  0.91725148  0.08522564  1
  O  O465  1  0.48148483  0.91684415  0.33553821  1
  O  O466  1  0.48488351  0.91631867  0.58690323  1
  O  O467  1  0.48546332  0.91681189  0.83685667  1
  O  O468  1  0.98433158  0.24920246  0.08756616  1
  O  O469  1  0.98607631  0.24988555  0.33365508  1
  O  O470  1  0.98242402  0.25048860  0.58520381  1
  O  O471  1  0.98306614  0.24983704  0.83771026  1
  O  O472  1  0.98508439  0.58322096  0.08637001  1
  O  O473  1  0.98529683  0.58386038  0.33343582  1
  O  O474  1  0.98207779  0.58309825  0.58618795  1
  O  O475  1  0.98346199  0.58327194  0.83530016  1
  O  O476  1  0.98205692  0.91701767  0.08586407  1
  O  O477  1  0.98623610  0.91603247  0.33682250  1
  O  O478  1  0.98459084  0.91675613  0.58387663  1
  O  O479  1  0.98102033  0.91714402  0.83555913  1
  O  O480  1  0.08818791  0.31412272  0.07753521  1
  O  O481  1  0.08999552  0.31488922  0.32725581  1
  O  O482  1  0.08654384  0.31521031  0.57787325  1
  O  O483  1  0.08676024  0.31485771  0.82830704  1
  O  O484  1  0.08811094  0.64933014  0.07764502  1
  O  O485  1  0.08903510  0.64932712  0.32720746  1
  O  O486  1  0.08562310  0.64856348  0.57761986  1
  O  O487  1  0.08734465  0.64775794  0.82722521  1
  O  O488  1  0.08608692  0.98169437  0.07797040  1
  O  O489  1  0.08964854  0.98120064  0.32804979  1
  O  O490  1  0.08893383  0.98125244  0.57697718  1
  O  O491  1  0.08499307  0.98236639  0.82793362  1
  O  O492  1  0.58675880  0.31499833  0.07709042  1
  O  O493  1  0.58552699  0.31348415  0.32738533  1
  O  O494  1  0.58818298  0.31436011  0.57802748  1
  O  O495  1  0.58764329  0.31592253  0.82765069  1
  O  O496  1  0.58901673  0.64738328  0.07706457  1
  O  O497  1  0.58719174  0.64988567  0.32733351  1
  O  O498  1  0.58524470  0.64962971  0.57764132  1
  O  O499  1  0.58657585  0.64790197  0.82745533  1
  O  O500  1  0.58629520  0.98189926  0.07708357  1
  O  O501  1  0.58517303  0.98217984  0.32737914  1
  O  O502  1  0.58850366  0.98105955  0.57833203  1
  O  O503  1  0.58935388  0.98145985  0.82765857  1
  O  O504  1  0.41079345  0.01877422  0.17242616  1
  O  O505  1  0.41172592  0.01784356  0.42251692  1
  O  O506  1  0.41370929  0.01788970  0.67280155  1
  O  O507  1  0.41270387  0.01953317  0.92253828  1
  O  O508  1  0.41378887  0.35070878  0.17186966  1
  O  O509  1  0.41259301  0.35036553  0.42179494  1
  O  O510  1  0.41115818  0.35307244  0.67384318  1
  O  O511  1  0.41335247  0.35105735  0.92239901  1
  O  O512  1  0.41036712  0.68611466  0.17270530  1
  O  O513  1  0.41182672  0.68600652  0.42252235  1
  O  O514  1  0.41250887  0.68448521  0.67237614  1
  O  O515  1  0.41141590  0.68390469  0.92243780  1
  O  O516  1  0.91339524  0.01825812  0.17318451  1
  O  O517  1  0.91498567  0.01833339  0.42226159  1
  O  O518  1  0.91224451  0.01929023  0.67214065  1
  O  O519  1  0.91298436  0.01843115  0.92255658  1
  O  O520  1  0.91497397  0.35065906  0.17233856  1
  O  O521  1  0.91561819  0.35199991  0.42198312  1
  O  O522  1  0.91207891  0.35124628  0.67214072  1
  O  O523  1  0.91374259  0.35077969  0.92319117  1
  O  O524  1  0.91325791  0.68554980  0.17262045  1
  O  O525  1  0.91382162  0.68469923  0.42273942  1
  O  O526  1  0.91102631  0.68410044  0.67186105  1
  O  O527  1  0.90963943  0.68624295  0.92286571  1
  O  O528  1  0.16290270  0.01894722  0.20168261  1
  O  O529  1  0.16384706  0.01732374  0.45181202  1
  O  O530  1  0.16215219  0.01829442  0.70338872  1
  O  O531  1  0.15996587  0.01918615  0.95253886  1
  O  O532  1  0.16089746  0.35171410  0.20248872  1
  O  O533  1  0.16232419  0.35177072  0.45231606  1
  O  O534  1  0.16462531  0.35153370  0.70283132  1
  O  O535  1  0.16143452  0.35023606  0.95256376  1
  O  O536  1  0.16287205  0.68437295  0.20192598  1
  O  O537  1  0.16363487  0.68588072  0.45189310  1
  O  O538  1  0.16523784  0.68473490  0.70210657  1
  O  O539  1  0.16349345  0.68553299  0.95218190  1
  O  O540  1  0.66338075  0.01845001  0.20249640  1
  O  O541  1  0.66082633  0.01847751  0.45126777  1
  O  O542  1  0.66110915  0.01844019  0.70239573  1
  O  O543  1  0.66250630  0.01832341  0.95378585  1
  O  O544  1  0.66138980  0.35212457  0.20145630  1
  O  O545  1  0.66360305  0.35146352  0.45204516  1
  O  O546  1  0.66153088  0.35058828  0.70380353  1
  O  O547  1  0.66054537  0.35102389  0.95269085  1
  O  O548  1  0.66117583  0.68467240  0.20372364  1
  O  O549  1  0.66220415  0.68466822  0.45220509  1
  O  O550  1  0.66260912  0.68620372  0.70097617  1
  O  O551  1  0.66354328  0.68534063  0.95249672  1
  O  O552  1  0.33666790  0.31491448  0.04845991  1
  O  O553  1  0.33755905  0.31431882  0.29729068  1
  O  O554  1  0.33877158  0.31354048  0.54679551  1
  O  O555  1  0.33841312  0.31582815  0.79879142  1
  O  O556  1  0.33849593  0.64860824  0.04664284  1
  O  O557  1  0.33564542  0.64894220  0.29686544  1
  O  O558  1  0.33815952  0.64996931  0.54726776  1
  O  O559  1  0.34003067  0.64841029  0.79749979  1
  O  O560  1  0.33817784  0.98115368  0.04836419  1
  O  O561  1  0.33904608  0.98197126  0.29699387  1
  O  O562  1  0.33706857  0.98210564  0.54664143  1
  O  O563  1  0.33735011  0.98123468  0.79805559  1
  O  O564  1  0.83725986  0.31536077  0.04800636  1
  O  O565  1  0.83882849  0.31445474  0.29675414  1
  O  O566  1  0.83835455  0.31497011  0.54798916  1
  O  O567  1  0.83722465  0.31437694  0.79862388  1
  O  O568  1  0.83524860  0.64907219  0.04771412  1
  O  O569  1  0.83561412  0.64797518  0.29778722  1
  O  O570  1  0.83792615  0.64955671  0.54710781  1
  O  O571  1  0.83769530  0.64926498  0.79616554  1
  O  O572  1  0.83769524  0.98075954  0.04834343  1
  O  O573  1  0.83832887  0.98288791  0.29695000  1
  O  O574  1  0.83701403  0.98093321  0.54705297  1
  O  O575  1  0.83630422  0.98104690  0.79831415  1
  O  O576  1  0.41125710  0.14888449  0.17242171  1
  O  O577  1  0.41140413  0.14797780  0.42258716  1
  O  O578  1  0.41360458  0.14788711  0.67253513  1
  O  O579  1  0.41290607  0.14955661  0.92209147  1
  O  O580  1  0.41448147  0.48070951  0.17293869  1
  O  O581  1  0.41197412  0.48069438  0.42179095  1
  O  O582  1  0.41199494  0.48317579  0.67295653  1
  O  O583  1  0.41314121  0.48121448  0.92268079  1
  O  O584  1  0.41097459  0.81619510  0.17182507  1
  O  O585  1  0.41214614  0.81602528  0.42211505  1
  O  O586  1  0.41237901  0.81442752  0.67322365  1
  O  O587  1  0.41066333  0.81397755  0.92299369  1
  O  O588  1  0.91364310  0.14838128  0.17329828  1
  O  O589  1  0.91447630  0.14825788  0.42164280  1
  O  O590  1  0.91280864  0.14947613  0.67180292  1
  O  O591  1  0.91320079  0.14854565  0.92281220  1
  O  O592  1  0.91473328  0.48091912  0.17285774  1
  O  O593  1  0.91553925  0.48200059  0.42187712  1
  O  O594  1  0.91199223  0.48146408  0.67231169  1
  O  O595  1  0.91406125  0.48092875  0.92369576  1
  O  O596  1  0.91314142  0.81574065  0.17193877  1
  O  O597  1  0.91407817  0.81455019  0.42331970  1
  O  O598  1  0.91018181  0.81419197  0.67230516  1
  O  O599  1  0.91043731  0.81632940  0.92210780  1
  O  O600  1  0.08790771  0.18400352  0.07783305  1
  O  O601  1  0.09000030  0.18483925  0.32685693  1
  O  O602  1  0.08618257  0.18527370  0.57743192  1
  O  O603  1  0.08658727  0.18466017  0.82854096  1
  O  O604  1  0.08916401  0.51894713  0.07859884  1
  O  O605  1  0.08953496  0.51921334  0.32747101  1
  O  O606  1  0.08616486  0.51857035  0.57819003  1
  O  O607  1  0.08702745  0.51734346  0.82803460  1
  O  O608  1  0.08567563  0.85153884  0.07690896  1
  O  O609  1  0.08959802  0.85094660  0.32838268  1
  O  O610  1  0.08854513  0.85134800  0.57693350  1
  O  O611  1  0.08476992  0.85216256  0.82698222  1
  O  O612  1  0.58652812  0.18516177  0.07663626  1
  O  O613  1  0.58524537  0.18345000  0.32747808  1
  O  O614  1  0.58768225  0.18404063  0.57814202  1
  O  O615  1  0.58838274  0.18596440  0.82703165  1
  O  O616  1  0.58853621  0.51721313  0.07812653  1
  O  O617  1  0.58868253  0.51977446  0.32741183  1
  O  O618  1  0.58533757  0.51953293  0.57744862  1
  O  O619  1  0.58680269  0.51783227  0.82829976  1
  O  O620  1  0.58588716  0.85204163  0.07644201  1
  O  O621  1  0.58539785  0.85201898  0.32728217  1
  O  O622  1  0.58798750  0.85070934  0.57828394  1
  O  O623  1  0.58889584  0.85149440  0.82741887  1
  O  O624  1  0.33695222  0.18505526  0.04805031  1
  O  O625  1  0.33714299  0.18432210  0.29679814  1
  O  O626  1  0.33808682  0.18328071  0.54643790  1
  O  O627  1  0.33895135  0.18586914  0.79907624  1
  O  O628  1  0.33807078  0.51844296  0.04779356  1
  O  O629  1  0.33546927  0.51886469  0.29731934  1
  O  O630  1  0.33889356  0.51991742  0.54810315  1
  O  O631  1  0.33980445  0.51823614  0.79799256  1
  O  O632  1  0.33776465  0.85118036  0.04793670  1
  O  O633  1  0.33932823  0.85174174  0.29674720  1
  O  O634  1  0.33768760  0.85194408  0.54632485  1
  O  O635  1  0.33802592  0.85118149  0.79712687  1
  O  O636  1  0.83761664  0.18544512  0.04805846  1
  O  O637  1  0.83843994  0.18415112  0.29661034  1
  O  O638  1  0.83844666  0.18489981  0.54786917  1
  O  O639  1  0.83714666  0.18445451  0.79809100  1
  O  O640  1  0.83530963  0.51896239  0.04819401  1
  O  O641  1  0.83537623  0.51791650  0.29769914  1
  O  O642  1  0.83894195  0.51944473  0.54785488  1
  O  O643  1  0.83721642  0.51904667  0.79779925  1
  O  O644  1  0.83708911  0.85076013  0.04758456  1
  O  O645  1  0.83884071  0.85262066  0.29703679  1
  O  O646  1  0.83709303  0.85072470  0.54636693  1
  O  O647  1  0.83598882  0.85106915  0.79741108  1
  O  O648  1  0.16297205  0.14884001  0.20218370  1
  O  O649  1  0.16346561  0.14735212  0.45138219  1
  O  O650  1  0.16234836  0.14855848  0.70315329  1
  O  O651  1  0.16085179  0.14921123  0.95313214  1
  O  O652  1  0.16098901  0.48194770  0.20263267  1
  O  O653  1  0.16202558  0.48181344  0.45272115  1
  O  O654  1  0.16445160  0.48166610  0.70302346  1
  O  O655  1  0.16059160  0.48030748  0.95201455  1
  O  O656  1  0.16238504  0.81428416  0.20154756  1
  O  O657  1  0.16405590  0.81577248  0.45182172  1
  O  O658  1  0.16473478  0.81471157  0.70243533  1
  O  O659  1  0.16371933  0.81551890  0.95211020  1
  O  O660  1  0.66335333  0.14847280  0.20252486  1
  O  O661  1  0.66109949  0.14836383  0.45140375  1
  O  O662  1  0.66174983  0.14860156  0.70209024  1
  O  O663  1  0.66266456  0.14860220  0.95331810  1
  O  O664  1  0.66156096  0.48222705  0.20263282  1
  O  O665  1  0.66288265  0.48151754  0.45297851  1
  O  O666  1  0.66156691  0.48092190  0.70298314  1
  O  O667  1  0.66003471  0.48129369  0.95292489  1
  O  O668  1  0.66129113  0.81479856  0.20265821  1
  O  O669  1  0.66216671  0.81450406  0.45154105  1
  O  O670  1  0.66311773  0.81611268  0.70192548  1
  O  O671  1  0.66357906  0.81550895  0.95291323  1
