# generated using pymatgen
data_Na2MnFe(PO4)2
_symmetry_space_group_name_H-M   'P 1'
_cell_length_a   21.08621209
_cell_length_b   18.93840366
_cell_length_c   20.04546561
_cell_angle_alpha   89.99978614
_cell_angle_beta   89.99925232
_cell_angle_gamma   90.00027808
_symmetry_Int_Tables_number   1
_chemical_formula_structural   Na2MnFe(PO4)2
_chemical_formula_sum   'Na96 Mn48 Fe48 P96 O384'
_cell_volume   8004.94012434
_cell_formula_units_Z   48
loop_
 _symmetry_equiv_pos_site_id
 _symmetry_equiv_pos_as_xyz
  1  'x, y, z'
loop_
 _atom_site_type_symbol
 _atom_site_label
 _atom_site_symmetry_multiplicity
 _atom_site_fract_x
 _atom_site_fract_y
 _atom_site_fract_z
 _atom_site_occupancy
  Na  Na0  1  0.00066807  0.00056410  -0.00086932  1
  Na  Na1  1  0.00078066  0.00033701  0.25008126  1
  Na  Na2  1  0.00113474  0.00075560  0.50082596  1
  Na  Na3  1  0.00037275  0.00058162  0.75005318  1
  Na  Na4  1  0.00087150  0.33311149  0.00046259  1
  Na  Na5  1  0.00114722  0.33327839  0.25034379  1
  Na  Na6  1  0.00033726  0.33274667  0.49957071  1
  Na  Na7  1  0.00009667  0.33249169  0.74975193  1
  Na  Na8  1  0.00132578  0.66716575  -0.00026401  1
  Na  Na9  1  0.00025732  0.66703671  0.25104008  1
  Na  Na10  1  -0.00063279  0.66663023  0.49974957  1
  Na  Na11  1  -0.00057588  0.66627741  0.74957308  1
  Na  Na12  1  0.50025300  0.00067697  -0.00039079  1
  Na  Na13  1  0.49900454  0.00008731  0.24920828  1
  Na  Na14  1  0.49922638  -0.00045783  0.49990398  1
  Na  Na15  1  0.50122148  0.00100643  0.75098738  1
  Na  Na16  1  0.49915367  0.33230047  -0.00003273  1
  Na  Na17  1  0.49986317  0.33242759  0.25023260  1
  Na  Na18  1  0.50327042  0.33414017  0.50014989  1
  Na  Na19  1  0.49898613  0.33183153  0.75015563  1
  Na  Na20  1  0.49983308  0.66622359  0.00031550  1
  Na  Na21  1  0.50069443  0.66696117  0.24936177  1
  Na  Na22  1  0.50005524  0.66674201  0.49907268  1
  Na  Na23  1  0.49897318  0.66584881  0.75105986  1
  Na  Na24  1  0.25010092  0.00022297  0.12572045  1
  Na  Na25  1  0.25050569  -0.00009256  0.37408400  1
  Na  Na26  1  0.24868403  0.00017526  0.62452910  1
  Na  Na27  1  0.24929375  0.00082533  0.87559570  1
  Na  Na28  1  0.25031637  0.33298956  0.12466876  1
  Na  Na29  1  0.24694329  0.33181476  0.37392261  1
  Na  Na30  1  0.24822841  0.33261354  0.62582325  1
  Na  Na31  1  0.24923420  0.33257375  0.87554104  1
  Na  Na32  1  0.25049052  0.66710525  0.12503533  1
  Na  Na33  1  0.24990184  0.66626066  0.37427078  1
  Na  Na34  1  0.25011474  0.66672631  0.62610461  1
  Na  Na35  1  0.24852200  0.66653124  0.87510446  1
  Na  Na36  1  0.74876147  0.00012190  0.12452474  1
  Na  Na37  1  0.74909990  0.00003558  0.37453151  1
  Na  Na38  1  0.75082772  0.00122525  0.62539272  1
  Na  Na39  1  0.74810965  0.00011599  0.87595037  1
  Na  Na40  1  0.75051694  0.33315507  0.12457105  1
  Na  Na41  1  0.74896221  0.33252241  0.37500788  1
  Na  Na42  1  0.75175119  0.33344453  0.62515086  1
  Na  Na43  1  0.75189456  0.33295594  0.87472540  1
  Na  Na44  1  0.74914732  0.66592725  0.12529583  1
  Na  Na45  1  0.74925766  0.66670868  0.37341482  1
  Na  Na46  1  0.75099868  0.66725919  0.62540064  1
  Na  Na47  1  0.75166126  0.66712563  0.87561007  1
  Na  Na48  1  0.00003022  0.16602148  0.00029429  1
  Na  Na49  1  0.00218080  0.16514210  0.24980216  1
  Na  Na50  1  -0.00023759  0.16675949  0.50053946  1
  Na  Na51  1  -0.00192490  0.16690761  0.74967249  1
  Na  Na52  1  -0.00025761  0.49987408  -0.00043613  1
  Na  Na53  1  -0.00123989  0.50091938  0.25057101  1
  Na  Na54  1  0.00200961  0.49851308  0.49895458  1
  Na  Na55  1  -0.00101535  0.50028903  0.75018874  1
  Na  Na56  1  0.00322364  0.83295017  -0.00065066  1
  Na  Na57  1  0.00040764  0.83412744  0.25077586  1
  Na  Na58  1  -0.00033075  0.83424388  0.50068119  1
  Na  Na59  1  0.00305020  0.83298631  0.74958187  1
  Na  Na60  1  0.49878796  0.16636496  -0.00052900  1
  Na  Na61  1  0.49970378  0.16640422  0.25020015  1
  Na  Na62  1  0.50136353  0.16552246  0.49919363  1
  Na  Na63  1  0.49959658  0.16641807  0.75061335  1
  Na  Na64  1  0.50026399  0.50023490  -0.00009284  1
  Na  Na65  1  0.50113584  0.49980462  0.24946552  1
  Na  Na66  1  0.50066465  0.49991311  0.49991349  1
  Na  Na67  1  0.49917608  0.50034024  0.75095582  1
  Na  Na68  1  0.49945635  0.83435736  0.00043698  1
  Na  Na69  1  0.49883045  0.83407761  0.24903754  1
  Na  Na70  1  0.50178732  0.83299541  0.50027234  1
  Na  Na71  1  0.50147596  0.83377031  0.75051257  1
  Na  Na72  1  0.25102635  0.16576835  0.12461696  1
  Na  Na73  1  0.24779093  0.16713677  0.37403949  1
  Na  Na74  1  0.24890042  0.16686729  0.62554645  1
  Na  Na75  1  0.25087102  0.16587845  0.87634924  1
  Na  Na76  1  0.24932954  0.50008125  0.12597695  1
  Na  Na77  1  0.24867873  0.50084772  0.37415727  1
  Na  Na78  1  0.24965765  0.49923739  0.62598249  1
  Na  Na79  1  0.24797874  0.50060676  0.87417818  1
  Na  Na80  1  0.25052367  0.83321075  0.12457707  1
  Na  Na81  1  0.25095233  0.83356644  0.37402574  1
  Na  Na82  1  0.24846397  0.83437417  0.62497745  1
  Na  Na83  1  0.24646230  0.83493289  0.87607976  1
  Na  Na84  1  0.74796959  0.16699705  0.12390635  1
  Na  Na85  1  0.75062183  0.16606440  0.37497575  1
  Na  Na86  1  0.75057345  0.16651327  0.62622382  1
  Na  Na87  1  0.75113187  0.16556845  0.87480312  1
  Na  Na88  1  0.75093729  0.50008491  0.12473764  1
  Na  Na89  1  0.74800787  0.50081700  0.37414009  1
  Na  Na90  1  0.75227413  0.49935692  0.62498937  1
  Na  Na91  1  0.75124088  0.50047718  0.87598070  1
  Na  Na92  1  0.74937052  0.83402113  0.12564547  1
  Na  Na93  1  0.74899388  0.83410214  0.37371986  1
  Na  Na94  1  0.74947678  0.83389372  0.62473620  1
  Na  Na95  1  0.74833556  0.83487394  0.87571686  1
  Mn  Mn96  1  0.64191870  0.24985894  0.24726554  1
  Mn  Mn97  1  0.89217637  0.58284331  0.62665929  1
  Mn  Mn98  1  0.89204442  0.58347712  0.37740719  1
  Mn  Mn99  1  0.14226771  0.58357623  0.24712292  1
  Mn  Mn100  1  0.35736746  0.75118721  0.75251914  1
  Mn  Mn101  1  0.60846119  0.41628826  0.62354204  1
  Mn  Mn102  1  0.39301855  0.58340292  0.37736610  1
  Mn  Mn103  1  0.35647810  0.75019420  0.00192854  1
  Mn  Mn104  1  0.60818930  0.41591643  0.87253454  1
  Mn  Mn105  1  0.85867720  0.75132446  0.00272353  1
  Mn  Mn106  1  0.85781802  0.41664631  0.50155816  1
  Mn  Mn107  1  0.35713292  0.41683845  0.00210345  1
  Mn  Mn108  1  0.39210293  0.25017330  0.37781473  1
  Mn  Mn109  1  0.10800628  0.75027201  0.37314781  1
  Mn  Mn110  1  0.64308873  0.58350412  0.74777247  1
  Mn  Mn111  1  0.35744182  0.41634454  0.50161813  1
  Mn  Mn112  1  0.89297309  0.24953247  0.37683054  1
  Mn  Mn113  1  0.85765362  0.08372250  0.25133651  1
  Mn  Mn114  1  0.10808967  0.74966736  0.62190535  1
  Mn  Mn115  1  0.14148852  0.58324164  0.74749442  1
  Mn  Mn116  1  0.14256389  0.24998659  0.99744862  1
  Mn  Mn117  1  0.89222398  0.91701057  0.62746085  1
  Mn  Mn118  1  0.35787427  0.41637478  0.25263235  1
  Mn  Mn119  1  0.60778881  0.41580025  0.12229882  1
  Mn  Mn120  1  0.89239025  0.24957970  0.12739326  1
  Mn  Mn121  1  0.85816493  0.41618299  0.00246399  1
  Mn  Mn122  1  0.64231109  0.91713056  0.49744224  1
  Mn  Mn123  1  0.35738247  0.41562397  0.75240666  1
  Mn  Mn124  1  0.89198946  0.91727577  0.37698047  1
  Mn  Mn125  1  0.60802796  0.74979662  0.62275560  1
  Mn  Mn126  1  0.85761387  0.75010053  0.25162884  1
  Mn  Mn127  1  0.39166401  0.58285786  0.87800736  1
  Mn  Mn128  1  0.60824660  0.75030373  0.87325048  1
  Mn  Mn129  1  0.85812993  0.75075710  0.75291258  1
  Mn  Mn130  1  0.10750865  0.08375858  0.62314745  1
  Mn  Mn131  1  0.10753197  0.41646463  0.62256322  1
  Mn  Mn132  1  0.39198338  0.91672555  0.62755600  1
  Mn  Mn133  1  0.89284491  0.91677202  0.87741097  1
  Mn  Mn134  1  0.14291990  0.91675497  0.24733767  1
  Mn  Mn135  1  0.39199259  0.25005983  0.62649438  1
  Mn  Mn136  1  0.10727081  0.41717515  0.12272043  1
  Mn  Mn137  1  0.64187992  0.58315830  0.49811816  1
  Mn  Mn138  1  0.35817612  0.74963262  0.50227478  1
  Mn  Mn139  1  0.60703642  0.75043687  0.12222422  1
  Mn  Mn140  1  0.60788387  0.08281370  0.37255662  1
  Mn  Mn141  1  0.39202124  0.91689927  0.87713112  1
  Mn  Mn142  1  0.35700591  0.08395223  0.50215697  1
  Mn  Mn143  1  0.64300715  0.25003693  0.74789028  1
  Fe  Fe144  1  0.85686986  0.75067185  0.50099077  1
  Fe  Fe145  1  0.64279743  0.91696721  0.74846178  1
  Fe  Fe146  1  0.10721943  0.08387857  0.87309135  1
  Fe  Fe147  1  0.64180421  0.91665008  0.24740627  1
  Fe  Fe148  1  0.10760769  0.41623868  0.37292808  1
  Fe  Fe149  1  0.60770104  0.74990742  0.37281875  1
  Fe  Fe150  1  0.10781012  0.75046796  0.12391832  1
  Fe  Fe151  1  0.60618368  0.08348823  0.12293438  1
  Fe  Fe152  1  0.89326988  0.24975240  0.87665622  1
  Fe  Fe153  1  0.60775271  0.08353389  0.62358181  1
  Fe  Fe154  1  0.89279089  0.58429471  0.12635483  1
  Fe  Fe155  1  0.60683439  0.08387905  0.87340996  1
  Fe  Fe156  1  0.35698414  0.08307191  0.25156106  1
  Fe  Fe157  1  0.35709810  0.08281640  0.00202809  1
  Fe  Fe158  1  0.64357346  0.24978695  0.49903434  1
  Fe  Fe159  1  0.14242527  0.91680701  0.99875342  1
  Fe  Fe160  1  0.14281755  0.91672118  0.49751169  1
  Fe  Fe161  1  0.85678577  0.08316844  0.75261053  1
  Fe  Fe162  1  0.14278255  0.58326627  0.49843724  1
  Fe  Fe163  1  0.10755156  0.08351044  0.37335725  1
  Fe  Fe164  1  0.85710387  0.41648345  0.25168002  1
  Fe  Fe165  1  0.14230040  0.24906707  0.74905604  1
  Fe  Fe166  1  0.14303800  0.24947255  0.24773914  1
  Fe  Fe167  1  0.39219560  0.24971883  0.87664398  1
  Fe  Fe168  1  0.64225143  0.91691433  0.99875698  1
  Fe  Fe169  1  0.35782840  0.75024303  0.25152369  1
  Fe  Fe170  1  0.39197888  0.58307456  0.62624828  1
  Fe  Fe171  1  0.39239875  0.58317219  0.12636694  1
  Fe  Fe172  1  0.60815163  0.41695254  0.37272074  1
  Fe  Fe173  1  0.89354020  0.58320877  0.87711131  1
  Fe  Fe174  1  0.64222390  0.24960680  0.99768620  1
  Fe  Fe175  1  0.14134582  0.25002691  0.49807854  1
  Fe  Fe176  1  0.39288666  0.24999773  0.12671666  1
  Fe  Fe177  1  0.64281599  0.58333122  0.24753861  1
  Fe  Fe178  1  0.35715770  0.08340876  0.75163210  1
  Fe  Fe179  1  0.85769484  0.08311777  0.50180566  1
  Fe  Fe180  1  0.39227186  0.91697158  0.12644087  1
  Fe  Fe181  1  0.14262366  0.91782715  0.74851899  1
  Fe  Fe182  1  0.64309798  0.58327918  0.99839025  1
  Fe  Fe183  1  0.85674221  0.08289034  0.00163918  1
  Fe  Fe184  1  0.10657221  0.41601897  0.87328806  1
  Fe  Fe185  1  0.14163759  0.58346104  0.99879448  1
  Fe  Fe186  1  0.10732531  0.74986811  0.87299914  1
  Fe  Fe187  1  0.85856637  0.41631407  0.75234254  1
  Fe  Fe188  1  0.39331157  0.91628743  0.37650301  1
  Fe  Fe189  1  0.89238375  0.24998953  0.62654226  1
  Fe  Fe190  1  0.89307431  0.91640134  0.12593234  1
  Fe  Fe191  1  0.10772192  0.08235550  0.12289822  1
  P  P192  1  0.05471488  0.24887461  0.11125184  1
  P  P193  1  0.05562412  0.24945743  0.36032592  1
  P  P194  1  0.05334940  0.24962188  0.61078234  1
  P  P195  1  0.05290885  0.24922483  0.85954417  1
  P  P196  1  0.05233784  0.58427551  0.10982822  1
  P  P197  1  0.05492277  0.58284234  0.36105881  1
  P  P198  1  0.05358136  0.58299691  0.60883070  1
  P  P199  1  0.05350444  0.58304527  0.86125214  1
  P  P200  1  0.05325489  0.91682857  0.10974108  1
  P  P201  1  0.05477094  0.91767674  0.36101197  1
  P  P202  1  0.05530208  0.91725114  0.61051515  1
  P  P203  1  0.05552933  0.91757236  0.86069520  1
  P  P204  1  0.55260431  0.24876906  0.10925252  1
  P  P205  1  0.55490151  0.25035631  0.36127868  1
  P  P206  1  0.55426001  0.24864679  0.60963041  1
  P  P207  1  0.55334743  0.24887173  0.86112201  1
  P  P208  1  0.55382326  0.58319220  0.11036435  1
  P  P209  1  0.55472994  0.58341346  0.35914481  1
  P  P210  1  0.55178603  0.58318222  0.61030113  1
  P  P211  1  0.55479619  0.58320677  0.86123209  1
  P  P212  1  0.55319513  0.91779542  0.11049633  1
  P  P213  1  0.55315913  0.91609263  0.35897077  1
  P  P214  1  0.55461175  0.91796772  0.61135042  1
  P  P215  1  0.55531025  0.91788659  0.86101270  1
  P  P216  1  0.44530679  0.08344225  0.13885297  1
  P  P217  1  0.44519486  0.08230726  0.38861445  1
  P  P218  1  0.44711667  0.08351817  0.64064433  1
  P  P219  1  0.44517697  0.08386215  0.88946196  1
  P  P220  1  0.44638564  0.41635076  0.13973915  1
  P  P221  1  0.44850331  0.41665238  0.39007758  1
  P  P222  1  0.44671185  0.41687804  0.64004328  1
  P  P223  1  0.44649699  0.41538733  0.89030305  1
  P  P224  1  0.44525439  0.75006743  0.13978286  1
  P  P225  1  0.44720307  0.75101973  0.38844596  1
  P  P226  1  0.44669365  0.74949146  0.64038206  1
  P  P227  1  0.44659771  0.75047304  0.89064018  1
  P  P228  1  0.94683094  0.08194756  0.13847320  1
  P  P229  1  0.94748900  0.08343707  0.39049677  1
  P  P230  1  0.94430955  0.08407518  0.63971986  1
  P  P231  1  0.94586319  0.08394382  0.88941908  1
  P  P232  1  0.94583704  0.41734821  0.14099555  1
  P  P233  1  0.94696903  0.41615517  0.38853553  1
  P  P234  1  0.94597256  0.41553614  0.64025920  1
  P  P235  1  0.94671064  0.41580110  0.88875708  1
  P  P236  1  0.94835088  0.75086065  0.13985409  1
  P  P237  1  0.94595854  0.75061928  0.39069820  1
  P  P238  1  0.94567698  0.75034038  0.63897377  1
  P  P239  1  0.94829819  0.74999582  0.88986041  1
  P  P240  1  0.19593571  0.08372526  0.23536367  1
  P  P241  1  0.19557658  0.08352040  0.48405394  1
  P  P242  1  0.19627490  0.08392908  0.73671154  1
  P  P243  1  0.19574849  0.08238027  0.98597946  1
  P  P244  1  0.19537375  0.41566639  0.23578981  1
  P  P245  1  0.19578284  0.41658917  0.48427103  1
  P  P246  1  0.19453966  0.41506018  0.73662437  1
  P  P247  1  0.19545228  0.41766306  0.98448869  1
  P  P248  1  0.19757524  0.75044522  0.23431355  1
  P  P249  1  0.19717259  0.74984321  0.48471507  1
  P  P250  1  0.19482029  0.75107045  0.73625756  1
  P  P251  1  0.19379085  0.74988971  0.98611888  1
  P  P252  1  0.69542660  0.08261310  0.23369988  1
  P  P253  1  0.69712052  0.08437413  0.48639402  1
  P  P254  1  0.69582618  0.08292864  0.73621100  1
  P  P255  1  0.69497034  0.08343976  0.98584133  1
  P  P256  1  0.69673948  0.41727601  0.23542008  1
  P  P257  1  0.69627826  0.41568582  0.48461196  1
  P  P258  1  0.69915414  0.41661101  0.73538527  1
  P  P259  1  0.69668916  0.41625765  0.98508589  1
  P  P260  1  0.69478945  0.75015978  0.23565973  1
  P  P261  1  0.69707607  0.75014359  0.48386817  1
  P  P262  1  0.69700506  0.75098446  0.73529977  1
  P  P263  1  0.69691350  0.75026456  0.98572111  1
  P  P264  1  0.30531404  0.24900938  0.01434107  1
  P  P265  1  0.30380398  0.24886863  0.26362650  1
  P  P266  1  0.30084870  0.25023154  0.51483061  1
  P  P267  1  0.30264932  0.24878631  0.76578799  1
  P  P268  1  0.30157608  0.58318927  0.01561447  1
  P  P269  1  0.30503563  0.58415936  0.26371974  1
  P  P270  1  0.30238434  0.58288737  0.51541703  1
  P  P271  1  0.30417380  0.58333155  0.76424597  1
  P  P272  1  0.30250910  0.91764349  0.01533155  1
  P  P273  1  0.30583077  0.91672411  0.26380468  1
  P  P274  1  0.30325235  0.91676416  0.51363644  1
  P  P275  1  0.30171389  0.91788335  0.76528058  1
  P  P276  1  0.80346094  0.24852027  0.01341287  1
  P  P277  1  0.80335021  0.25039591  0.26469492  1
  P  P278  1  0.80348270  0.24915675  0.51535647  1
  P  P279  1  0.80582881  0.24965935  0.76450080  1
  P  P280  1  0.80460790  0.58381142  0.01460648  1
  P  P281  1  0.80394666  0.58280872  0.26333062  1
  P  P282  1  0.80295069  0.58443597  0.51446330  1
  P  P283  1  0.80503437  0.58267424  0.76604712  1
  P  P284  1  0.80274524  0.91795825  0.01548407  1
  P  P285  1  0.80307587  0.91708400  0.26324651  1
  P  P286  1  0.80338391  0.91681643  0.51461727  1
  P  P287  1  0.80226801  0.91784493  0.76549200  1
  O  O288  1  0.05885135  0.24914019  0.18773736  1
  O  O289  1  0.05859987  0.24965098  0.43726995  1
  O  O290  1  0.05821955  0.24906695  0.68729939  1
  O  O291  1  0.05652623  0.24909051  0.93688153  1
  O  O292  1  0.05597737  0.58363737  0.18652933  1
  O  O293  1  0.05920968  0.58340580  0.43777804  1
  O  O294  1  0.05643296  0.58328533  0.68559838  1
  O  O295  1  0.05770131  0.58305119  0.93799486  1
  O  O296  1  0.05662170  0.91721230  0.18626667  1
  O  O297  1  0.05882987  0.91685627  0.43784328  1
  O  O298  1  0.05962492  0.91763054  0.68726213  1
  O  O299  1  0.05917782  0.91772782  0.93748166  1
  O  O300  1  0.55631962  0.24943732  0.18600957  1
  O  O301  1  0.55948105  0.24952290  0.43791285  1
  O  O302  1  0.55714990  0.24931757  0.68646253  1
  O  O303  1  0.55825919  0.24951359  0.93774437  1
  O  O304  1  0.55894215  0.58312976  0.18703604  1
  O  O305  1  0.55718665  0.58356872  0.43597737  1
  O  O306  1  0.55585436  0.58319375  0.68699136  1
  O  O307  1  0.55974400  0.58327731  0.93799446  1
  O  O308  1  0.55779730  0.91711969  0.18714793  1
  O  O309  1  0.55683756  0.91679189  0.43573737  1
  O  O310  1  0.55883409  0.91753543  0.68809803  1
  O  O311  1  0.55920093  0.91702982  0.93782323  1
  O  O312  1  0.44113309  0.08295866  0.06213313  1
  O  O313  1  0.44106600  0.08350329  0.31193528  1
  O  O314  1  0.44292767  0.08325830  0.56390903  1
  O  O315  1  0.44049705  0.08312799  0.81277485  1
  O  O316  1  0.44332444  0.41663708  0.06303168  1
  O  O317  1  0.44407826  0.41620600  0.31340025  1
  O  O318  1  0.44373883  0.41624970  0.56327560  1
  O  O319  1  0.44326309  0.41591271  0.81351566  1
  O  O320  1  0.44217591  0.75003451  0.06301640  1
  O  O321  1  0.44237550  0.75037253  0.31181961  1
  O  O322  1  0.44391291  0.75038106  0.56350513  1
  O  O323  1  0.44335859  0.75079419  0.81386551  1
  O  O324  1  0.94162414  0.08285670  0.06182298  1
  O  O325  1  0.94338925  0.08325998  0.31379608  1
  O  O326  1  0.94051471  0.08323014  0.56299832  1
  O  O327  1  0.94104573  0.08286042  0.81276955  1
  O  O328  1  0.94312883  0.41631218  0.06379297  1
  O  O329  1  0.94164222  0.41639663  0.31200606  1
  O  O330  1  0.94319612  0.41601748  0.56337533  1
  O  O331  1  0.94263963  0.41595900  0.81223090  1
  O  O332  1  0.94509427  0.75082714  0.06309395  1
  O  O333  1  0.94259865  0.75069940  0.31390810  1
  O  O334  1  0.94093650  0.75078652  0.56227198  1
  O  O335  1  0.94445099  0.75082610  0.81318874  1
  O  O336  1  0.19119805  0.08297287  0.06264681  1
  O  O337  1  0.19140510  0.08297133  0.31196994  1
  O  O338  1  0.19293381  0.08377770  0.56135292  1
  O  O339  1  0.19186632  0.08413096  0.81326878  1
  O  O340  1  0.19271748  0.41669009  0.06125337  1
  O  O341  1  0.19125045  0.41650698  0.31249894  1
  O  O342  1  0.19335807  0.41642134  0.56115217  1
  O  O343  1  0.19013571  0.41584417  0.81336488  1
  O  O344  1  0.19045413  0.74977917  0.06293482  1
  O  O345  1  0.19341260  0.75038428  0.31097974  1
  O  O346  1  0.19436919  0.74997349  0.56152278  1
  O  O347  1  0.19069777  0.75000815  0.81310156  1
  O  O348  1  0.69016596  0.08381768  0.06250280  1
  O  O349  1  0.69286466  0.08310096  0.31068248  1
  O  O350  1  0.69255976  0.08370743  0.56296632  1
  O  O351  1  0.69102996  0.08377616  0.81286883  1
  O  O352  1  0.69382075  0.41610328  0.06179173  1
  O  O353  1  0.69208654  0.41667886  0.31211996  1
  O  O354  1  0.69374483  0.41657180  0.56143224  1
  O  O355  1  0.69486820  0.41636739  0.81206794  1
  O  O356  1  0.69366265  0.75001739  0.06248366  1
  O  O357  1  0.69102474  0.75045742  0.31241481  1
  O  O358  1  0.69353186  0.75005432  0.56064116  1
  O  O359  1  0.69395494  0.75024602  0.81205312  1
  O  O360  1  0.30874498  0.24967415  0.18694424  1
  O  O361  1  0.30523515  0.25020236  0.43817003  1
  O  O362  1  0.30623706  0.24951716  0.68903416  1
  O  O363  1  0.30898507  0.24974544  0.93780508  1
  O  O364  1  0.30930764  0.58321621  0.18698449  1
  O  O365  1  0.30657607  0.58309699  0.43866698  1
  O  O366  1  0.30877785  0.58304934  0.68748509  1
  O  O367  1  0.30526208  0.58313250  0.93885362  1
  O  O368  1  0.30949665  0.91678451  0.18692800  1
  O  O369  1  0.30856982  0.91640224  0.43706247  1
  O  O370  1  0.30539573  0.91730569  0.68851590  1
  O  O371  1  0.30605585  0.91730881  0.93867691  1
  O  O372  1  0.80643357  0.24968432  0.18791444  1
  O  O373  1  0.80702698  0.24945455  0.43860469  1
  O  O374  1  0.80918914  0.24989477  0.68775554  1
  O  O375  1  0.80879882  0.24911560  0.93682389  1
  O  O376  1  0.80908245  0.58376723  0.18664865  1
  O  O377  1  0.80559028  0.58363704  0.43764566  1
  O  O378  1  0.80758848  0.58334805  0.68921472  1
  O  O379  1  0.81025030  0.58387391  0.93799158  1
  O  O380  1  0.80853441  0.91697098  0.18665086  1
  O  O381  1  0.80594096  0.91713374  0.43778622  1
  O  O382  1  0.80618849  0.91718213  0.68885768  1
  O  O383  1  0.80692562  0.91728409  0.93885049  1
  O  O384  1  0.23492328  0.24940114  0.03849466  1
  O  O385  1  0.23340099  0.24902566  0.28702863  1
  O  O386  1  0.23071386  0.24990142  0.53906052  1
  O  O387  1  0.23261734  0.24912517  0.79048865  1
  O  O388  1  0.23146987  0.58347867  0.04003982  1
  O  O389  1  0.23492331  0.58389280  0.28754870  1
  O  O390  1  0.23226668  0.58297872  0.53972788  1
  O  O391  1  0.23401146  0.58351593  0.78784397  1
  O  O392  1  0.23237496  0.91694513  0.03978438  1
  O  O393  1  0.23581854  0.91675134  0.28786124  1
  O  O394  1  0.23280218  0.91721908  0.53707268  1
  O  O395  1  0.23178544  0.91792192  0.79005079  1
  O  O396  1  0.73303667  0.24921363  0.03686015  1
  O  O397  1  0.73368851  0.24941156  0.28975973  1
  O  O398  1  0.73354559  0.25002079  0.54026517  1
  O  O399  1  0.73582117  0.24920899  0.78907865  1
  O  O400  1  0.73406767  0.58317251  0.03759193  1
  O  O401  1  0.73352516  0.58355064  0.28670547  1
  O  O402  1  0.73353096  0.58342210  0.54038978  1
  O  O403  1  0.73537627  0.58351130  0.79135430  1
  O  O404  1  0.73242236  0.91739860  0.03930674  1
  O  O405  1  0.73264094  0.91703520  0.28663680  1
  O  O406  1  0.73384073  0.91740405  0.54020378  1
  O  O407  1  0.73224292  0.91767490  0.79002752  1
  O  O408  1  0.26639322  0.08299932  0.21179655  1
  O  O409  1  0.26512713  0.08356213  0.45890753  1
  O  O410  1  0.26632273  0.08376658  0.71203981  1
  O  O411  1  0.26616387  0.08310054  0.96258866  1
  O  O412  1  0.26534065  0.41611047  0.21149175  1
  O  O413  1  0.26527843  0.41632571  0.45829373  1
  O  O414  1  0.26452165  0.41541350  0.71239324  1
  O  O415  1  0.26499938  0.41683504  0.95916028  1
  O  O416  1  0.26775489  0.75057932  0.21034207  1
  O  O417  1  0.26669603  0.74983313  0.45903299  1
  O  O418  1  0.26471648  0.75071901  0.71178473  1
  O  O419  1  0.26370397  0.75050872  0.96131532  1
  O  O420  1  0.76508491  0.08352526  0.20860057  1
  O  O421  1  0.76731867  0.08340909  0.46203941  1
  O  O422  1  0.76630676  0.08378267  0.71290980  1
  O  O423  1  0.76542615  0.08298378  0.96219103  1
  O  O424  1  0.76689468  0.41685311  0.21121612  1
  O  O425  1  0.76593636  0.41658152  0.45915569  1
  O  O426  1  0.76922592  0.41629423  0.71119980  1
  O  O427  1  0.76657869  0.41625827  0.95997162  1
  O  O428  1  0.76472196  0.75002869  0.21106322  1
  O  O429  1  0.76698383  0.75057735  0.45896040  1
  O  O430  1  0.76665625  0.75084449  0.71012490  1
  O  O431  1  0.76663043  0.75115599  0.96053612  1
  O  O432  1  0.01720020  0.08223411  0.16210520  1
  O  O433  1  0.01761798  0.08389677  0.41468366  1
  O  O434  1  0.01460498  0.08346478  0.66374602  1
  O  O435  1  0.01641961  0.08364542  0.91268240  1
  O  O436  1  0.01556806  0.41696454  0.16570363  1
  O  O437  1  0.01730936  0.41555484  0.41210040  1
  O  O438  1  0.01565009  0.41645891  0.66535617  1
  O  O439  1  0.01689350  0.41575068  0.91330741  1
  O  O440  1  0.01822758  0.75078341  0.16514308  1
  O  O441  1  0.01579563  0.75044614  0.41527042  1
  O  O442  1  0.01575561  0.75004002  0.66282999  1
  O  O443  1  0.01845829  0.75028872  0.91403526  1
  O  O444  1  0.51567157  0.08340919  0.16286411  1
  O  O445  1  0.51531138  0.08230929  0.41285907  1
  O  O446  1  0.51723809  0.08376162  0.66486231  1
  O  O447  1  0.51562694  0.08345772  0.91295198  1
  O  O448  1  0.51609521  0.41591051  0.16493285  1
  O  O449  1  0.51866769  0.41726179  0.41399968  1
  O  O450  1  0.51630405  0.41608823  0.66569790  1
  O  O451  1  0.51616709  0.41591842  0.91541588  1
  O  O452  1  0.51510724  0.75033393  0.16450650  1
  O  O453  1  0.51750635  0.75014131  0.41236335  1
  O  O454  1  0.51623144  0.74983396  0.66593950  1
  O  O455  1  0.51620962  0.75050422  0.91581388  1
  O  O456  1  0.48241936  0.24930661  0.08520634  1
  O  O457  1  0.48489421  0.24971758  0.33702639  1
  O  O458  1  0.48463647  0.24951415  0.58418890  1
  O  O459  1  0.48306335  0.24888000  0.83734673  1
  O  O460  1  0.48323656  0.58348641  0.08725533  1
  O  O461  1  0.48502794  0.58326543  0.33386747  1
  O  O462  1  0.48188259  0.58323896  0.58532332  1
  O  O463  1  0.48457714  0.58301779  0.83787197  1
  O  O464  1  0.48269867  0.91738774  0.08699010  1
  O  O465  1  0.48314645  0.91696876  0.33449138  1
  O  O466  1  0.48468965  0.91706357  0.58684775  1
  O  O467  1  0.48524072  0.91745638  0.83687040  1
  O  O468  1  0.98477242  0.24954740  0.08670549  1
  O  O469  1  0.98576178  0.24919890  0.33546818  1
  O  O470  1  0.98307933  0.24954640  0.58698136  1
  O  O471  1  0.98290797  0.24923342  0.83548540  1
  O  O472  1  0.98222957  0.58366389  0.08526979  1
  O  O473  1  0.98486027  0.58383826  0.33698314  1
  O  O474  1  0.98393525  0.58238226  0.58369181  1
  O  O475  1  0.98325876  0.58314409  0.83700813  1
  O  O476  1  0.98331304  0.91672800  0.08443136  1
  O  O477  1  0.98482716  0.91722189  0.33658713  1
  O  O478  1  0.98520322  0.91758265  0.58687180  1
  O  O479  1  0.98553476  0.91725355  0.83611846  1
  O  O480  1  0.08847034  0.31393383  0.07805846  1
  O  O481  1  0.08956657  0.31445295  0.32756034  1
  O  O482  1  0.08676932  0.31452791  0.57735255  1
  O  O483  1  0.08687276  0.31412304  0.82726930  1
  O  O484  1  0.08612600  0.64943292  0.07745911  1
  O  O485  1  0.08876602  0.64771235  0.32779926  1
  O  O486  1  0.08767244  0.64798033  0.57622704  1
  O  O487  1  0.08687770  0.64811400  0.82805762  1
  O  O488  1  0.08745930  0.98167504  0.07664794  1
  O  O489  1  0.08809376  0.98299123  0.32831963  1
  O  O490  1  0.08901712  0.98231080  0.57739899  1
  O  O491  1  0.08891727  0.98295181  0.82775236  1
  O  O492  1  0.58686423  0.31349709  0.07629210  1
  O  O493  1  0.58809940  0.31571179  0.32826318  1
  O  O494  1  0.58935757  0.31330940  0.57745083  1
  O  O495  1  0.58675363  0.31372898  0.82740218  1
  O  O496  1  0.58724165  0.64813742  0.07695098  1
  O  O497  1  0.58885279  0.64849376  0.32674005  1
  O  O498  1  0.58571221  0.64817366  0.57747166  1
  O  O499  1  0.58789438  0.64840410  0.82797513  1
  O  O500  1  0.58645382  0.98285610  0.07728825  1
  O  O501  1  0.58754435  0.98091105  0.32606690  1
  O  O502  1  0.58766929  0.98344353  0.57841542  1
  O  O503  1  0.58866530  0.98328547  0.82838781  1
  O  O504  1  0.41174053  0.01850216  0.17216638  1
  O  O505  1  0.41185244  0.01692113  0.42116932  1
  O  O506  1  0.41324166  0.01860736  0.67380464  1
  O  O507  1  0.41167525  0.01901935  0.92325431  1
  O  O508  1  0.41227800  0.35109781  0.17200680  1
  O  O509  1  0.41502380  0.35162657  0.42327775  1
  O  O510  1  0.41220382  0.35178254  0.67227220  1
  O  O511  1  0.41258577  0.35009762  0.92228207  1
  O  O512  1  0.41139528  0.68499639  0.17245134  1
  O  O513  1  0.41348806  0.68618142  0.42189668  1
  O  O514  1  0.41242166  0.68428508  0.67204586  1
  O  O515  1  0.41234643  0.68543771  0.92288360  1
  O  O516  1  0.91376586  0.01668535  0.17158602  1
  O  O517  1  0.91377644  0.01844769  0.42352121  1
  O  O518  1  0.91053211  0.01940986  0.67337259  1
  O  O519  1  0.91239039  0.01918012  0.92329916  1
  O  O520  1  0.91138904  0.35249994  0.17334062  1
  O  O521  1  0.91355757  0.35121529  0.42193248  1
  O  O522  1  0.91227952  0.35021317  0.67252591  1
  O  O523  1  0.91337111  0.35056861  0.92198695  1
  O  O524  1  0.91423087  0.68580994  0.17228412  1
  O  O525  1  0.91162325  0.68571719  0.42313726  1
  O  O526  1  0.91223632  0.68513541  0.67180651  1
  O  O527  1  0.91467281  0.68497939  0.92255732  1
  O  O528  1  0.16234356  0.01889972  0.20174773  1
  O  O529  1  0.16138842  0.01845296  0.45197378  1
  O  O530  1  0.16254724  0.01899475  0.70344910  1
  O  O531  1  0.16253923  0.01737305  0.95282092  1
  O  O532  1  0.16201352  0.35040815  0.20305260  1
  O  O533  1  0.16103489  0.35158393  0.45229633  1
  O  O534  1  0.16131354  0.34961022  0.70400308  1
  O  O535  1  0.16071565  0.35264648  0.95195236  1
  O  O536  1  0.16356787  0.68560707  0.20132751  1
  O  O537  1  0.16302945  0.68461529  0.45266183  1
  O  O538  1  0.16102213  0.68620771  0.70302862  1
  O  O539  1  0.16038363  0.68464143  0.95312328  1
  O  O540  1  0.66133392  0.01743329  0.20163673  1
  O  O541  1  0.66312801  0.01972973  0.45275319  1
  O  O542  1  0.66290865  0.01769009  0.70286689  1
  O  O543  1  0.66139721  0.01831937  0.95294765  1
  O  O544  1  0.66320470  0.35219498  0.20216632  1
  O  O545  1  0.66258024  0.35015349  0.45271014  1
  O  O546  1  0.66524741  0.35160052  0.70267678  1
  O  O547  1  0.66282188  0.35108152  0.95256702  1
  O  O548  1  0.66114380  0.68499117  0.20294996  1
  O  O549  1  0.66305612  0.68506917  0.45135828  1
  O  O550  1  0.66307950  0.68589308  0.70256408  1
  O  O551  1  0.66345191  0.68493017  0.95316207  1
  O  O552  1  0.33888416  0.31383668  0.04784646  1
  O  O553  1  0.33691691  0.31377029  0.29757384  1
  O  O554  1  0.33441454  0.31527368  0.54774056  1
  O  O555  1  0.33693226  0.31353166  0.79879519  1
  O  O556  1  0.33586465  0.64812115  0.04803406  1
  O  O557  1  0.33823673  0.64960356  0.29644423  1
  O  O558  1  0.33641104  0.64782042  0.54825203  1
  O  O559  1  0.33753256  0.64838777  0.79745669  1
  O  O560  1  0.33627180  0.98271597  0.04811943  1
  O  O561  1  0.33940303  0.98184686  0.29672870  1
  O  O562  1  0.33647345  0.98181348  0.54713146  1
  O  O563  1  0.33567716  0.98294894  0.79764907  1
  O  O564  1  0.83706005  0.31344128  0.04695661  1
  O  O565  1  0.83698312  0.31571771  0.29698161  1
  O  O566  1  0.83796990  0.31405815  0.54788142  1
  O  O567  1  0.83949662  0.31469418  0.79760019  1
  O  O568  1  0.83744637  0.64895710  0.04833240  1
  O  O569  1  0.83746595  0.64766685  0.29682759  1
  O  O570  1  0.83670962  0.64988307  0.54634420  1
  O  O571  1  0.83980438  0.64744475  0.79859322  1
  O  O572  1  0.83627014  0.98316469  0.04821377  1
  O  O573  1  0.83616663  0.98220090  0.29676954  1
  O  O574  1  0.83798221  0.98160595  0.54697007  1
  O  O575  1  0.83596200  0.98298367  0.79816290  1
  O  O576  1  0.41194454  0.14861660  0.17200143  1
  O  O577  1  0.41181395  0.14718908  0.42230913  1
  O  O578  1  0.41302019  0.14857504  0.67320247  1
  O  O579  1  0.41183419  0.14888370  0.92259638  1
  O  O580  1  0.41260119  0.48159099  0.17220578  1
  O  O581  1  0.41454396  0.48169483  0.42259322  1
  O  O582  1  0.41269890  0.48208185  0.67215343  1
  O  O583  1  0.41217842  0.48027882  0.92297025  1
  O  O584  1  0.41118870  0.81524112  0.17212338  1
  O  O585  1  0.41433710  0.81638296  0.42169640  1
  O  O586  1  0.41244542  0.81464883  0.67282951  1
  O  O587  1  0.41239659  0.81555945  0.92290883  1
  O  O588  1  0.91361989  0.14686317  0.17229604  1
  O  O589  1  0.91334964  0.14830168  0.42329027  1
  O  O590  1  0.91115176  0.14935714  0.67243724  1
  O  O591  1  0.91266761  0.14911014  0.92262489  1
  O  O592  1  0.91188424  0.48265855  0.17261625  1
  O  O593  1  0.91404121  0.48127133  0.42218142  1
  O  O594  1  0.91128762  0.48026342  0.67277380  1
  O  O595  1  0.91323989  0.48082660  0.92202345  1
  O  O596  1  0.91430104  0.81606470  0.17210972  1
  O  O597  1  0.91193272  0.81564798  0.42325878  1
  O  O598  1  0.91258679  0.81539789  0.67267178  1
  O  O599  1  0.91473877  0.81506472  0.92301310  1
  O  O600  1  0.08807399  0.18374703  0.07799296  1
  O  O601  1  0.08958725  0.18430260  0.32776936  1
  O  O602  1  0.08692045  0.18469079  0.57713774  1
  O  O603  1  0.08673573  0.18418873  0.82699267  1
  O  O604  1  0.08646828  0.51945222  0.07678768  1
  O  O605  1  0.08784989  0.51744996  0.32801012  1
  O  O606  1  0.08822944  0.51812255  0.57677724  1
  O  O607  1  0.08667949  0.51785088  0.82812153  1
  O  O608  1  0.08750844  0.85171836  0.07744566  1
  O  O609  1  0.08862729  0.85287187  0.32775956  1
  O  O610  1  0.08886430  0.85239166  0.57718713  1
  O  O611  1  0.08952282  0.85264000  0.82795320  1
  O  O612  1  0.58614135  0.18359910  0.07653364  1
  O  O613  1  0.58850808  0.18540170  0.32780323  1
  O  O614  1  0.58810826  0.18323473  0.57748716  1
  O  O615  1  0.58670585  0.18372119  0.82808099  1
  O  O616  1  0.58702205  0.51817133  0.07695560  1
  O  O617  1  0.58918864  0.51835047  0.32694054  1
  O  O618  1  0.58581547  0.51807762  0.57787605  1
  O  O619  1  0.58815601  0.51819193  0.82786469  1
  O  O620  1  0.58675828  0.85298494  0.07691165  1
  O  O621  1  0.58678461  0.85093872  0.32634068  1
  O  O622  1  0.58866071  0.85315034  0.57824634  1
  O  O623  1  0.58937245  0.85323911  0.82764295  1
  O  O624  1  0.33853747  0.18373918  0.04721654  1
  O  O625  1  0.33686501  0.18362598  0.29673832  1
  O  O626  1  0.33472748  0.18529039  0.54771624  1
  O  O627  1  0.33662290  0.18367358  0.79824902  1
  O  O628  1  0.33549161  0.51820271  0.04837004  1
  O  O629  1  0.33842887  0.51926380  0.29733345  1
  O  O630  1  0.33609415  0.51775818  0.54814618  1
  O  O631  1  0.33729260  0.51811684  0.79753609  1
  O  O632  1  0.33685060  0.85286074  0.04807264  1
  O  O633  1  0.33949255  0.85160256  0.29680283  1
  O  O634  1  0.33621121  0.85173620  0.54741737  1
  O  O635  1  0.33537762  0.85287666  0.79829959  1
  O  O636  1  0.83635801  0.18330588  0.04684911  1
  O  O637  1  0.83784834  0.18549225  0.29709712  1
  O  O638  1  0.83721625  0.18408537  0.54807627  1
  O  O639  1  0.83973181  0.18460824  0.79737611  1
  O  O640  1  0.83817312  0.51883729  0.04796793  1
  O  O641  1  0.83674557  0.51750479  0.29666995  1
  O  O642  1  0.83779913  0.51955926  0.54652058  1
  O  O643  1  0.83898821  0.51730360  0.79810210  1
  O  O644  1  0.83687584  0.85324119  0.04878320  1
  O  O645  1  0.83636280  0.85211590  0.29670597  1
  O  O646  1  0.83711732  0.85134454  0.54673992  1
  O  O647  1  0.83616414  0.85293548  0.79859876  1
  O  O648  1  0.16276496  0.14877786  0.20197893  1
  O  O649  1  0.16119308  0.14851899  0.45209363  1
  O  O650  1  0.16266601  0.14901477  0.70344843  1
  O  O651  1  0.16207708  0.14731427  0.95224507  1
  O  O652  1  0.16163608  0.48062560  0.20261043  1
  O  O653  1  0.16154667  0.48178175  0.45213795  1
  O  O654  1  0.16094213  0.47994146  0.70328349  1
  O  O655  1  0.16135427  0.48287970  0.95261006  1
  O  O656  1  0.16369538  0.81534624  0.20141621  1
  O  O657  1  0.16297771  0.81499929  0.45244434  1
  O  O658  1  0.16149814  0.81652391  0.70389100  1
  O  O659  1  0.15971813  0.81498689  0.95364661  1
  O  O660  1  0.66061921  0.14732646  0.20132465  1
  O  O661  1  0.66412612  0.14970730  0.45328077  1
  O  O662  1  0.66221757  0.14761749  0.70240881  1
  O  O663  1  0.66188577  0.14843360  0.95193210  1
  O  O664  1  0.66341035  0.48239563  0.20236703  1
  O  O665  1  0.66141698  0.48030465  0.45201025  1
  O  O666  1  0.66554421  0.48168226  0.70253806  1
  O  O667  1  0.66290556  0.48156851  0.95298074  1
  O  O668  1  0.66116003  0.81531054  0.20273496  1
  O  O669  1  0.66264913  0.81505366  0.45136156  1
  O  O670  1  0.66292396  0.81623359  0.70331132  1
  O  O671  1  0.66238636  0.81536975  0.95386006  1
