# generated using pymatgen
data_Na2MnFe(PO4)2
_symmetry_space_group_name_H-M   'P 1'
_cell_length_a   21.08007884
_cell_length_b   18.93173220
_cell_length_c   20.03929406
_cell_angle_alpha   90.00006742
_cell_angle_beta   89.99764249
_cell_angle_gamma   90.00287827
_symmetry_Int_Tables_number   1
_chemical_formula_structural   Na2MnFe(PO4)2
_chemical_formula_sum   'Na96 Mn48 Fe48 P96 O384'
_cell_volume   7997.32969734
_cell_formula_units_Z   48
loop_
 _symmetry_equiv_pos_site_id
 _symmetry_equiv_pos_as_xyz
  1  'x, y, z'
loop_
 _atom_site_type_symbol
 _atom_site_label
 _atom_site_symmetry_multiplicity
 _atom_site_fract_x
 _atom_site_fract_y
 _atom_site_fract_z
 _atom_site_occupancy
  Na  Na0  1  0.00182054  0.00036275  -0.00005508  1
  Na  Na1  1  -0.00059911  -0.00027545  0.24946179  1
  Na  Na2  1  0.00010501  -0.00054552  0.50061585  1
  Na  Na3  1  0.00176034  0.00014397  0.75060335  1
  Na  Na4  1  0.00038441  0.33345448  -0.00053762  1
  Na  Na5  1  0.00080566  0.33387879  0.25011119  1
  Na  Na6  1  0.00069614  0.33278055  0.50049621  1
  Na  Na7  1  0.00229017  0.33402067  0.75008472  1
  Na  Na8  1  -0.00036762  0.66661870  -0.00103947  1
  Na  Na9  1  -0.00166603  0.66641166  0.25142293  1
  Na  Na10  1  -0.00260265  0.66582221  0.50052436  1
  Na  Na11  1  -0.00080140  0.66640266  0.74860268  1
  Na  Na12  1  0.49983312  0.00011881  0.00017490  1
  Na  Na13  1  0.49951184  -0.00003059  0.24957167  1
  Na  Na14  1  0.50123649  0.00051505  0.49889123  1
  Na  Na15  1  0.50024314  -0.00065374  0.75099512  1
  Na  Na16  1  0.50061365  0.33448908  -0.00076686  1
  Na  Na17  1  0.49979771  0.33327229  0.24878972  1
  Na  Na18  1  0.49981977  0.33368027  0.50074850  1
  Na  Na19  1  0.49858071  0.33344874  0.75106417  1
  Na  Na20  1  0.49822237  0.66574639  0.00010492  1
  Na  Na21  1  0.50016470  0.66629077  0.25006760  1
  Na  Na22  1  0.50010024  0.66605691  0.50013166  1
  Na  Na23  1  0.49892242  0.66585225  0.74994195  1
  Na  Na24  1  0.25073920  0.00037159  0.12590771  1
  Na  Na25  1  0.24966664  -0.00053994  0.37546146  1
  Na  Na26  1  0.24926639  -0.00012726  0.62490394  1
  Na  Na27  1  0.24820741  -0.00087561  0.87380011  1
  Na  Na28  1  0.24935974  0.33396655  0.12572167  1
  Na  Na29  1  0.24832397  0.33350825  0.37548095  1
  Na  Na30  1  0.24793632  0.33360510  0.62443068  1
  Na  Na31  1  0.24866442  0.33428394  0.87529951  1
  Na  Na32  1  0.25028447  0.66706401  0.12406949  1
  Na  Na33  1  0.24873880  0.66623873  0.37531494  1
  Na  Na34  1  0.24904648  0.66619921  0.62596877  1
  Na  Na35  1  0.25003103  0.66638032  0.87505693  1
  Na  Na36  1  0.75056641  0.00053929  0.12625294  1
  Na  Na37  1  0.74832919  -0.00060428  0.37572689  1
  Na  Na38  1  0.74876790  -0.00062168  0.62411277  1
  Na  Na39  1  0.75026680  0.00016970  0.87383056  1
  Na  Na40  1  0.75128721  0.33373985  0.12590154  1
  Na  Na41  1  0.75033527  0.33299116  0.37518466  1
  Na  Na42  1  0.75052448  0.33389182  0.62515433  1
  Na  Na43  1  0.74922085  0.33276042  0.87359650  1
  Na  Na44  1  0.75375474  0.66683583  0.12402732  1
  Na  Na45  1  0.75305117  0.66657505  0.37499560  1
  Na  Na46  1  0.75199749  0.66648669  0.62473879  1
  Na  Na47  1  0.75167080  0.66613886  0.87516912  1
  Na  Na48  1  -0.00026829  0.16673672  0.00011705  1
  Na  Na49  1  -0.00164562  0.16732600  0.24988417  1
  Na  Na50  1  -0.00003497  0.16697359  0.50106102  1
  Na  Na51  1  0.00090574  0.16675382  0.74988814  1
  Na  Na52  1  -0.00043691  0.50001563  0.00000657  1
  Na  Na53  1  -0.00115916  0.50079579  0.24987663  1
  Na  Na54  1  0.00175712  0.49945129  0.50068555  1
  Na  Na55  1  0.00140707  0.49968209  0.74955996  1
  Na  Na56  1  0.00324762  0.83203653  -0.00139196  1
  Na  Na57  1  -0.00045649  0.83395075  0.25083991  1
  Na  Na58  1  -0.00193169  0.83397146  0.50028990  1
  Na  Na59  1  0.00053747  0.83344326  0.74949021  1
  Na  Na60  1  0.49921232  0.16689728  0.00007017  1
  Na  Na61  1  0.49932154  0.16662909  0.24877906  1
  Na  Na62  1  0.50040104  0.16607390  0.49942488  1
  Na  Na63  1  0.50092828  0.16603878  0.75142418  1
  Na  Na64  1  0.49906563  0.50013480  -0.00045699  1
  Na  Na65  1  0.50157208  0.49924633  0.24979853  1
  Na  Na66  1  0.50049718  0.50022202  0.50049671  1
  Na  Na67  1  0.49918620  0.50024064  0.74982123  1
  Na  Na68  1  0.50063375  0.83259826  -0.00017139  1
  Na  Na69  1  0.49893148  0.83424053  0.24980013  1
  Na  Na70  1  0.49978765  0.83375033  0.49973284  1
  Na  Na71  1  0.49896314  0.83371750  0.75109751  1
  Na  Na72  1  0.25225463  0.16556624  0.12597205  1
  Na  Na73  1  0.25041301  0.16613734  0.37511569  1
  Na  Na74  1  0.24707680  0.16789132  0.62451908  1
  Na  Na75  1  0.24893704  0.16705283  0.87473170  1
  Na  Na76  1  0.24901340  0.50000241  0.12475969  1
  Na  Na77  1  0.24725602  0.50024004  0.37556201  1
  Na  Na78  1  0.24900033  0.49997168  0.62573004  1
  Na  Na79  1  0.24997120  0.49951041  0.87500596  1
  Na  Na80  1  0.24799657  0.83376890  0.12508556  1
  Na  Na81  1  0.25082465  0.83282226  0.37525484  1
  Na  Na82  1  0.24907229  0.83387849  0.62535739  1
  Na  Na83  1  0.24773411  0.83359996  0.87412053  1
  Na  Na84  1  0.75175167  0.16651549  0.12644932  1
  Na  Na85  1  0.75040383  0.16652687  0.37571954  1
  Na  Na86  1  0.74991670  0.16693761  0.62394862  1
  Na  Na87  1  0.75012334  0.16729939  0.87391263  1
  Na  Na88  1  0.75230752  0.49967547  0.12509290  1
  Na  Na89  1  0.74939709  0.50066587  0.37426535  1
  Na  Na90  1  0.74880358  0.50102960  0.62514702  1
  Na  Na91  1  0.75116526  0.50000194  0.87452240  1
  Na  Na92  1  0.75087253  0.83397916  0.12492031  1
  Na  Na93  1  0.75329543  0.83228395  0.37567026  1
  Na  Na94  1  0.75182549  0.83283323  0.62497991  1
  Na  Na95  1  0.74993028  0.83378468  0.87422183  1
  Mn  Mn96  1  0.89270735  0.91632689  0.12642183  1
  Mn  Mn97  1  0.60867980  0.41679365  0.12185960  1
  Mn  Mn98  1  0.85837852  0.08267857  0.25323990  1
  Mn  Mn99  1  0.14204312  0.24931056  0.99825886  1
  Mn  Mn100  1  0.60874038  0.75003805  0.37232238  1
  Mn  Mn101  1  0.60697786  0.41634977  0.62298372  1
  Mn  Mn102  1  0.39180088  0.58332664  0.12727066  1
  Mn  Mn103  1  0.39206842  0.25021584  0.12680591  1
  Mn  Mn104  1  0.39159341  0.25055018  0.87766094  1
  Mn  Mn105  1  0.64230689  0.91568131  0.74717101  1
  Mn  Mn106  1  0.64192861  0.25032386  0.74724031  1
  Mn  Mn107  1  0.35661835  0.41701712  0.50173933  1
  Mn  Mn108  1  0.14178563  0.58383782  0.99730740  1
  Mn  Mn109  1  0.10757942  0.08342101  0.62239016  1
  Mn  Mn110  1  0.85794114  0.08294756  0.75194026  1
  Mn  Mn111  1  0.85837979  0.41714951  0.75216195  1
  Mn  Mn112  1  0.35725491  0.41663677  0.25273938  1
  Mn  Mn113  1  0.35701715  0.74961644  0.75218013  1
  Mn  Mn114  1  0.60889983  0.74976732  0.12270072  1
  Mn  Mn115  1  0.14209810  0.91650281  0.24853810  1
  Mn  Mn116  1  0.39142675  0.91603801  0.87789412  1
  Mn  Mn117  1  0.39170283  0.91628742  0.12637853  1
  Mn  Mn118  1  0.35761114  0.74944144  0.50246053  1
  Mn  Mn119  1  0.85889881  0.41680745  0.25284206  1
  Mn  Mn120  1  0.35741606  0.08340824  0.50242230  1
  Mn  Mn121  1  0.35719900  0.08420413  0.75192037  1
  Mn  Mn122  1  0.39120356  0.24964476  0.62740433  1
  Mn  Mn123  1  0.89283732  0.25034516  0.87740650  1
  Mn  Mn124  1  0.64367412  0.58394189  0.24784278  1
  Mn  Mn125  1  0.35762683  0.75006835  0.25241237  1
  Mn  Mn126  1  0.60780651  0.74873220  0.87313094  1
  Mn  Mn127  1  0.64267341  0.91573859  0.24819362  1
  Mn  Mn128  1  0.14197615  0.24950356  0.24796012  1
  Mn  Mn129  1  0.10806703  0.08343540  0.12261965  1
  Mn  Mn130  1  0.85807084  0.41712484  0.50229703  1
  Mn  Mn131  1  0.39221593  0.58287402  0.37764041  1
  Mn  Mn132  1  0.60830584  0.08371707  0.87362338  1
  Mn  Mn133  1  0.64349946  0.58306809  0.99718163  1
  Mn  Mn134  1  0.85739859  0.08293505  0.50222310  1
  Mn  Mn135  1  0.64245762  0.25009603  0.24811289  1
  Mn  Mn136  1  0.14076691  0.58383204  0.24776337  1
  Mn  Mn137  1  0.10657715  0.74957303  0.62240387  1
  Mn  Mn138  1  0.60798625  0.08344298  0.12219462  1
  Mn  Mn139  1  0.64197409  0.25035131  0.49744126  1
  Mn  Mn140  1  0.10644666  0.75024984  0.37338508  1
  Mn  Mn141  1  0.60789540  0.75055036  0.62288591  1
  Mn  Mn142  1  0.89355572  0.91674752  0.87738827  1
  Mn  Mn143  1  0.85911961  0.75067063  0.00213296  1
  Fe  Fe144  1  0.89353445  0.25008866  0.62647755  1
  Fe  Fe145  1  0.14219483  0.25028090  0.74837809  1
  Fe  Fe146  1  0.39291860  0.91700161  0.37734808  1
  Fe  Fe147  1  0.89338471  0.24996733  0.37708067  1
  Fe  Fe148  1  0.10649010  0.41714029  0.12325590  1
  Fe  Fe149  1  0.39211992  0.58310519  0.87626356  1
  Fe  Fe150  1  0.39266298  0.25013501  0.37659743  1
  Fe  Fe151  1  0.64317877  0.91731496  0.99869831  1
  Fe  Fe152  1  0.89294191  0.58274327  0.37789936  1
  Fe  Fe153  1  0.89264177  0.58250728  0.62713196  1
  Fe  Fe154  1  0.39203488  0.58365419  0.62692675  1
  Fe  Fe155  1  0.85759502  0.74995090  0.75176635  1
  Fe  Fe156  1  0.10766415  0.41686281  0.87349279  1
  Fe  Fe157  1  0.85713787  0.75003577  0.50186047  1
  Fe  Fe158  1  0.10727305  0.74936737  0.12340400  1
  Fe  Fe159  1  0.35670881  0.41659901  0.00169082  1
  Fe  Fe160  1  0.85909809  0.75052224  0.25144168  1
  Fe  Fe161  1  0.14169168  0.24972809  0.49723556  1
  Fe  Fe162  1  0.10769367  0.74923885  0.87254272  1
  Fe  Fe163  1  0.89246418  0.25044235  0.12619331  1
  Fe  Fe164  1  0.10646519  0.41630965  0.37333262  1
  Fe  Fe165  1  0.14273251  0.91684932  0.99845823  1
  Fe  Fe166  1  0.10733172  0.41695138  0.62350096  1
  Fe  Fe167  1  0.64286323  0.58371705  0.74849820  1
  Fe  Fe168  1  0.89364898  0.58307072  0.87567199  1
  Fe  Fe169  1  0.85807585  0.41554549  0.00104369  1
  Fe  Fe170  1  0.60731236  0.41597233  0.37361205  1
  Fe  Fe171  1  0.85806608  0.08392578  0.00101067  1
  Fe  Fe172  1  0.64269940  0.91583222  0.49825929  1
  Fe  Fe173  1  0.89350757  0.58320962  0.12624000  1
  Fe  Fe174  1  0.39262893  0.91662055  0.62586082  1
  Fe  Fe175  1  0.60724575  0.41740476  0.87371634  1
  Fe  Fe176  1  0.10689572  0.08352510  0.37361387  1
  Fe  Fe177  1  0.14180598  0.58392436  0.49866305  1
  Fe  Fe178  1  0.64373325  0.24983746  0.99877836  1
  Fe  Fe179  1  0.35762552  0.08332018  0.25249299  1
  Fe  Fe180  1  0.89250222  0.91706728  0.62692506  1
  Fe  Fe181  1  0.89263439  0.91752750  0.37763160  1
  Fe  Fe182  1  0.14257158  0.91667166  0.74739112  1
  Fe  Fe183  1  0.14225190  0.91654908  0.49791592  1
  Fe  Fe184  1  0.35607680  0.41674814  0.75168189  1
  Fe  Fe185  1  0.60643544  0.08415094  0.37312330  1
  Fe  Fe186  1  0.60711115  0.08310305  0.62346071  1
  Fe  Fe187  1  0.35674099  0.08300681  0.00095314  1
  Fe  Fe188  1  0.10811834  0.08357750  0.87344997  1
  Fe  Fe189  1  0.35622455  0.75036294  0.00173589  1
  Fe  Fe190  1  0.64292245  0.58376863  0.49843965  1
  Fe  Fe191  1  0.14243064  0.58312851  0.74817787  1
  P  P192  1  0.05196274  0.25065156  0.11020528  1
  P  P193  1  0.05334329  0.24947334  0.36128511  1
  P  P194  1  0.05452328  0.25085491  0.61079784  1
  P  P195  1  0.05443784  0.24992393  0.85978252  1
  P  P196  1  0.05215057  0.58377912  0.10981629  1
  P  P197  1  0.05270918  0.58296311  0.36183428  1
  P  P198  1  0.05357891  0.58282193  0.61081902  1
  P  P199  1  0.05322266  0.58316495  0.85958054  1
  P  P200  1  0.05425119  0.91565339  0.10945399  1
  P  P201  1  0.05294052  0.91756732  0.36160333  1
  P  P202  1  0.05357629  0.91634278  0.61043706  1
  P  P203  1  0.05623615  0.91668650  0.86057696  1
  P  P204  1  0.55415377  0.25008163  0.10866025  1
  P  P205  1  0.55208549  0.25022757  0.35983793  1
  P  P206  1  0.55257390  0.24921845  0.61008730  1
  P  P207  1  0.55479660  0.25117701  0.86167037  1
  P  P208  1  0.55389910  0.58336787  0.10945683  1
  P  P209  1  0.55509228  0.58248268  0.36109730  1
  P  P210  1  0.55364374  0.58361008  0.61085469  1
  P  P211  1  0.55280290  0.58240654  0.85955174  1
  P  P212  1  0.55407684  0.91657977  0.10910736  1
  P  P213  1  0.55363575  0.91726512  0.36098079  1
  P  P214  1  0.55271848  0.91710721  0.60941151  1
  P  P215  1  0.55471946  0.91641695  0.86140615  1
  P  P216  1  0.44435514  0.08303774  0.13927125  1
  P  P217  1  0.44598770  0.08371007  0.38863613  1
  P  P218  1  0.44761352  0.08226983  0.64008695  1
  P  P219  1  0.44575833  0.08329455  0.89078520  1
  P  P220  1  0.44549826  0.41679944  0.13893564  1
  P  P221  1  0.44766061  0.41572752  0.39014783  1
  P  P222  1  0.44479971  0.41747161  0.64069425  1
  P  P223  1  0.44530734  0.41775243  0.88912480  1
  P  P224  1  0.44576699  0.75007990  0.13912135  1
  P  P225  1  0.44699069  0.75052792  0.39020326  1
  P  P226  1  0.44637564  0.75027600  0.64002854  1
  P  P227  1  0.44535354  0.74869424  0.89056922  1
  P  P228  1  0.94544316  0.08396921  0.13866194  1
  P  P229  1  0.94780085  0.08341960  0.39058246  1
  P  P230  1  0.94657198  0.08319993  0.63998645  1
  P  P231  1  0.94815058  0.08327819  0.89029901  1
  P  P232  1  0.94643306  0.41640009  0.13840815  1
  P  P233  1  0.94797791  0.41638901  0.39052400  1
  P  P234  1  0.94798525  0.41649456  0.63978443  1
  P  P235  1  0.94792062  0.41746427  0.88993423  1
  P  P236  1  0.94794711  0.74960603  0.14018492  1
  P  P237  1  0.94431756  0.75036118  0.38996804  1
  P  P238  1  0.94386170  0.75008198  0.63898981  1
  P  P239  1  0.94737339  0.74936674  0.88791246  1
  P  P240  1  0.19667038  0.08320183  0.23650686  1
  P  P241  1  0.19539150  0.08306357  0.48431964  1
  P  P242  1  0.19504076  0.08366063  0.73583509  1
  P  P243  1  0.19731933  0.08254504  0.98467646  1
  P  P244  1  0.19389700  0.41671845  0.23547224  1
  P  P245  1  0.19349592  0.41715781  0.48591041  1
  P  P246  1  0.19499429  0.41700484  0.73588359  1
  P  P247  1  0.19538717  0.41698920  0.98580667  1
  P  P248  1  0.19551636  0.74987736  0.23441339  1
  P  P249  1  0.19589648  0.74992970  0.48545636  1
  P  P250  1  0.19456753  0.74945678  0.73599535  1
  P  P251  1  0.19547049  0.75039183  0.98528374  1
  P  P252  1  0.69546785  0.08336345  0.23656046  1
  P  P253  1  0.69425933  0.08262667  0.48552334  1
  P  P254  1  0.69600392  0.08329030  0.73369104  1
  P  P255  1  0.69872069  0.08397482  0.98526875  1
  P  P256  1  0.69623436  0.41667005  0.23600208  1
  P  P257  1  0.69612378  0.41757482  0.48449059  1
  P  P258  1  0.69547887  0.41810390  0.73605415  1
  P  P259  1  0.69829480  0.41572330  0.98415975  1
  P  P260  1  0.69960499  0.74976383  0.23477031  1
  P  P261  1  0.69797040  0.74976189  0.48529454  1
  P  P262  1  0.69809941  0.74852463  0.73499062  1
  P  P263  1  0.69788965  0.75067620  0.98467129  1
  P  P264  1  0.30276242  0.25021517  0.01499851  1
  P  P265  1  0.30386460  0.24969327  0.26604596  1
  P  P266  1  0.30227712  0.25023922  0.51369431  1
  P  P267  1  0.30145729  0.25125835  0.76479738  1
  P  P268  1  0.30402190  0.58327945  0.01355043  1
  P  P269  1  0.30235499  0.58313522  0.26547916  1
  P  P270  1  0.30184539  0.58305926  0.51590951  1
  P  P271  1  0.30335610  0.58240066  0.76435737  1
  P  P272  1  0.30146462  0.91630352  0.01454275  1
  P  P273  1  0.30415671  0.91717145  0.26594413  1
  P  P274  1  0.30344079  0.91667830  0.51460863  1
  P  P275  1  0.30323970  0.91672421  0.76344359  1
  P  P276  1  0.80329348  0.25031814  0.01520987  1
  P  P277  1  0.80564721  0.25006997  0.26534096  1
  P  P278  1  0.80537995  0.25021100  0.51462650  1
  P  P279  1  0.80497189  0.25012269  0.76351013  1
  P  P280  1  0.80661946  0.58194455  0.01371551  1
  P  P281  1  0.80678914  0.58412289  0.26436965  1
  P  P282  1  0.80429779  0.58335262  0.51454815  1
  P  P283  1  0.80466435  0.58389545  0.76437758  1
  P  P284  1  0.80273767  0.91794228  0.01459532  1
  P  P285  1  0.80472564  0.91600106  0.26605813  1
  P  P286  1  0.80391994  0.91639868  0.51451347  1
  P  P287  1  0.80494540  0.91599306  0.76376373  1
  O  O288  1  0.05551123  0.24983307  0.18693028  1
  O  O289  1  0.05760252  0.24926443  0.43803121  1
  O  O290  1  0.05899298  0.25015031  0.68752219  1
  O  O291  1  0.05702700  0.24978318  0.93658142  1
  O  O292  1  0.05490671  0.58386377  0.18680286  1
  O  O293  1  0.05729614  0.58388311  0.43845298  1
  O  O294  1  0.05844535  0.58360060  0.68757862  1
  O  O295  1  0.05624973  0.58346613  0.93566871  1
  O  O296  1  0.05660157  0.91685222  0.18630974  1
  O  O297  1  0.05780229  0.91667967  0.43827884  1
  O  O298  1  0.05865055  0.91638952  0.68717301  1
  O  O299  1  0.05990917  0.91669833  0.93740504  1
  O  O300  1  0.55737336  0.25000900  0.18546325  1
  O  O301  1  0.55555223  0.25018723  0.43656289  1
  O  O302  1  0.55556253  0.24998628  0.68689777  1
  O  O303  1  0.55947540  0.25043757  0.93834289  1
  O  O304  1  0.55776991  0.58344752  0.18623465  1
  O  O305  1  0.55932343  0.58367299  0.43790892  1
  O  O306  1  0.55858265  0.58388173  0.68750480  1
  O  O307  1  0.55700719  0.58303429  0.93625181  1
  O  O308  1  0.55719670  0.91663625  0.18594669  1
  O  O309  1  0.55881207  0.91602313  0.43764840  1
  O  O310  1  0.55622423  0.91589769  0.68620160  1
  O  O311  1  0.55974628  0.91669253  0.93811742  1
  O  O312  1  0.43952989  0.08294485  0.06250651  1
  O  O313  1  0.44180729  0.08347266  0.31190153  1
  O  O314  1  0.44386197  0.08311806  0.56332737  1
  O  O315  1  0.44243766  0.08314478  0.81397331  1
  O  O316  1  0.44048537  0.41685285  0.06214071  1
  O  O317  1  0.44405238  0.41650827  0.31342617  1
  O  O318  1  0.44186750  0.41698386  0.56389177  1
  O  O319  1  0.44027142  0.41677160  0.81248974  1
  O  O320  1  0.44064695  0.75017914  0.06235920  1
  O  O321  1  0.44387867  0.74995674  0.31341488  1
  O  O322  1  0.44373983  0.74994948  0.56322615  1
  O  O323  1  0.44217873  0.74981275  0.81383213  1
  O  O324  1  0.94134554  0.08332462  0.06189682  1
  O  O325  1  0.94465683  0.08303519  0.31381230  1
  O  O326  1  0.94351844  0.08292807  0.56322721  1
  O  O327  1  0.94402797  0.08309096  0.81362231  1
  O  O328  1  0.94225971  0.41584082  0.06182991  1
  O  O329  1  0.94487899  0.41670111  0.31372730  1
  O  O330  1  0.94444291  0.41664964  0.56318487  1
  O  O331  1  0.94433505  0.41669657  0.81319216  1
  O  O332  1  0.94479908  0.75055316  0.06345085  1
  O  O333  1  0.94175475  0.75056535  0.31307116  1
  O  O334  1  0.94004692  0.75015830  0.56214356  1
  O  O335  1  0.94248944  0.75024470  0.81121518  1
  O  O336  1  0.19412555  0.08340037  0.06147648  1
  O  O337  1  0.19111941  0.08334939  0.31309338  1
  O  O338  1  0.19254427  0.08324984  0.56113054  1
  O  O339  1  0.19169326  0.08360110  0.81262408  1
  O  O340  1  0.19016960  0.41709846  0.06253154  1
  O  O341  1  0.18920213  0.41676841  0.31230732  1
  O  O342  1  0.19017770  0.41703108  0.56280783  1
  O  O343  1  0.19085445  0.41723922  0.81264926  1
  O  O344  1  0.19102129  0.74921729  0.06202661  1
  O  O345  1  0.19178469  0.74957208  0.31119430  1
  O  O346  1  0.19289618  0.75009572  0.56224151  1
  O  O347  1  0.19113884  0.74900353  0.81283434  1
  O  O348  1  0.69541819  0.08389808  0.06200329  1
  O  O349  1  0.69047998  0.08381305  0.31330881  1
  O  O350  1  0.69026609  0.08345312  0.56228750  1
  O  O351  1  0.69300648  0.08356232  0.81052171  1
  O  O352  1  0.69505702  0.41685280  0.06096544  1
  O  O353  1  0.69138282  0.41617700  0.31270037  1
  O  O354  1  0.69294559  0.41675063  0.56132755  1
  O  O355  1  0.69125062  0.41739411  0.81276667  1
  O  O356  1  0.69504256  0.74980539  0.06147368  1
  O  O357  1  0.69544784  0.74950239  0.31149510  1
  O  O358  1  0.69428670  0.74987807  0.56196931  1
  O  O359  1  0.69414129  0.74907486  0.81166219  1
  O  O360  1  0.30682186  0.25053986  0.18923489  1
  O  O361  1  0.30803927  0.25024057  0.43713423  1
  O  O362  1  0.30497209  0.25045825  0.68804552  1
  O  O363  1  0.30505649  0.25070144  0.93816116  1
  O  O364  1  0.30585399  0.58295937  0.18870044  1
  O  O365  1  0.30599784  0.58297057  0.43919102  1
  O  O366  1  0.30802154  0.58330108  0.68767796  1
  O  O367  1  0.30779593  0.58288482  0.93651463  1
  O  O368  1  0.30672409  0.91646518  0.18913691  1
  O  O369  1  0.30893037  0.91667592  0.43796010  1
  O  O370  1  0.30847461  0.91677700  0.68680606  1
  O  O371  1  0.30446798  0.91605308  0.93777484  1
  O  O372  1  0.80989445  0.25044114  0.18854500  1
  O  O373  1  0.81012735  0.25010715  0.43784534  1
  O  O374  1  0.80987840  0.25040602  0.68676846  1
  O  O375  1  0.80655316  0.25037863  0.93840124  1
  O  O376  1  0.81089150  0.58304763  0.18750693  1
  O  O377  1  0.80920984  0.58195014  0.43780989  1
  O  O378  1  0.80919296  0.58251534  0.68761798  1
  O  O379  1  0.81063885  0.58284088  0.93689948  1
  O  O380  1  0.80773863  0.91703520  0.18925730  1
  O  O381  1  0.80873878  0.91772170  0.43782109  1
  O  O382  1  0.80891758  0.91697199  0.68697649  1
  O  O383  1  0.80663269  0.91718100  0.93786810  1
  O  O384  1  0.23333719  0.24990739  0.04115780  1
  O  O385  1  0.23404152  0.24988517  0.29089953  1
  O  O386  1  0.23167174  0.25031649  0.53660742  1
  O  O387  1  0.23147469  0.25102645  0.78952708  1
  O  O388  1  0.23431853  0.58342512  0.03809023  1
  O  O389  1  0.23254833  0.58319840  0.29019096  1
  O  O390  1  0.23161377  0.58322372  0.53994948  1
  O  O391  1  0.23291890  0.58282327  0.78799722  1
  O  O392  1  0.23166042  0.91672242  0.04001283  1
  O  O393  1  0.23437073  0.91630781  0.29104842  1
  O  O394  1  0.23280890  0.91698200  0.53754826  1
  O  O395  1  0.23270696  0.91633149  0.78658316  1
  O  O396  1  0.73343091  0.25027441  0.04049933  1
  O  O397  1  0.73554478  0.24970860  0.28925127  1
  O  O398  1  0.73508065  0.25047069  0.53798661  1
  O  O399  1  0.73480418  0.24997335  0.78701302  1
  O  O400  1  0.73655566  0.58307578  0.03799506  1
  O  O401  1  0.73675387  0.58346070  0.28846363  1
  O  O402  1  0.73383318  0.58349002  0.53798639  1
  O  O403  1  0.73442019  0.58339655  0.78831819  1
  O  O404  1  0.73286378  0.91741021  0.03968031  1
  O  O405  1  0.73501041  0.91609688  0.29116101  1
  O  O406  1  0.73340782  0.91649664  0.53791363  1
  O  O407  1  0.73494047  0.91644395  0.78793818  1
  O  O408  1  0.26710072  0.08318096  0.21328189  1
  O  O409  1  0.26519681  0.08286100  0.45949071  1
  O  O410  1  0.26474632  0.08375378  0.71049539  1
  O  O411  1  0.26722454  0.08300641  0.95955286  1
  O  O412  1  0.26408835  0.41679254  0.21199131  1
  O  O413  1  0.26345711  0.41700173  0.46122541  1
  O  O414  1  0.26523266  0.41701643  0.71168722  1
  O  O415  1  0.26592425  0.41687762  0.96251208  1
  O  O416  1  0.26532899  0.75037577  0.20982554  1
  O  O417  1  0.26549716  0.74963795  0.46007407  1
  O  O418  1  0.26438946  0.74989087  0.71128454  1
  O  O419  1  0.26581030  0.74989091  0.96120461  1
  O  O420  1  0.76572031  0.08332967  0.21322404  1
  O  O421  1  0.76446670  0.08303401  0.46156861  1
  O  O422  1  0.76576082  0.08321906  0.70874497  1
  O  O423  1  0.76859207  0.08414145  0.95975575  1
  O  O424  1  0.76648586  0.41692059  0.21247116  1
  O  O425  1  0.76593593  0.41686107  0.45961533  1
  O  O426  1  0.76549096  0.41780230  0.71167496  1
  O  O427  1  0.76833577  0.41599193  0.95930657  1
  O  O428  1  0.76964213  0.75031836  0.21029482  1
  O  O429  1  0.76814520  0.74961010  0.46087170  1
  O  O430  1  0.76808920  0.74921303  0.71036749  1
  O  O431  1  0.76760426  0.75012083  0.95944166  1
  O  O432  1  0.01541754  0.08348660  0.16315791  1
  O  O433  1  0.01758344  0.08344140  0.41591025  1
  O  O434  1  0.01625425  0.08328174  0.66510225  1
  O  O435  1  0.01840623  0.08356743  0.91429440  1
  O  O436  1  0.01656788  0.41709017  0.16306305  1
  O  O437  1  0.01786923  0.41602762  0.41552878  1
  O  O438  1  0.01806440  0.41679885  0.66449095  1
  O  O439  1  0.01808931  0.41681040  0.91425580  1
  O  O440  1  0.01775087  0.75005422  0.16554218  1
  O  O441  1  0.01407735  0.75009205  0.41521348  1
  O  O442  1  0.01399700  0.74990692  0.66299415  1
  O  O443  1  0.01776405  0.74940132  0.91148991  1
  O  O444  1  0.51462714  0.08324057  0.16266416  1
  O  O445  1  0.51624314  0.08369865  0.41276762  1
  O  O446  1  0.51751161  0.08263080  0.66507080  1
  O  O447  1  0.51560385  0.08354062  0.91544181  1
  O  O448  1  0.51571108  0.41653731  0.16232599  1
  O  O449  1  0.51755483  0.41634287  0.41518370  1
  O  O450  1  0.51459932  0.41671529  0.66560031  1
  O  O451  1  0.51575755  0.41761549  0.91268751  1
  O  O452  1  0.51583861  0.75021113  0.16308112  1
  O  O453  1  0.51669330  0.75004716  0.41538871  1
  O  O454  1  0.51587538  0.75015242  0.66586163  1
  O  O455  1  0.51518240  0.74893263  0.91534552  1
  O  O456  1  0.48430359  0.25046978  0.08402385  1
  O  O457  1  0.48224961  0.24995088  0.33458952  1
  O  O458  1  0.48289714  0.24989522  0.58482025  1
  O  O459  1  0.48460467  0.25038133  0.83767272  1
  O  O460  1  0.48401914  0.58299060  0.08505335  1
  O  O461  1  0.48508669  0.58277135  0.33673358  1
  O  O462  1  0.48307663  0.58325938  0.58749150  1
  O  O463  1  0.48251248  0.58290027  0.83559187  1
  O  O464  1  0.48426191  0.91654028  0.08431612  1
  O  O465  1  0.48325564  0.91728921  0.33737611  1
  O  O466  1  0.48267327  0.91675641  0.58470434  1
  O  O467  1  0.48444263  0.91633114  0.83796371  1
  O  O468  1  0.98208852  0.25030901  0.08514840  1
  O  O469  1  0.98317636  0.25010064  0.33698033  1
  O  O470  1  0.98409344  0.25011254  0.58716783  1
  O  O471  1  0.98474461  0.25028705  0.83447783  1
  O  O472  1  0.98229129  0.58338093  0.08460200  1
  O  O473  1  0.98240007  0.58346268  0.33791849  1
  O  O474  1  0.98305431  0.58306940  0.58757573  1
  O  O475  1  0.98314369  0.58309327  0.83416168  1
  O  O476  1  0.98472751  0.91611212  0.08369240  1
  O  O477  1  0.98263676  0.91698038  0.33780596  1
  O  O478  1  0.98301729  0.91638856  0.58740353  1
  O  O479  1  0.98618301  0.91657807  0.83620800  1
  O  O480  1  0.08582345  0.31576750  0.07786201  1
  O  O481  1  0.08707332  0.31452545  0.32845929  1
  O  O482  1  0.08756159  0.31610120  0.57776249  1
  O  O483  1  0.08882004  0.31504436  0.82760775  1
  O  O484  1  0.08585974  0.64898703  0.07746247  1
  O  O485  1  0.08606113  0.64787434  0.32815499  1
  O  O486  1  0.08671645  0.64771460  0.57689324  1
  O  O487  1  0.08737450  0.64801808  0.82620094  1
  O  O488  1  0.08904949  0.98043002  0.07691754  1
  O  O489  1  0.08599081  0.98281250  0.32836583  1
  O  O490  1  0.08701823  0.98122928  0.57706143  1
  O  O491  1  0.08976346  0.98197745  0.82777398  1
  O  O492  1  0.58869228  0.31482509  0.07611912  1
  O  O493  1  0.58606499  0.31547317  0.32742070  1
  O  O494  1  0.58707693  0.31415271  0.57761726  1
  O  O495  1  0.58770569  0.31668078  0.82862399  1
  O  O496  1  0.58763259  0.64849312  0.07672311  1
  O  O497  1  0.58882175  0.64744499  0.32763774  1
  O  O498  1  0.58690833  0.64863534  0.57723807  1
  O  O499  1  0.58679699  0.64730078  0.82633459  1
  O  O500  1  0.58819121  0.98168722  0.07655994  1
  O  O501  1  0.58685267  0.98250505  0.32806005  1
  O  O502  1  0.58670569  0.98224670  0.57718854  1
  O  O503  1  0.58802487  0.98147824  0.82809367  1
  O  O504  1  0.41100073  0.01802827  0.17270337  1
  O  O505  1  0.41264213  0.01867434  0.42205383  1
  O  O506  1  0.41378761  0.01699506  0.67231079  1
  O  O507  1  0.41163462  0.01829677  0.92341875  1
  O  O508  1  0.41204249  0.35173421  0.17210042  1
  O  O509  1  0.41384433  0.35042188  0.42251834  1
  O  O510  1  0.41013991  0.35269845  0.67335658  1
  O  O511  1  0.41181951  0.35292984  0.92304148  1
  O  O512  1  0.41234817  0.68501416  0.17244214  1
  O  O513  1  0.41265968  0.68553663  0.42277634  1
  O  O514  1  0.41187400  0.68516477  0.67214737  1
  O  O515  1  0.41126450  0.68330863  0.92241803  1
  O  O516  1  0.91183064  0.01890249  0.17185694  1
  O  O517  1  0.91359119  0.01845449  0.42321400  1
  O  O518  1  0.91276059  0.01797113  0.67247407  1
  O  O519  1  0.91450690  0.01832345  0.92344976  1
  O  O520  1  0.91323758  0.35134836  0.17204871  1
  O  O521  1  0.91389031  0.35141005  0.42287015  1
  O  O522  1  0.91442575  0.35138195  0.67260358  1
  O  O523  1  0.91367590  0.35270094  0.92300804  1
  O  O524  1  0.91387664  0.68437898  0.17229760  1
  O  O525  1  0.91013285  0.68527286  0.42244614  1
  O  O526  1  0.91032197  0.68486595  0.67183984  1
  O  O527  1  0.91408714  0.68421936  0.92077634  1
  O  O528  1  0.16347158  0.01815917  0.20307734  1
  O  O529  1  0.16105628  0.01797910  0.45209342  1
  O  O530  1  0.16122038  0.01849603  0.70308436  1
  O  O531  1  0.16328403  0.01747510  0.95235390  1
  O  O532  1  0.16045072  0.35160440  0.20229622  1
  O  O533  1  0.15961863  0.35214469  0.45294699  1
  O  O534  1  0.16141764  0.35196581  0.70273197  1
  O  O535  1  0.16208442  0.35189775  0.95246606  1
  O  O536  1  0.16167533  0.68487002  0.20132212  1
  O  O537  1  0.16155479  0.68474788  0.45338893  1
  O  O538  1  0.16109139  0.68416988  0.70316013  1
  O  O539  1  0.16172758  0.68576697  0.95151748  1
  O  O540  1  0.66230112  0.01815863  0.20342319  1
  O  O541  1  0.66082766  0.01734386  0.45286696  1
  O  O542  1  0.66172195  0.01816854  0.70145511  1
  O  O543  1  0.66464472  0.01892138  0.95267891  1
  O  O544  1  0.66313062  0.35157793  0.20252570  1
  O  O545  1  0.66161248  0.35272534  0.45170677  1
  O  O546  1  0.66183687  0.35319845  0.70259742  1
  O  O547  1  0.66413950  0.35055620  0.95211540  1
  O  O548  1  0.66616332  0.68469952  0.20164091  1
  O  O549  1  0.66437424  0.68466255  0.45245544  1
  O  O550  1  0.66453964  0.68330565  0.70234378  1
  O  O551  1  0.66368634  0.68559528  0.95203882  1
  O  O552  1  0.33689099  0.31542393  0.04722247  1
  O  O553  1  0.33797664  0.31462711  0.29898078  1
  O  O554  1  0.33525420  0.31523160  0.54736906  1
  O  O555  1  0.33523864  0.31642399  0.79731275  1
  O  O556  1  0.33773415  0.64866779  0.04598119  1
  O  O557  1  0.33638669  0.64824240  0.29790018  1
  O  O558  1  0.33584243  0.64798934  0.54885606  1
  O  O559  1  0.33705474  0.64714253  0.79799336  1
  O  O560  1  0.33572374  0.98131013  0.04675284  1
  O  O561  1  0.33793488  0.98251475  0.29826917  1
  O  O562  1  0.33680590  0.98164000  0.54820568  1
  O  O563  1  0.33609208  0.98181753  0.79709306  1
  O  O564  1  0.83740049  0.31552797  0.04772355  1
  O  O565  1  0.83919099  0.31513208  0.29859526  1
  O  O566  1  0.83902206  0.31511849  0.54796888  1
  O  O567  1  0.83814246  0.31520666  0.79701407  1
  O  O568  1  0.84108227  0.64655338  0.04693079  1
  O  O569  1  0.84009501  0.64948333  0.29688824  1
  O  O570  1  0.83790079  0.64845696  0.54724685  1
  O  O571  1  0.83817220  0.64919595  0.79708184  1
  O  O572  1  0.83645133  0.98306932  0.04711449  1
  O  O573  1  0.83887755  0.98090823  0.29919920  1
  O  O574  1  0.83735423  0.98120743  0.54840488  1
  O  O575  1  0.83872702  0.98079574  0.79715345  1
  O  O576  1  0.41079074  0.14803562  0.17258546  1
  O  O577  1  0.41262016  0.14889002  0.42181406  1
  O  O578  1  0.41343015  0.14729563  0.67286572  1
  O  O579  1  0.41140134  0.14828860  0.92311262  1
  O  O580  1  0.41225252  0.48174385  0.17254930  1
  O  O581  1  0.41339310  0.48057045  0.42307575  1
  O  O582  1  0.41098768  0.48281477  0.67297408  1
  O  O583  1  0.41193491  0.48298175  0.92217683  1
  O  O584  1  0.41220560  0.81518133  0.17212817  1
  O  O585  1  0.41297340  0.81579631  0.42236398  1
  O  O586  1  0.41220601  0.81558613  0.67197629  1
  O  O587  1  0.41092968  0.81345807  0.92361648  1
  O  O588  1  0.91195146  0.14918601  0.17140946  1
  O  O589  1  0.91369291  0.14852646  0.42285369  1
  O  O590  1  0.91272914  0.14851493  0.67216709  1
  O  O591  1  0.91411055  0.14826546  0.92304090  1
  O  O592  1  0.91282465  0.48158328  0.17134620  1
  O  O593  1  0.91428838  0.48152655  0.42327127  1
  O  O594  1  0.91407674  0.48155724  0.67254251  1
  O  O595  1  0.91429015  0.48266162  0.92229357  1
  O  O596  1  0.91346963  0.81443824  0.17298240  1
  O  O597  1  0.91037676  0.81544753  0.42264903  1
  O  O598  1  0.91048564  0.81519265  0.67213425  1
  O  O599  1  0.91440970  0.81430468  0.92197315  1
  O  O600  1  0.08610685  0.18565601  0.07752478  1
  O  O601  1  0.08635274  0.18419684  0.32795472  1
  O  O602  1  0.08815500  0.18608316  0.57711819  1
  O  O603  1  0.08856773  0.18480916  0.82738947  1
  O  O604  1  0.08634667  0.51889729  0.07750256  1
  O  O605  1  0.08564522  0.51764330  0.32869166  1
  O  O606  1  0.08699721  0.51779109  0.57790899  1
  O  O607  1  0.08728549  0.51791497  0.82688990  1
  O  O608  1  0.08834984  0.85026809  0.07773373  1
  O  O609  1  0.08640284  0.85261841  0.32812504  1
  O  O610  1  0.08669328  0.85134516  0.57685038  1
  O  O611  1  0.08990552  0.85164311  0.82746879  1
  O  O612  1  0.58806598  0.18491412  0.07610480  1
  O  O613  1  0.58621724  0.18517929  0.32725298  1
  O  O614  1  0.58645770  0.18402175  0.57786585  1
  O  O615  1  0.58857774  0.18630638  0.82833673  1
  O  O616  1  0.58794476  0.51841680  0.07665382  1
  O  O617  1  0.58853974  0.51703032  0.32869906  1
  O  O618  1  0.58719772  0.51864664  0.57756428  1
  O  O619  1  0.58653931  0.51732068  0.82679674  1
  O  O620  1  0.58852648  0.85174636  0.07668063  1
  O  O621  1  0.58683689  0.85220563  0.32719129  1
  O  O622  1  0.58699223  0.85223087  0.57636159  1
  O  O623  1  0.58788724  0.85118986  0.82804134  1
  O  O624  1  0.33717170  0.18495081  0.04655905  1
  O  O625  1  0.33803744  0.18452506  0.29818184  1
  O  O626  1  0.33512246  0.18506475  0.54748380  1
  O  O627  1  0.33556149  0.18635770  0.79757002  1
  O  O628  1  0.33765605  0.51817113  0.04651575  1
  O  O629  1  0.33621361  0.51808398  0.29830023  1
  O  O630  1  0.33559454  0.51803764  0.54878824  1
  O  O631  1  0.33654088  0.51716362  0.79749703  1
  O  O632  1  0.33520922  0.85105119  0.04714475  1
  O  O633  1  0.33884464  0.85249380  0.29861204  1
  O  O634  1  0.33650366  0.85165215  0.54827971  1
  O  O635  1  0.33636720  0.85173920  0.79711782  1
  O  O636  1  0.83761450  0.18539741  0.04774067  1
  O  O637  1  0.83952227  0.18518168  0.29844760  1
  O  O638  1  0.83876771  0.18510087  0.54784982  1
  O  O639  1  0.83831642  0.18510288  0.79685601  1
  O  O640  1  0.83948074  0.51629592  0.04639892  1
  O  O641  1  0.84065881  0.51932293  0.29804797  1
  O  O642  1  0.83750830  0.51849238  0.54864723  1
  O  O643  1  0.83867864  0.51928223  0.79804185  1
  O  O644  1  0.83694596  0.85288940  0.04724655  1
  O  O645  1  0.83907628  0.85085744  0.29785311  1
  O  O646  1  0.83728861  0.85118468  0.54729244  1
  O  O647  1  0.83833245  0.85059084  0.79643352  1
  O  O648  1  0.16361433  0.14818653  0.20266124  1
  O  O649  1  0.16127538  0.14815868  0.45178771  1
  O  O650  1  0.16123398  0.14892541  0.70337315  1
  O  O651  1  0.16290810  0.14741166  0.95197911  1
  O  O652  1  0.16019791  0.48158933  0.20209787  1
  O  O653  1  0.15981917  0.48245274  0.45335475  1
  O  O654  1  0.16140424  0.48209536  0.70262777  1
  O  O655  1  0.16219969  0.48174361  0.95202254  1
  O  O656  1  0.16112206  0.81480942  0.20207618  1
  O  O657  1  0.16192527  0.81511448  0.45297327  1
  O  O658  1  0.16048788  0.81442785  0.70340735  1
  O  O659  1  0.16222825  0.81577748  0.95259133  1
  O  O660  1  0.66227977  0.14828079  0.20289364  1
  O  O661  1  0.66059268  0.14759834  0.45204592  1
  O  O662  1  0.66166842  0.14817032  0.70110314  1
  O  O663  1  0.66469421  0.14917026  0.95280764  1
  O  O664  1  0.66303172  0.48174779  0.20265565  1
  O  O665  1  0.66238966  0.48290925  0.45238123  1
  O  O666  1  0.66203729  0.48341835  0.70335761  1
  O  O667  1  0.66400536  0.48059640  0.95117535  1
  O  O668  1  0.66536185  0.81474760  0.20242295  1
  O  O669  1  0.66445754  0.81494602  0.45236471  1
  O  O670  1  0.66405523  0.81346388  0.70200789  1
  O  O671  1  0.66392771  0.81593246  0.95269160  1
