# generated using pymatgen
data_Na2MnFe(PO4)2
_symmetry_space_group_name_H-M   'P 1'
_cell_length_a   21.08993128
_cell_length_b   18.94383217
_cell_length_c   20.04882913
_cell_angle_alpha   89.99891319
_cell_angle_beta   89.99542554
_cell_angle_gamma   89.99850859
_symmetry_Int_Tables_number   1
_chemical_formula_structural   Na2MnFe(PO4)2
_chemical_formula_sum   'Na96 Mn48 Fe48 P96 O384'
_cell_volume   8009.99076013
_cell_formula_units_Z   48
loop_
 _symmetry_equiv_pos_site_id
 _symmetry_equiv_pos_as_xyz
  1  'x, y, z'
loop_
 _atom_site_type_symbol
 _atom_site_label
 _atom_site_symmetry_multiplicity
 _atom_site_fract_x
 _atom_site_fract_y
 _atom_site_fract_z
 _atom_site_occupancy
  Na  Na0  1  -0.00135348  -0.00044783  -0.00108350  1
  Na  Na1  1  -0.00002711  0.00021482  0.25036471  1
  Na  Na2  1  -0.00064111  -0.00042341  0.50123604  1
  Na  Na3  1  0.00077685  0.00037702  0.74937890  1
  Na  Na4  1  -0.00030508  0.33403314  0.00047397  1
  Na  Na5  1  -0.00204875  0.33258975  0.25068909  1
  Na  Na6  1  0.00067178  0.33382338  0.49983609  1
  Na  Na7  1  -0.00015710  0.33340802  0.74874986  1
  Na  Na8  1  -0.00120878  0.66642537  0.00065271  1
  Na  Na9  1  -0.00126845  0.66641292  0.25032224  1
  Na  Na10  1  -0.00043159  0.66619216  0.49964268  1
  Na  Na11  1  0.00036569  0.66639913  0.74987533  1
  Na  Na12  1  0.50032910  -0.00041468  0.00020977  1
  Na  Na13  1  0.50022186  -0.00045422  0.24925317  1
  Na  Na14  1  0.49735338  -0.00091832  0.50096737  1
  Na  Na15  1  0.49980248  0.00060127  0.75009166  1
  Na  Na16  1  0.49884149  0.33389233  -0.00028081  1
  Na  Na17  1  0.49901860  0.33384452  0.25044071  1
  Na  Na18  1  0.49855400  0.33367183  0.50018341  1
  Na  Na19  1  0.49657267  0.33230495  0.74937355  1
  Na  Na20  1  0.50060401  0.66659657  -0.00029895  1
  Na  Na21  1  0.50233988  0.66679497  0.25143416  1
  Na  Na22  1  0.50130935  0.66686574  0.49997659  1
  Na  Na23  1  0.50003470  0.66690714  0.74880267  1
  Na  Na24  1  0.25183119  0.00064783  0.12553786  1
  Na  Na25  1  0.25118313  0.00030213  0.37593334  1
  Na  Na26  1  0.25221343  0.00055926  0.62380255  1
  Na  Na27  1  0.25143630  -0.00055534  0.87470813  1
  Na  Na28  1  0.25013633  0.33424196  0.12450521  1
  Na  Na29  1  0.24916929  0.33345685  0.37485334  1
  Na  Na30  1  0.25125316  0.33418192  0.62622544  1
  Na  Na31  1  0.25071384  0.33326950  0.87453737  1
  Na  Na32  1  0.24979566  0.66674699  0.12507194  1
  Na  Na33  1  0.24908024  0.66626872  0.37392367  1
  Na  Na34  1  0.25030168  0.66727545  0.62590723  1
  Na  Na35  1  0.24890033  0.66605971  0.87560542  1
  Na  Na36  1  0.74757865  -0.00131826  0.12417278  1
  Na  Na37  1  0.75113740  0.00031299  0.37634874  1
  Na  Na38  1  0.74956583  0.00026131  0.62481393  1
  Na  Na39  1  0.74886230  0.00017591  0.87456933  1
  Na  Na40  1  0.75225643  0.33417683  0.12512701  1
  Na  Na41  1  0.75138208  0.33407558  0.37539877  1
  Na  Na42  1  0.75180345  0.33393385  0.62418783  1
  Na  Na43  1  0.75173589  0.33351140  0.87466746  1
  Na  Na44  1  0.75146315  0.66722956  0.12476012  1
  Na  Na45  1  0.74986747  0.66599140  0.37461049  1
  Na  Na46  1  0.75010310  0.66646923  0.62543444  1
  Na  Na47  1  0.74982626  0.66636072  0.87515428  1
  Na  Na48  1  -0.00204966  0.16682983  -0.00100251  1
  Na  Na49  1  -0.00031816  0.16663244  0.25130347  1
  Na  Na50  1  0.00102421  0.16597600  0.50046771  1
  Na  Na51  1  -0.00046802  0.16644678  0.74976152  1
  Na  Na52  1  -0.00223494  0.50114913  0.00081767  1
  Na  Na53  1  -0.00108585  0.50013081  0.24993443  1
  Na  Na54  1  -0.00133874  0.50075846  0.49991358  1
  Na  Na55  1  0.00013158  0.49990723  0.74925382  1
  Na  Na56  1  0.00056982  0.83311224  -0.00018672  1
  Na  Na57  1  -0.00152140  0.83405800  0.25011561  1
  Na  Na58  1  0.00057958  0.83308341  0.50047970  1
  Na  Na59  1  0.00169805  0.83324669  0.74908381  1
  Na  Na60  1  0.49963423  0.16638628  -0.00039126  1
  Na  Na61  1  0.50068336  0.16627881  0.24972036  1
  Na  Na62  1  0.49834534  0.16667677  0.49992221  1
  Na  Na63  1  0.49754107  0.16657043  0.74970289  1
  Na  Na64  1  0.49753252  0.50068266  -0.00042089  1
  Na  Na65  1  0.49896280  0.50066619  0.25146464  1
  Na  Na66  1  0.50012304  0.49921043  0.49993416  1
  Na  Na67  1  0.49851630  0.49992534  0.74894032  1
  Na  Na68  1  0.50276178  0.83255760  0.00061238  1
  Na  Na69  1  0.50189289  0.83286172  0.24972620  1
  Na  Na70  1  0.49877843  0.83422910  0.50128398  1
  Na  Na71  1  0.50029193  0.83395632  0.74948899  1
  Na  Na72  1  0.25008645  0.16666712  0.12558760  1
  Na  Na73  1  0.24949425  0.16619726  0.37502508  1
  Na  Na74  1  0.24986698  0.16665246  0.62511254  1
  Na  Na75  1  0.25298665  0.16525724  0.87382103  1
  Na  Na76  1  0.25074762  0.50013155  0.12489497  1
  Na  Na77  1  0.24975836  0.49976187  0.37434716  1
  Na  Na78  1  0.25144570  0.49926986  0.62585967  1
  Na  Na79  1  0.25006064  0.50025230  0.87592367  1
  Na  Na80  1  0.24946327  0.83373938  0.12509145  1
  Na  Na81  1  0.25133412  0.83273775  0.37491901  1
  Na  Na82  1  0.25083355  0.83355295  0.62544684  1
  Na  Na83  1  0.24965053  0.83381553  0.87455912  1
  Na  Na84  1  0.75011015  0.16684151  0.12442671  1
  Na  Na85  1  0.75185009  0.16593677  0.37611910  1
  Na  Na86  1  0.75014693  0.16654003  0.62496902  1
  Na  Na87  1  0.75014703  0.16606505  0.87444831  1
  Na  Na88  1  0.75347679  0.49919738  0.12517675  1
  Na  Na89  1  0.75161699  0.50003798  0.37443585  1
  Na  Na90  1  0.75048320  0.50046723  0.62474192  1
  Na  Na91  1  0.75270709  0.49979377  0.87454623  1
  Na  Na92  1  0.74765589  0.83362369  0.12442732  1
  Na  Na93  1  0.74944814  0.83303817  0.37567012  1
  Na  Na94  1  0.74946098  0.83377389  0.62498219  1
  Na  Na95  1  0.74769300  0.83411060  0.87538605  1
  Mn  Mn96  1  0.89252053  0.91636210  0.62796124  1
  Mn  Mn97  1  0.10795922  0.08313398  0.12225531  1
  Mn  Mn98  1  0.64225176  0.58308481  0.74808822  1
  Mn  Mn99  1  0.85854357  0.41600389  0.75252095  1
  Mn  Mn100  1  0.39253717  0.58410656  0.37779000  1
  Mn  Mn101  1  0.14144283  0.25062666  0.24790551  1
  Mn  Mn102  1  0.89169428  0.24986315  0.12756834  1
  Mn  Mn103  1  0.10782579  0.08338392  0.87235629  1
  Mn  Mn104  1  0.39193512  0.58328773  0.62699831  1
  Mn  Mn105  1  0.14342089  0.91687009  0.49726588  1
  Mn  Mn106  1  0.10830196  0.41640743  0.62249539  1
  Mn  Mn107  1  0.10696797  0.75038456  0.12314040  1
  Mn  Mn108  1  0.35839754  0.75046379  0.00213255  1
  Mn  Mn109  1  0.64199463  0.91654246  0.49760278  1
  Mn  Mn110  1  0.85701256  0.08309399  0.00156617  1
  Mn  Mn111  1  0.14171814  0.58345374  0.99801155  1
  Mn  Mn112  1  0.35800658  0.08383476  0.25267994  1
  Mn  Mn113  1  0.64217949  0.25050410  0.99711166  1
  Mn  Mn114  1  0.85783853  0.74978022  0.50189457  1
  Mn  Mn115  1  0.85791102  0.08269994  0.25285520  1
  Mn  Mn116  1  0.14227359  0.91731794  0.99748012  1
  Mn  Mn117  1  0.85765927  0.75133027  0.75286075  1
  Mn  Mn118  1  0.10672661  0.41667653  0.12316943  1
  Mn  Mn119  1  0.89288416  0.24991549  0.62697543  1
  Mn  Mn120  1  0.60813104  0.41728561  0.12309118  1
  Mn  Mn121  1  0.35761008  0.41646126  0.00229110  1
  Mn  Mn122  1  0.85732854  0.75008684  0.00154732  1
  Mn  Mn123  1  0.39333645  0.91530589  0.12731624  1
  Mn  Mn124  1  0.14225037  0.58296469  0.49749005  1
  Mn  Mn125  1  0.64219526  0.25090389  0.49783182  1
  Mn  Mn126  1  0.64309217  0.24993676  0.24826304  1
  Mn  Mn127  1  0.60783295  0.08331182  0.37334491  1
  Mn  Mn128  1  0.64166566  0.24972029  0.74770984  1
  Mn  Mn129  1  0.39203033  0.25103421  0.12758596  1
  Mn  Mn130  1  0.60744425  0.75026048  0.62257683  1
  Mn  Mn131  1  0.35750077  0.74969496  0.75323393  1
  Mn  Mn132  1  0.10835419  0.75003855  0.62246857  1
  Mn  Mn133  1  0.35848983  0.74951645  0.25250777  1
  Mn  Mn134  1  0.64334116  0.58314973  0.24748677  1
  Mn  Mn135  1  0.89080823  0.91657676  0.12731169  1
  Mn  Mn136  1  0.60703981  0.41563639  0.62268368  1
  Mn  Mn137  1  0.39171704  0.24964690  0.37767868  1
  Mn  Mn138  1  0.14212487  0.24941006  0.99719505  1
  Mn  Mn139  1  0.14190927  0.91623544  0.24852041  1
  Mn  Mn140  1  0.14290684  0.24949270  0.74827874  1
  Mn  Mn141  1  0.64250701  0.58259907  0.99771527  1
  Mn  Mn142  1  0.60744837  0.41661222  0.87248381  1
  Mn  Mn143  1  0.60799058  0.08351004  0.12268225  1
  Fe  Fe144  1  0.10669876  0.41704977  0.87381828  1
  Fe  Fe145  1  0.10698287  0.41697447  0.37332782  1
  Fe  Fe146  1  0.39255107  0.24972534  0.87725728  1
  Fe  Fe147  1  0.89332780  0.58370714  0.87619496  1
  Fe  Fe148  1  0.14233621  0.58339449  0.74912064  1
  Fe  Fe149  1  0.85685964  0.08296001  0.75156988  1
  Fe  Fe150  1  0.35677685  0.41701813  0.75251228  1
  Fe  Fe151  1  0.64274418  0.91666930  0.24961429  1
  Fe  Fe152  1  0.89261414  0.58361398  0.62670216  1
  Fe  Fe153  1  0.64202137  0.91689070  0.99699770  1
  Fe  Fe154  1  0.85759079  0.41664155  0.50102012  1
  Fe  Fe155  1  0.39299084  0.91620133  0.37619496  1
  Fe  Fe156  1  0.10734558  0.75005467  0.37322982  1
  Fe  Fe157  1  0.64341278  0.58274334  0.49848171  1
  Fe  Fe158  1  0.60615862  0.08384540  0.62340523  1
  Fe  Fe159  1  0.85796273  0.41681289  0.25316184  1
  Fe  Fe160  1  0.39338300  0.91640196  0.87671418  1
  Fe  Fe161  1  0.35776507  0.74951936  0.50099566  1
  Fe  Fe162  1  0.10719085  0.74982611  0.87371690  1
  Fe  Fe163  1  0.60697014  0.74982139  0.87316886  1
  Fe  Fe164  1  0.89334551  0.58369053  0.37692857  1
  Fe  Fe165  1  0.60810687  0.74881532  0.12359038  1
  Fe  Fe166  1  0.35741936  0.08316424  0.75188935  1
  Fe  Fe167  1  0.89326577  0.24973017  0.37756919  1
  Fe  Fe168  1  0.35707126  0.08367103  0.50191217  1
  Fe  Fe169  1  0.89267443  0.25006888  0.87641316  1
  Fe  Fe170  1  0.14226961  0.58335144  0.24855458  1
  Fe  Fe171  1  0.14332055  0.91681731  0.74869974  1
  Fe  Fe172  1  0.14327976  0.25019198  0.49865455  1
  Fe  Fe173  1  0.39139720  0.24938204  0.62619854  1
  Fe  Fe174  1  0.85835678  0.41638522  0.00118181  1
  Fe  Fe175  1  0.35808797  0.08317274  0.00148691  1
  Fe  Fe176  1  0.89264456  0.91632158  0.87588283  1
  Fe  Fe177  1  0.85810078  0.08371244  0.50239118  1
  Fe  Fe178  1  0.35708533  0.41657074  0.50095182  1
  Fe  Fe179  1  0.89240642  0.91660056  0.37662068  1
  Fe  Fe180  1  0.60621146  0.08339740  0.87259880  1
  Fe  Fe181  1  0.35691024  0.41699304  0.25202267  1
  Fe  Fe182  1  0.60760534  0.41672078  0.37330465  1
  Fe  Fe183  1  0.10804176  0.08318641  0.62339744  1
  Fe  Fe184  1  0.39271210  0.58377583  0.12703204  1
  Fe  Fe185  1  0.89242905  0.58401114  0.12729777  1
  Fe  Fe186  1  0.39221740  0.58395777  0.87663153  1
  Fe  Fe187  1  0.64218558  0.91737369  0.74870657  1
  Fe  Fe188  1  0.10702485  0.08291907  0.37428043  1
  Fe  Fe189  1  0.39265669  0.91704527  0.62740975  1
  Fe  Fe190  1  0.85679360  0.75037889  0.25234099  1
  Fe  Fe191  1  0.60756279  0.74995401  0.37356908  1
  P  P192  1  0.05280465  0.24992256  0.10973297  1
  P  P193  1  0.05375579  0.25004099  0.36223879  1
  P  P194  1  0.05494273  0.24901528  0.60952537  1
  P  P195  1  0.05191071  0.25083206  0.85984873  1
  P  P196  1  0.05277714  0.58351170  0.11154477  1
  P  P197  1  0.05309830  0.58314607  0.35976657  1
  P  P198  1  0.05347739  0.58328246  0.61079110  1
  P  P199  1  0.05270957  0.58324939  0.85999565  1
  P  P200  1  0.05257616  0.91672541  0.10968749  1
  P  P201  1  0.05212327  0.91673126  0.36083646  1
  P  P202  1  0.05546882  0.91757630  0.61112726  1
  P  P203  1  0.05295125  0.91610801  0.85916983  1
  P  P204  1  0.55334616  0.25070555  0.10982724  1
  P  P205  1  0.55321925  0.25094796  0.36019889  1
  P  P206  1  0.55130921  0.24886498  0.61008879  1
  P  P207  1  0.55152120  0.24942975  0.85973007  1
  P  P208  1  0.55258754  0.58341911  0.11023059  1
  P  P209  1  0.55552326  0.58286903  0.36184716  1
  P  P210  1  0.55403655  0.58277525  0.60909973  1
  P  P211  1  0.55175115  0.58364284  0.85977110  1
  P  P212  1  0.55625191  0.91548549  0.11083092  1
  P  P213  1  0.55275119  0.91608844  0.36008064  1
  P  P214  1  0.55343118  0.91819373  0.61162289  1
  P  P215  1  0.55383786  0.91681385  0.86055565  1
  P  P216  1  0.44580096  0.08316961  0.13894273  1
  P  P217  1  0.44603582  0.08222172  0.39072440  1
  P  P218  1  0.44478196  0.08344921  0.63920651  1
  P  P219  1  0.44568612  0.08274212  0.88898110  1
  P  P220  1  0.44590476  0.41816196  0.14106927  1
  P  P221  1  0.44599987  0.41696189  0.38964259  1
  P  P222  1  0.44365400  0.41567414  0.63911481  1
  P  P223  1  0.44487431  0.41687642  0.88843338  1
  P  P224  1  0.44858434  0.74878480  0.14022448  1
  P  P225  1  0.44794924  0.75074081  0.39058580  1
  P  P226  1  0.44493692  0.75063152  0.63886540  1
  P  P227  1  0.44787616  0.75046695  0.88964815  1
  P  P228  1  0.94648679  0.08311436  0.14020906  1
  P  P229  1  0.94706793  0.08300292  0.39100504  1
  P  P230  1  0.94636414  0.08336676  0.63978064  1
  P  P231  1  0.94505790  0.08266640  0.88791333  1
  P  P232  1  0.94429087  0.41746655  0.13993735  1
  P  P233  1  0.94621721  0.41704854  0.38939360  1
  P  P234  1  0.94556227  0.41741022  0.63829727  1
  P  P235  1  0.94735731  0.41683469  0.89006283  1
  P  P236  1  0.94503934  0.74985192  0.14073449  1
  P  P237  1  0.94666805  0.75008366  0.38871075  1
  P  P238  1  0.94654458  0.74918783  0.63996146  1
  P  P239  1  0.94777663  0.75057666  0.88943255  1
  P  P240  1  0.19519781  0.08303192  0.23643135  1
  P  P241  1  0.19645229  0.08413728  0.48601262  1
  P  P242  1  0.19759600  0.08225916  0.73448356  1
  P  P243  1  0.19860696  0.08329825  0.98428393  1
  P  P244  1  0.19586188  0.41785908  0.23603136  1
  P  P245  1  0.19727431  0.41588767  0.48470157  1
  P  P246  1  0.19603665  0.41746128  0.73699905  1
  P  P247  1  0.19555108  0.41669703  0.98434429  1
  P  P248  1  0.19535981  0.74920454  0.23611977  1
  P  P249  1  0.19772101  0.75004655  0.48430152  1
  P  P250  1  0.19502964  0.74995840  0.73679110  1
  P  P251  1  0.19607381  0.75027057  0.98441620  1
  P  P252  1  0.69706014  0.08251826  0.23540965  1
  P  P253  1  0.69679554  0.08374674  0.48659912  1
  P  P254  1  0.69517312  0.08277023  0.73530614  1
  P  P255  1  0.69514512  0.08304852  0.98370045  1
  P  P256  1  0.69778391  0.41672991  0.23619162  1
  P  P257  1  0.69743882  0.41750136  0.48453462  1
  P  P258  1  0.69697266  0.41638367  0.73455409  1
  P  P259  1  0.69862669  0.41704922  0.98455020  1
  P  P260  1  0.69610581  0.75055054  0.23598567  1
  P  P261  1  0.69605090  0.74889662  0.48465267  1
  P  P262  1  0.69499710  0.75099475  0.73629906  1
  P  P263  1  0.69444196  0.74984385  0.98529443  1
  P  P264  1  0.30453749  0.24894794  0.01389950  1
  P  P265  1  0.30293713  0.25132093  0.26521903  1
  P  P266  1  0.30254864  0.25011576  0.51532759  1
  P  P267  1  0.30547997  0.24967800  0.76406915  1
  P  P268  1  0.30505471  0.58387996  0.01494644  1
  P  P269  1  0.30356795  0.58274817  0.26397628  1
  P  P270  1  0.30310137  0.58344548  0.51477803  1
  P  P271  1  0.30252235  0.58290223  0.76584760  1
  P  P272  1  0.30515753  0.91720410  0.01392684  1
  P  P273  1  0.30423009  0.91636093  0.26588971  1
  P  P274  1  0.30606072  0.91606607  0.51405746  1
  P  P275  1  0.30441973  0.91737335  0.76431257  1
  P  P276  1  0.80470917  0.25054953  0.01348330  1
  P  P277  1  0.80458088  0.25036421  0.26643839  1
  P  P278  1  0.80520061  0.25018264  0.51383438  1
  P  P279  1  0.80395383  0.24870020  0.76512842  1
  P  P280  1  0.80581756  0.58276534  0.01410606  1
  P  P281  1  0.80585582  0.58390064  0.26446471  1
  P  P282  1  0.80457460  0.58262223  0.51413899  1
  P  P283  1  0.80527272  0.58374458  0.76461714  1
  P  P284  1  0.80251443  0.91635818  0.01327013  1
  P  P285  1  0.80223274  0.91553106  0.26584711  1
  P  P286  1  0.80491925  0.91716645  0.51425743  1
  P  P287  1  0.80225046  0.91773031  0.76551391  1
  O  O288  1  0.05590966  0.24990307  0.18658052  1
  O  O289  1  0.05878446  0.25038149  0.43884384  1
  O  O290  1  0.05785497  0.24976211  0.68633099  1
  O  O291  1  0.05554959  0.24993313  0.93651802  1
  O  O292  1  0.05774558  0.58326915  0.18813788  1
  O  O293  1  0.05658867  0.58308585  0.43651878  1
  O  O294  1  0.05859320  0.58307900  0.68740144  1
  O  O295  1  0.05576651  0.58330570  0.93672486  1
  O  O296  1  0.05617267  0.91689259  0.18642015  1
  O  O297  1  0.05615292  0.91651890  0.43750902  1
  O  O298  1  0.05999706  0.91728618  0.68780545  1
  O  O299  1  0.05636091  0.91701142  0.93589432  1
  O  O300  1  0.55696724  0.25064775  0.18659235  1
  O  O301  1  0.55619364  0.25061215  0.43699813  1
  O  O302  1  0.55512609  0.24950269  0.68672436  1
  O  O303  1  0.55570074  0.25023714  0.93638514  1
  O  O304  1  0.55681183  0.58267791  0.18693164  1
  O  O305  1  0.55947261  0.58241033  0.43849507  1
  O  O306  1  0.55705839  0.58281674  0.68589172  1
  O  O307  1  0.55578191  0.58274032  0.93642908  1
  O  O308  1  0.56005562  0.91660386  0.18760062  1
  O  O309  1  0.55594484  0.91680608  0.43685421  1
  O  O310  1  0.55819446  0.91765208  0.68823589  1
  O  O311  1  0.55804948  0.91688327  0.93730731  1
  O  O312  1  0.44189808  0.08322474  0.06218491  1
  O  O313  1  0.44357659  0.08327322  0.31391229  1
  O  O314  1  0.44029757  0.08361836  0.56250679  1
  O  O315  1  0.44128278  0.08267639  0.81225490  1
  O  O316  1  0.44280028  0.41701027  0.06425486  1
  O  O317  1  0.44089822  0.41709345  0.31304473  1
  O  O318  1  0.43965722  0.41663936  0.56231408  1
  O  O319  1  0.44099184  0.41701859  0.81165046  1
  O  O320  1  0.44470920  0.74961809  0.06358655  1
  O  O321  1  0.44448329  0.74967931  0.31388485  1
  O  O322  1  0.44101292  0.74967603  0.56217209  1
  O  O323  1  0.44411713  0.75063829  0.81295119  1
  O  O324  1  0.94275421  0.08295209  0.06344386  1
  O  O325  1  0.94362224  0.08308674  0.31428962  1
  O  O326  1  0.94152636  0.08324455  0.56309785  1
  O  O327  1  0.94130807  0.08264266  0.81118494  1
  O  O328  1  0.94095677  0.41672286  0.06314213  1
  O  O329  1  0.94192107  0.41666269  0.31266204  1
  O  O330  1  0.94144231  0.41691838  0.56159026  1
  O  O331  1  0.94438512  0.41651733  0.81326752  1
  O  O332  1  0.94233860  0.75066688  0.06393487  1
  O  O333  1  0.94181581  0.75056367  0.31212990  1
  O  O334  1  0.94327997  0.74986869  0.56321847  1
  O  O335  1  0.94439512  0.75074923  0.81275450  1
  O  O336  1  0.19460931  0.08338823  0.06099383  1
  O  O337  1  0.19028847  0.08278681  0.31320933  1
  O  O338  1  0.19196900  0.08316687  0.56264432  1
  O  O339  1  0.19371955  0.08265489  0.81118076  1
  O  O340  1  0.19215448  0.41694080  0.06112275  1
  O  O341  1  0.19070205  0.41709129  0.31271737  1
  O  O342  1  0.19403849  0.41678233  0.56143908  1
  O  O343  1  0.19078854  0.41689439  0.81359056  1
  O  O344  1  0.19277058  0.75027154  0.06121030  1
  O  O345  1  0.19063892  0.75001541  0.31287310  1
  O  O346  1  0.19398759  0.75028804  0.56105159  1
  O  O347  1  0.19070458  0.74994328  0.81349809  1
  O  O348  1  0.69259807  0.08382069  0.06053293  1
  O  O349  1  0.69429280  0.08319505  0.31220748  1
  O  O350  1  0.69114627  0.08383401  0.56316771  1
  O  O351  1  0.68998537  0.08362944  0.81196041  1
  O  O352  1  0.69465132  0.41724711  0.06126087  1
  O  O353  1  0.69217757  0.41692508  0.31274176  1
  O  O354  1  0.69336549  0.41657260  0.56121372  1
  O  O355  1  0.69347137  0.41642686  0.81130968  1
  O  O356  1  0.69101783  0.74873364  0.06211437  1
  O  O357  1  0.69132107  0.74971026  0.31267409  1
  O  O358  1  0.69306899  0.74987930  0.56147420  1
  O  O359  1  0.69057760  0.75002461  0.81305617  1
  O  O360  1  0.30608281  0.25083936  0.18845050  1
  O  O361  1  0.30571118  0.24977765  0.43860677  1
  O  O362  1  0.30849972  0.24964641  0.68727703  1
  O  O363  1  0.30879844  0.24950501  0.93709268  1
  O  O364  1  0.30833805  0.58386576  0.18736515  1
  O  O365  1  0.30583186  0.58355057  0.43795142  1
  O  O366  1  0.30641580  0.58375079  0.68918455  1
  O  O367  1  0.30957024  0.58424038  0.93818918  1
  O  O368  1  0.30754240  0.91607104  0.18908918  1
  O  O369  1  0.30978056  0.91599357  0.43730397  1
  O  O370  1  0.30888352  0.91671254  0.68759658  1
  O  O371  1  0.30960335  0.91602742  0.93716590  1
  O  O372  1  0.80677107  0.24966228  0.18958256  1
  O  O373  1  0.80955327  0.24985464  0.43712788  1
  O  O374  1  0.80711998  0.24963515  0.68836098  1
  O  O375  1  0.80912884  0.24998796  0.93675600  1
  O  O376  1  0.80913351  0.58392326  0.18765216  1
  O  O377  1  0.80944597  0.58350509  0.43742008  1
  O  O378  1  0.80921109  0.58390343  0.68782983  1
  O  O379  1  0.81023315  0.58386505  0.93730520  1
  O  O380  1  0.80506012  0.91606395  0.18907525  1
  O  O381  1  0.80945922  0.91650485  0.43752858  1
  O  O382  1  0.80624683  0.91669698  0.68880834  1
  O  O383  1  0.80809303  0.91619886  0.93672884  1
  O  O384  1  0.23466711  0.25012002  0.03841882  1
  O  O385  1  0.23330410  0.25038887  0.29035564  1
  O  O386  1  0.23262097  0.25031166  0.54041170  1
  O  O387  1  0.23553382  0.24933503  0.78890649  1
  O  O388  1  0.23485852  0.58363826  0.03854582  1
  O  O389  1  0.23333871  0.58290344  0.28798360  1
  O  O390  1  0.23363020  0.58338551  0.54060468  1
  O  O391  1  0.23238668  0.58321767  0.79017423  1
  O  O392  1  0.23520019  0.91704497  0.03825478  1
  O  O393  1  0.23448829  0.91632480  0.29080228  1
  O  O394  1  0.23598339  0.91672834  0.53836476  1
  O  O395  1  0.23401552  0.91677043  0.78795413  1
  O  O396  1  0.73479515  0.25033201  0.03792533  1
  O  O397  1  0.73505166  0.24995478  0.29207634  1
  O  O398  1  0.73522266  0.25047938  0.53825382  1
  O  O399  1  0.73419275  0.24952028  0.79005452  1
  O  O400  1  0.73575856  0.58331195  0.03829372  1
  O  O401  1  0.73587313  0.58341505  0.28882668  1
  O  O402  1  0.73417937  0.58321216  0.53777010  1
  O  O403  1  0.73524736  0.58319762  0.78879302  1
  O  O404  1  0.73205478  0.91646842  0.03641935  1
  O  O405  1  0.73236292  0.91630688  0.29106491  1
  O  O406  1  0.73478530  0.91679525  0.53813608  1
  O  O407  1  0.73208736  0.91738837  0.78961222  1
  O  O408  1  0.26534664  0.08342645  0.21280209  1
  O  O409  1  0.26697681  0.08338999  0.46257222  1
  O  O410  1  0.26780233  0.08332885  0.71042037  1
  O  O411  1  0.26854901  0.08273314  0.95969134  1
  O  O412  1  0.26610250  0.41762083  0.21219138  1
  O  O413  1  0.26736112  0.41633586  0.46007406  1
  O  O414  1  0.26648037  0.41686997  0.71360115  1
  O  O415  1  0.26546700  0.41661392  0.96002279  1
  O  O416  1  0.26543343  0.74978969  0.21212492  1
  O  O417  1  0.26784133  0.74970516  0.45998698  1
  O  O418  1  0.26508225  0.75022835  0.71263954  1
  O  O419  1  0.26587410  0.75004398  0.95965523  1
  O  O420  1  0.76651006  0.08253542  0.20956360  1
  O  O421  1  0.76728565  0.08342755  0.46342902  1
  O  O422  1  0.76567104  0.08314831  0.71200156  1
  O  O423  1  0.76485580  0.08315876  0.95872171  1
  O  O424  1  0.76833114  0.41701047  0.21330356  1
  O  O425  1  0.76769679  0.41694147  0.46050572  1
  O  O426  1  0.76676842  0.41662739  0.70990275  1
  O  O427  1  0.76869896  0.41684498  0.96017111  1
  O  O428  1  0.76640997  0.74993464  0.21220184  1
  O  O429  1  0.76580475  0.74940575  0.45978048  1
  O  O430  1  0.76499463  0.75075459  0.71206155  1
  O  O431  1  0.76441834  0.74983198  0.96079533  1
  O  O432  1  0.01610004  0.08335448  0.16523896  1
  O  O433  1  0.01725713  0.08291986  0.41551009  1
  O  O434  1  0.01682733  0.08358265  0.66306079  1
  O  O435  1  0.01498038  0.08279620  0.91265743  1
  O  O436  1  0.01417339  0.41636973  0.16463776  1
  O  O437  1  0.01663290  0.41741169  0.41321811  1
  O  O438  1  0.01554053  0.41644182  0.66254494  1
  O  O439  1  0.01726941  0.41747938  0.91525053  1
  O  O440  1  0.01469820  0.75019718  0.16589431  1
  O  O441  1  0.01697475  0.74950851  0.41284140  1
  O  O442  1  0.01630225  0.74975167  0.66465088  1
  O  O443  1  0.01766458  0.74988659  0.91459586  1
  O  O444  1  0.51574851  0.08294889  0.16331950  1
  O  O445  1  0.51561363  0.08284487  0.41624264  1
  O  O446  1  0.51506427  0.08339922  0.66318817  1
  O  O447  1  0.51607014  0.08276014  0.91277465  1
  O  O448  1  0.51561592  0.41739502  0.16610173  1
  O  O449  1  0.51639156  0.41692813  0.41309947  1
  O  O450  1  0.51376716  0.41621262  0.66316059  1
  O  O451  1  0.51470117  0.41697079  0.91332293  1
  O  O452  1  0.51859534  0.74924402  0.16481397  1
  O  O453  1  0.51798925  0.75032411  0.41520171  1
  O  O454  1  0.51493847  0.75040636  0.66308756  1
  O  O455  1  0.51787338  0.75020862  0.91432113  1
  O  O456  1  0.48360041  0.25064440  0.08505824  1
  O  O457  1  0.48356080  0.25021678  0.33504389  1
  O  O458  1  0.48125604  0.24939266  0.58559340  1
  O  O459  1  0.48133005  0.24940670  0.83565039  1
  O  O460  1  0.48261375  0.58358441  0.08571301  1
  O  O461  1  0.48547223  0.58356477  0.33752859  1
  O  O462  1  0.48420324  0.58295075  0.58445253  1
  O  O463  1  0.48167015  0.58368406  0.83512973  1
  O  O464  1  0.48621720  0.91595403  0.08656510  1
  O  O465  1  0.48286084  0.91627546  0.33506539  1
  O  O466  1  0.48304955  0.91745590  0.58816183  1
  O  O467  1  0.48348335  0.91705044  0.83659884  1
  O  O468  1  0.98316073  0.25018219  0.08479736  1
  O  O469  1  0.98330190  0.24987608  0.33859473  1
  O  O470  1  0.98521284  0.24981125  0.58468103  1
  O  O471  1  0.98194109  0.25015285  0.83496635  1
  O  O472  1  0.98246426  0.58398020  0.08793577  1
  O  O473  1  0.98287958  0.58313390  0.33561971  1
  O  O474  1  0.98321434  0.58353381  0.58701449  1
  O  O475  1  0.98260305  0.58329699  0.83525557  1
  O  O476  1  0.98284087  0.91618534  0.08483127  1
  O  O477  1  0.98202115  0.91706514  0.33624498  1
  O  O478  1  0.98533853  0.91652587  0.58739089  1
  O  O479  1  0.98292368  0.91680829  0.83436671  1
  O  O480  1  0.08697667  0.31500114  0.07761306  1
  O  O481  1  0.08654244  0.31525238  0.32852963  1
  O  O482  1  0.08955468  0.31368066  0.57680284  1
  O  O483  1  0.08547499  0.31612640  0.82750008  1
  O  O484  1  0.08623098  0.64837829  0.07817163  1
  O  O485  1  0.08700312  0.64812172  0.32703769  1
  O  O486  1  0.08686157  0.64824151  0.57742247  1
  O  O487  1  0.08673777  0.64821717  0.82731939  1
  O  O488  1  0.08634391  0.98176688  0.07680936  1
  O  O489  1  0.08597043  0.98183807  0.32833318  1
  O  O490  1  0.08827525  0.98299690  0.57802340  1
  O  O491  1  0.08760366  0.98073419  0.82624868  1
  O  O492  1  0.58718845  0.31584778  0.07724323  1
  O  O493  1  0.58711077  0.31622306  0.32799706  1
  O  O494  1  0.58538496  0.31378150  0.57721851  1
  O  O495  1  0.58508879  0.31440772  0.82656548  1
  O  O496  1  0.58669861  0.64843101  0.07789195  1
  O  O497  1  0.58930158  0.64800571  0.32911575  1
  O  O498  1  0.58841522  0.64767514  0.57676626  1
  O  O499  1  0.58559012  0.64881993  0.82738174  1
  O  O500  1  0.59006509  0.98015846  0.07715259  1
  O  O501  1  0.58695718  0.98096966  0.32731340  1
  O  O502  1  0.58624288  0.98339084  0.57816971  1
  O  O503  1  0.58729112  0.98182733  0.82724293  1
  O  O504  1  0.41216622  0.01814694  0.17180249  1
  O  O505  1  0.41199755  0.01694389  0.42252867  1
  O  O506  1  0.41139305  0.01838683  0.67257895  1
  O  O507  1  0.41244235  0.01764837  0.92227337  1
  O  O508  1  0.41103125  0.35361827  0.17383802  1
  O  O509  1  0.41247575  0.35202108  0.42301222  1
  O  O510  1  0.41021698  0.35039024  0.67161584  1
  O  O511  1  0.41134749  0.35158304  0.92118134  1
  O  O512  1  0.41488702  0.68370506  0.17296428  1
  O  O513  1  0.41369734  0.68594181  0.42362393  1
  O  O514  1  0.41137385  0.68570344  0.67222466  1
  O  O515  1  0.41386009  0.68546427  0.92211423  1
  O  O516  1  0.91251936  0.01796318  0.17271076  1
  O  O517  1  0.91299127  0.01801858  0.42355301  1
  O  O518  1  0.91293737  0.01846014  0.67324066  1
  O  O519  1  0.91151183  0.01737967  0.92077304  1
  O  O520  1  0.90989067  0.35292475  0.17312036  1
  O  O521  1  0.91292067  0.35213812  0.42292097  1
  O  O522  1  0.91178765  0.35251684  0.67148757  1
  O  O523  1  0.91351498  0.35166567  0.92261792  1
  O  O524  1  0.91098495  0.68469120  0.17286762  1
  O  O525  1  0.91326501  0.68481056  0.42167316  1
  O  O526  1  0.91268672  0.68408380  0.67217332  1
  O  O527  1  0.91349572  0.68568103  0.92185067  1
  O  O528  1  0.16230149  0.01782983  0.20300935  1
  O  O529  1  0.16287563  0.01945171  0.45214576  1
  O  O530  1  0.16432345  0.01709675  0.70153867  1
  O  O531  1  0.16441551  0.01846134  0.95161765  1
  O  O532  1  0.16254943  0.35282520  0.20262509  1
  O  O533  1  0.16336872  0.35072715  0.45242192  1
  O  O534  1  0.16289150  0.35243660  0.70334601  1
  O  O535  1  0.16146776  0.35187027  0.95153394  1
  O  O536  1  0.16220179  0.68377516  0.20339257  1
  O  O537  1  0.16340899  0.68521192  0.45177973  1
  O  O538  1  0.16186448  0.68459649  0.70375919  1
  O  O539  1  0.16168568  0.68528817  0.95209617  1
  O  O540  1  0.66274680  0.01730455  0.20372796  1
  O  O541  1  0.66358258  0.01875688  0.45305853  1
  O  O542  1  0.66204185  0.01752069  0.70219568  1
  O  O543  1  0.66093650  0.01791487  0.95163190  1
  O  O544  1  0.66498238  0.35161518  0.20260561  1
  O  O545  1  0.66332990  0.35276120  0.45136449  1
  O  O546  1  0.66318309  0.35116780  0.70199552  1
  O  O547  1  0.66455465  0.35218386  0.95176343  1
  O  O548  1  0.66252607  0.68571870  0.20215280  1
  O  O549  1  0.66223986  0.68371931  0.45246821  1
  O  O550  1  0.66140070  0.68608519  0.70301856  1
  O  O551  1  0.66071112  0.68500478  0.95193187  1
  O  O552  1  0.33855309  0.31389848  0.04680409  1
  O  O553  1  0.33651421  0.31667232  0.29750100  1
  O  O554  1  0.33670589  0.31514378  0.54760128  1
  O  O555  1  0.33904173  0.31479872  0.79690626  1
  O  O556  1  0.33858661  0.64878049  0.04834500  1
  O  O557  1  0.33708320  0.64758814  0.29769371  1
  O  O558  1  0.33733363  0.64855955  0.54691928  1
  O  O559  1  0.33648075  0.64778355  0.79903875  1
  O  O560  1  0.33878343  0.98240377  0.04640104  1
  O  O561  1  0.33844342  0.98128338  0.29835094  1
  O  O562  1  0.33994406  0.98111454  0.54697533  1
  O  O563  1  0.33761517  0.98263262  0.79718559  1
  O  O564  1  0.83825959  0.31572387  0.04620329  1
  O  O565  1  0.83898151  0.31549790  0.29835087  1
  O  O566  1  0.83879818  0.31548033  0.54635052  1
  O  O567  1  0.83871057  0.31333480  0.79787145  1
  O  O568  1  0.83957545  0.64763456  0.04751575  1
  O  O569  1  0.83920230  0.64912703  0.29750534  1
  O  O570  1  0.83817035  0.64740582  0.54780882  1
  O  O571  1  0.83861590  0.64878378  0.79793997  1
  O  O572  1  0.83551459  0.98134850  0.04697329  1
  O  O573  1  0.83691560  0.98017875  0.29851576  1
  O  O574  1  0.83824887  0.98229317  0.54724878  1
  O  O575  1  0.83599975  0.98291733  0.79782203  1
  O  O576  1  0.41235477  0.14826656  0.17199452  1
  O  O577  1  0.41113794  0.14689814  0.42332818  1
  O  O578  1  0.41129376  0.14846106  0.67234489  1
  O  O579  1  0.41220130  0.14778511  0.92216563  1
  O  O580  1  0.41209524  0.48360704  0.17305347  1
  O  O581  1  0.41250409  0.48185796  0.42314262  1
  O  O582  1  0.40976341  0.48046795  0.67254396  1
  O  O583  1  0.41110642  0.48192437  0.92121085  1
  O  O584  1  0.41467836  0.81369988  0.17316913  1
  O  O585  1  0.41402174  0.81584875  0.42279338  1
  O  O586  1  0.41155621  0.81584846  0.67167951  1
  O  O587  1  0.41446960  0.81565136  0.92258787  1
  O  O588  1  0.91239807  0.14806055  0.17278116  1
  O  O589  1  0.91332583  0.14809288  0.42387729  1
  O  O590  1  0.91277961  0.14827840  0.67290092  1
  O  O591  1  0.91138656  0.14779137  0.92071380  1
  O  O592  1  0.91110163  0.48296118  0.17244567  1
  O  O593  1  0.91260215  0.48220968  0.42220197  1
  O  O594  1  0.91243728  0.48262882  0.67127549  1
  O  O595  1  0.91294626  0.48176735  0.92231200  1
  O  O596  1  0.91045897  0.81458543  0.17341110  1
  O  O597  1  0.91353732  0.81507003  0.42230930  1
  O  O598  1  0.91243941  0.81414904  0.67275928  1
  O  O599  1  0.91406940  0.81587077  0.92196942  1
  O  O600  1  0.08677549  0.18493579  0.07707489  1
  O  O601  1  0.08683412  0.18479165  0.32918100  1
  O  O602  1  0.08875629  0.18365409  0.57750642  1
  O  O603  1  0.08623563  0.18599579  0.82704765  1
  O  O604  1  0.08567530  0.51843771  0.07793138  1
  O  O605  1  0.08688273  0.51807454  0.32698639  1
  O  O606  1  0.08660086  0.51822934  0.57727948  1
  O  O607  1  0.08656616  0.51823011  0.82716382  1
  O  O608  1  0.08690592  0.85175854  0.07742875  1
  O  O609  1  0.08564283  0.85160131  0.32789971  1
  O  O610  1  0.08932949  0.85282253  0.57781129  1
  O  O611  1  0.08672586  0.85075979  0.82706150  1
  O  O612  1  0.58726951  0.18560683  0.07731971  1
  O  O613  1  0.58755243  0.18584567  0.32808099  1
  O  O614  1  0.58506873  0.18377379  0.57752935  1
  O  O615  1  0.58498402  0.18421042  0.82703749  1
  O  O616  1  0.58615108  0.51840331  0.07696751  1
  O  O617  1  0.58866337  0.51773798  0.32831679  1
  O  O618  1  0.58813184  0.51774675  0.57664911  1
  O  O619  1  0.58549704  0.51867515  0.82670502  1
  O  O620  1  0.58959329  0.85003562  0.07842398  1
  O  O621  1  0.58699304  0.85100242  0.32790878  1
  O  O622  1  0.58698248  0.85337726  0.57808469  1
  O  O623  1  0.58724858  0.85176382  0.82743739  1
  O  O624  1  0.33764473  0.18354680  0.04660324  1
  O  O625  1  0.33747129  0.18651937  0.29770142  1
  O  O626  1  0.33661418  0.18509000  0.54802893  1
  O  O627  1  0.33943325  0.18455874  0.79661246  1
  O  O628  1  0.33861957  0.51882787  0.04792807  1
  O  O629  1  0.33698161  0.51765291  0.29702721  1
  O  O630  1  0.33720931  0.51820551  0.54673591  1
  O  O631  1  0.33638432  0.51786403  0.79835795  1
  O  O632  1  0.33863439  0.85216787  0.04739796  1
  O  O633  1  0.33860888  0.85143978  0.29837014  1
  O  O634  1  0.33923828  0.85083508  0.54718284  1
  O  O635  1  0.33814810  0.85272009  0.79804064  1
  O  O636  1  0.83813450  0.18544822  0.04670636  1
  O  O637  1  0.83927577  0.18551978  0.29876919  1
  O  O638  1  0.83857691  0.18509633  0.54706403  1
  O  O639  1  0.83763041  0.18329635  0.79718066  1
  O  O640  1  0.83929341  0.51751836  0.04667307  1
  O  O641  1  0.83996940  0.51909555  0.29743350  1
  O  O642  1  0.83770233  0.51734332  0.54709174  1
  O  O643  1  0.83942374  0.51889656  0.79738971  1
  O  O644  1  0.83538118  0.85130301  0.04698721  1
  O  O645  1  0.83611952  0.85034399  0.29829701  1
  O  O646  1  0.83827390  0.85204841  0.54748253  1
  O  O647  1  0.83624589  0.85304588  0.79898396  1
  O  O648  1  0.16178581  0.14813147  0.20335219  1
  O  O649  1  0.16341981  0.14940790  0.45300597  1
  O  O650  1  0.16320308  0.14709139  0.70182576  1
  O  O651  1  0.16502287  0.14838240  0.95129251  1
  O  O652  1  0.16261536  0.48305204  0.20294816  1
  O  O653  1  0.16307431  0.48062761  0.45167685  1
  O  O654  1  0.16321375  0.48264327  0.70348400  1
  O  O655  1  0.16164102  0.48181881  0.95180691  1
  O  O656  1  0.16172345  0.81414475  0.20291271  1
  O  O657  1  0.16393278  0.81504876  0.45142705  1
  O  O658  1  0.16174862  0.81512179  0.70364877  1
  O  O659  1  0.16199115  0.81517065  0.95172811  1
  O  O660  1  0.66290253  0.14758998  0.20293311  1
  O  O661  1  0.66385533  0.14875750  0.45292058  1
  O  O662  1  0.66165294  0.14757249  0.70150392  1
  O  O663  1  0.66083828  0.14788960  0.95096070  1
  O  O664  1  0.66479859  0.48168941  0.20227442  1
  O  O665  1  0.66410343  0.48270790  0.45173474  1
  O  O666  1  0.66283506  0.48130847  0.70211673  1
  O  O667  1  0.66501914  0.48209718  0.95158824  1
  O  O668  1  0.66287553  0.81579633  0.20324225  1
  O  O669  1  0.66160633  0.81376226  0.45204623  1
  O  O670  1  0.66165846  0.81641707  0.70367937  1
  O  O671  1  0.66050633  0.81497824  0.95287487  1
