# generated using pymatgen
data_Na2MnFe(PO4)2
_symmetry_space_group_name_H-M   'P 1'
_cell_length_a   21.07953609
_cell_length_b   18.93120607
_cell_length_c   20.03941826
_cell_angle_alpha   90.00063318
_cell_angle_beta   90.00069656
_cell_angle_gamma   90.00203386
_symmetry_Int_Tables_number   1
_chemical_formula_structural   Na2MnFe(PO4)2
_chemical_formula_sum   'Na96 Mn48 Fe48 P96 O384'
_cell_volume   7996.95111675
_cell_formula_units_Z   48
loop_
 _symmetry_equiv_pos_site_id
 _symmetry_equiv_pos_as_xyz
  1  'x, y, z'
loop_
 _atom_site_type_symbol
 _atom_site_label
 _atom_site_symmetry_multiplicity
 _atom_site_fract_x
 _atom_site_fract_y
 _atom_site_fract_z
 _atom_site_occupancy
  Na  Na0  1  0.00101044  0.00075763  -0.00133542  1
  Na  Na1  1  -0.00008934  -0.00032543  0.24926067  1
  Na  Na2  1  0.00096448  0.00033781  0.50103584  1
  Na  Na3  1  -0.00156766  -0.00105079  0.75123634  1
  Na  Na4  1  -0.00172341  0.33340303  0.00007134  1
  Na  Na5  1  0.00236157  0.33407353  0.24924051  1
  Na  Na6  1  0.00197533  0.33393698  0.49982844  1
  Na  Na7  1  0.00002561  0.33427691  0.75020889  1
  Na  Na8  1  -0.00044479  0.66712936  -0.00011990  1
  Na  Na9  1  -0.00078565  0.66670015  0.25045057  1
  Na  Na10  1  -0.00077079  0.66643963  0.49903926  1
  Na  Na11  1  -0.00205695  0.66560140  0.75054096  1
  Na  Na12  1  0.50046139  0.00029197  0.00008366  1
  Na  Na13  1  0.50162088  0.00030559  0.25036047  1
  Na  Na14  1  0.50055716  -0.00000785  0.49983059  1
  Na  Na15  1  0.49927802  -0.00040696  0.74918452  1
  Na  Na16  1  0.50083756  0.33387906  -0.00026458  1
  Na  Na17  1  0.49927719  0.33400547  0.24931986  1
  Na  Na18  1  0.49865196  0.33335255  0.50145759  1
  Na  Na19  1  0.50089266  0.33371179  0.74971414  1
  Na  Na20  1  0.49883663  0.66600797  -0.00008336  1
  Na  Na21  1  0.50055413  0.66680824  0.24900432  1
  Na  Na22  1  0.50032479  0.66695821  0.50022037  1
  Na  Na23  1  0.49898781  0.66631048  0.75108969  1
  Na  Na24  1  0.24815070  -0.00086487  0.12494099  1
  Na  Na25  1  0.25060197  0.00040783  0.37494406  1
  Na  Na26  1  0.25225642  0.00053371  0.62487658  1
  Na  Na27  1  0.25107896  -0.00002485  0.87489745  1
  Na  Na28  1  0.24933377  0.33319740  0.12469525  1
  Na  Na29  1  0.24915491  0.33389156  0.37494885  1
  Na  Na30  1  0.24913501  0.33355298  0.62516659  1
  Na  Na31  1  0.25111058  0.33432852  0.87552749  1
  Na  Na32  1  0.25102952  0.66709272  0.12457119  1
  Na  Na33  1  0.24958850  0.66596780  0.37475112  1
  Na  Na34  1  0.25137244  0.66738391  0.62582610  1
  Na  Na35  1  0.25083058  0.66700565  0.87500919  1
  Na  Na36  1  0.74909897  -0.00098271  0.12515389  1
  Na  Na37  1  0.74838737  -0.00082079  0.37553826  1
  Na  Na38  1  0.74876032  -0.00016186  0.62431773  1
  Na  Na39  1  0.75119773  0.00087024  0.87495656  1
  Na  Na40  1  0.74899996  0.33325841  0.12489223  1
  Na  Na41  1  0.75000015  0.33394945  0.37489020  1
  Na  Na42  1  0.74879235  0.33335695  0.62515012  1
  Na  Na43  1  0.74970977  0.33380455  0.87556840  1
  Na  Na44  1  0.75051275  0.66622631  0.12520047  1
  Na  Na45  1  0.75033182  0.66677926  0.37646636  1
  Na  Na46  1  0.75154848  0.66686998  0.62428047  1
  Na  Na47  1  0.75186214  0.66644405  0.87336942  1
  Na  Na48  1  -0.00178375  0.16789537  -0.00033877  1
  Na  Na49  1  0.00196611  0.16629714  0.25006131  1
  Na  Na50  1  0.00113216  0.16663346  0.50035665  1
  Na  Na51  1  -0.00235456  0.16775944  0.75060236  1
  Na  Na52  1  -0.00101176  0.49958870  -0.00043581  1
  Na  Na53  1  0.00062840  0.49950680  0.24973326  1
  Na  Na54  1  0.00153268  0.49956205  0.49999057  1
  Na  Na55  1  -0.00119590  0.50019579  0.75065294  1
  Na  Na56  1  0.00048048  0.83210368  -0.00077162  1
  Na  Na57  1  -0.00054661  0.83299937  0.24939260  1
  Na  Na58  1  -0.00039738  0.83297335  0.49944297  1
  Na  Na59  1  0.00144763  0.83184133  0.75101778  1
  Na  Na60  1  0.49917961  0.16796921  -0.00130260  1
  Na  Na61  1  0.49749184  0.16827092  0.24994557  1
  Na  Na62  1  0.49856379  0.16747827  0.50142688  1
  Na  Na63  1  0.50101203  0.16639945  0.75008138  1
  Na  Na64  1  0.50158857  0.49980999  0.00014556  1
  Na  Na65  1  0.50150698  0.49971400  0.24921765  1
  Na  Na66  1  0.49871262  0.50081368  0.49984318  1
  Na  Na67  1  0.50114466  0.49944824  0.75069874  1
  Na  Na68  1  0.49787009  0.83373681  0.00068816  1
  Na  Na69  1  0.50129651  0.83240903  0.24943111  1
  Na  Na70  1  0.50194007  0.83199399  0.50031516  1
  Na  Na71  1  0.49835109  0.83304783  0.74948191  1
  Na  Na72  1  0.25169837  0.16692607  0.12492102  1
  Na  Na73  1  0.24979444  0.16734886  0.37426241  1
  Na  Na74  1  0.25256872  0.16633689  0.62434596  1
  Na  Na75  1  0.25330246  0.16643705  0.87594282  1
  Na  Na76  1  0.24994396  0.49936393  0.12538616  1
  Na  Na77  1  0.24967637  0.49985609  0.37455004  1
  Na  Na78  1  0.24932934  0.49987339  0.62610854  1
  Na  Na79  1  0.24948305  0.49988018  0.87438629  1
  Na  Na80  1  0.24779355  0.83329901  0.12394748  1
  Na  Na81  1  0.25042494  0.83187816  0.37560357  1
  Na  Na82  1  0.25049804  0.83267161  0.62557140  1
  Na  Na83  1  0.25048891  0.83219866  0.87506495  1
  Na  Na84  1  0.75053346  0.16718527  0.12504514  1
  Na  Na85  1  0.75028984  0.16670102  0.37525475  1
  Na  Na86  1  0.74961216  0.16690565  0.62466298  1
  Na  Na87  1  0.74994732  0.16758342  0.87539753  1
  Na  Na88  1  0.74813271  0.50071608  0.12421629  1
  Na  Na89  1  0.74925965  0.50028093  0.37569734  1
  Na  Na90  1  0.75149390  0.49950288  0.62535367  1
  Na  Na91  1  0.75085849  0.49945003  0.87419199  1
  Na  Na92  1  0.75113510  0.83230374  0.12597613  1
  Na  Na93  1  0.74954319  0.83291174  0.37603543  1
  Na  Na94  1  0.74803933  0.83364322  0.62378261  1
  Na  Na95  1  0.75161306  0.83202656  0.87450816  1
  Mn  Mn96  1  0.14252387  0.91635486  0.49776036  1
  Mn  Mn97  1  0.85802056  0.08259538  0.25303560  1
  Mn  Mn98  1  0.14240906  0.24927161  0.74887192  1
  Mn  Mn99  1  0.35749763  0.08305124  0.25234999  1
  Mn  Mn100  1  0.89221002  0.25059742  0.62764465  1
  Mn  Mn101  1  0.14243288  0.58337717  0.99794442  1
  Mn  Mn102  1  0.35750426  0.41681451  0.25174500  1
  Mn  Mn103  1  0.64215377  0.91597391  0.99695229  1
  Mn  Mn104  1  0.35815687  0.08321241  0.00281990  1
  Mn  Mn105  1  0.10771222  0.08414187  0.87202267  1
  Mn  Mn106  1  0.64193764  0.58356859  0.49834076  1
  Mn  Mn107  1  0.85749857  0.41732002  0.25216552  1
  Mn  Mn108  1  0.85868321  0.41615389  0.50202046  1
  Mn  Mn109  1  0.39284356  0.91595593  0.62672296  1
  Mn  Mn110  1  0.39215010  0.58329031  0.37748679  1
  Mn  Mn111  1  0.14175331  0.58363033  0.74773309  1
  Mn  Mn112  1  0.14256811  0.24977854  0.99738656  1
  Mn  Mn113  1  0.64201326  0.91682218  0.74812691  1
  Mn  Mn114  1  0.89223391  0.91625560  0.87732949  1
  Mn  Mn115  1  0.89194312  0.91595268  0.62762214  1
  Mn  Mn116  1  0.89246803  0.91717144  0.12695760  1
  Mn  Mn117  1  0.64140769  0.25004530  0.24771051  1
  Mn  Mn118  1  0.85752201  0.75030034  0.50252221  1
  Mn  Mn119  1  0.14297932  0.25022904  0.49796776  1
  Mn  Mn120  1  0.14144664  0.58314853  0.24730940  1
  Mn  Mn121  1  0.10839307  0.08320779  0.62357124  1
  Mn  Mn122  1  0.85744467  0.08335868  0.00266004  1
  Mn  Mn123  1  0.60692020  0.41699733  0.37294344  1
  Mn  Mn124  1  0.85814038  0.08348475  0.50214404  1
  Mn  Mn125  1  0.35758780  0.75006755  0.25194405  1
  Mn  Mn126  1  0.60758610  0.75003140  0.87298664  1
  Mn  Mn127  1  0.60778202  0.08448081  0.12288422  1
  Mn  Mn128  1  0.89162182  0.58278028  0.12747257  1
  Mn  Mn129  1  0.39272572  0.25071552  0.62794525  1
  Mn  Mn130  1  0.60759560  0.08322834  0.87230236  1
  Mn  Mn131  1  0.60834793  0.74959683  0.12207035  1
  Mn  Mn132  1  0.14315192  0.91735797  0.74786913  1
  Mn  Mn133  1  0.64149120  0.24984922  0.49733880  1
  Mn  Mn134  1  0.10738103  0.75031211  0.37301215  1
  Mn  Mn135  1  0.14113616  0.91670423  0.24794273  1
  Mn  Mn136  1  0.35799048  0.41661141  0.75256406  1
  Mn  Mn137  1  0.10765545  0.08332482  0.12195105  1
  Mn  Mn138  1  0.64328937  0.58334005  0.74729209  1
  Mn  Mn139  1  0.89340413  0.24985095  0.37675181  1
  Mn  Mn140  1  0.39175716  0.91685814  0.12774751  1
  Mn  Mn141  1  0.39246700  0.58276951  0.87794333  1
  Mn  Mn142  1  0.39284634  0.91658122  0.37721688  1
  Mn  Mn143  1  0.60701977  0.08365116  0.37241851  1
  Fe  Fe144  1  0.64269288  0.25047331  0.99813493  1
  Fe  Fe145  1  0.39309071  0.25100625  0.12637988  1
  Fe  Fe146  1  0.64223975  0.91682526  0.49780263  1
  Fe  Fe147  1  0.10763121  0.74921110  0.62359000  1
  Fe  Fe148  1  0.60752727  0.74951960  0.37306603  1
  Fe  Fe149  1  0.10719506  0.41733418  0.62371070  1
  Fe  Fe150  1  0.60707050  0.74953799  0.62395942  1
  Fe  Fe151  1  0.60787995  0.41670654  0.87346902  1
  Fe  Fe152  1  0.14271824  0.91630726  0.99789229  1
  Fe  Fe153  1  0.35791158  0.41736453  0.00175741  1
  Fe  Fe154  1  0.85690254  0.08362008  0.75093644  1
  Fe  Fe155  1  0.14280290  0.58358988  0.49910172  1
  Fe  Fe156  1  0.64315656  0.25008819  0.74894979  1
  Fe  Fe157  1  0.89253302  0.58278568  0.87686622  1
  Fe  Fe158  1  0.14290196  0.24989901  0.24771770  1
  Fe  Fe159  1  0.89262262  0.58301087  0.37666286  1
  Fe  Fe160  1  0.35795173  0.74935798  0.50197953  1
  Fe  Fe161  1  0.60756350  0.08317893  0.62334068  1
  Fe  Fe162  1  0.35644773  0.74936802  0.00189238  1
  Fe  Fe163  1  0.10792327  0.41657329  0.37327067  1
  Fe  Fe164  1  0.39206048  0.91684382  0.87713647  1
  Fe  Fe165  1  0.10691559  0.41693482  0.12216419  1
  Fe  Fe166  1  0.85786978  0.75034182  0.75108964  1
  Fe  Fe167  1  0.85764670  0.74944852  0.00168184  1
  Fe  Fe168  1  0.39381437  0.25045681  0.87669420  1
  Fe  Fe169  1  0.35746817  0.75039680  0.75210959  1
  Fe  Fe170  1  0.60755592  0.41736812  0.62341587  1
  Fe  Fe171  1  0.35771605  0.08321089  0.50135924  1
  Fe  Fe172  1  0.35893932  0.08310671  0.75171292  1
  Fe  Fe173  1  0.10829060  0.08340155  0.37378580  1
  Fe  Fe174  1  0.89218203  0.91707508  0.37666226  1
  Fe  Fe175  1  0.39235647  0.58317446  0.62628649  1
  Fe  Fe176  1  0.64282160  0.58387545  0.24846662  1
  Fe  Fe177  1  0.10698871  0.74895560  0.87317206  1
  Fe  Fe178  1  0.39352106  0.58264498  0.12627036  1
  Fe  Fe179  1  0.64324184  0.91597336  0.24860006  1
  Fe  Fe180  1  0.35659354  0.41753851  0.50213515  1
  Fe  Fe181  1  0.85704501  0.74986084  0.25182377  1
  Fe  Fe182  1  0.39128992  0.25040178  0.37673755  1
  Fe  Fe183  1  0.85749731  0.41611295  0.75190506  1
  Fe  Fe184  1  0.60729647  0.41658436  0.12283622  1
  Fe  Fe185  1  0.10666456  0.74930789  0.12299244  1
  Fe  Fe186  1  0.10630307  0.41685285  0.87390710  1
  Fe  Fe187  1  0.89346822  0.58328101  0.62606361  1
  Fe  Fe188  1  0.85634507  0.41685934  0.00189515  1
  Fe  Fe189  1  0.89255826  0.25032342  0.12700575  1
  Fe  Fe190  1  0.64312153  0.58328943  0.99807168  1
  Fe  Fe191  1  0.89144573  0.25076068  0.87673061  1
  P  P192  1  0.05338719  0.25088814  0.11051406  1
  P  P193  1  0.05508777  0.25001764  0.35953387  1
  P  P194  1  0.05370395  0.25079269  0.61051651  1
  P  P195  1  0.05153142  0.25134054  0.86035357  1
  P  P196  1  0.05282599  0.58330210  0.10969398  1
  P  P197  1  0.05349185  0.58293790  0.36131410  1
  P  P198  1  0.05305346  0.58358222  0.60985799  1
  P  P199  1  0.05227756  0.58300369  0.86061388  1
  P  P200  1  0.05384066  0.91552427  0.10860862  1
  P  P201  1  0.05186580  0.91721099  0.36017063  1
  P  P202  1  0.05359675  0.91543523  0.61049972  1
  P  P203  1  0.05499824  0.91557292  0.86119669  1
  P  P204  1  0.55284978  0.25110565  0.10911622  1
  P  P205  1  0.55086046  0.25047413  0.36007167  1
  P  P206  1  0.55533285  0.25026855  0.61198978  1
  P  P207  1  0.55454958  0.25113261  0.86049530  1
  P  P208  1  0.55475864  0.58275810  0.11023419  1
  P  P209  1  0.55375457  0.58420172  0.35926529  1
  P  P210  1  0.55230582  0.58343749  0.61063778  1
  P  P211  1  0.55511955  0.58274985  0.86123347  1
  P  P212  1  0.55453051  0.91661184  0.11091807  1
  P  P213  1  0.55519519  0.91551620  0.36037719  1
  P  P214  1  0.55446286  0.91629305  0.60973068  1
  P  P215  1  0.55128479  0.91616303  0.85974978  1
  P  P216  1  0.44659233  0.08453677  0.14005234  1
  P  P217  1  0.44579463  0.08423155  0.39073929  1
  P  P218  1  0.44650077  0.08319911  0.63924458  1
  P  P219  1  0.44547672  0.08333765  0.88867649  1
  P  P220  1  0.44666767  0.41714431  0.13823125  1
  P  P221  1  0.44534093  0.41618482  0.39073472  1
  P  P222  1  0.44663039  0.41798755  0.63913392  1
  P  P223  1  0.44768974  0.41605223  0.89059873  1
  P  P224  1  0.44542414  0.74880658  0.13858501  1
  P  P225  1  0.44751945  0.74993695  0.39040796  1
  P  P226  1  0.44586499  0.74871343  0.63949877  1
  P  P227  1  0.44461906  0.75065902  0.88987258  1
  P  P228  1  0.94651997  0.08439424  0.13992724  1
  P  P229  1  0.94851853  0.08263409  0.39012212  1
  P  P230  1  0.94643900  0.08323985  0.64111298  1
  P  P231  1  0.94469878  0.08438804  0.88869471  1
  P  P232  1  0.94614614  0.41604479  0.13870621  1
  P  P233  1  0.94836525  0.41706254  0.38951090  1
  P  P234  1  0.94742269  0.41768665  0.64041547  1
  P  P235  1  0.94483487  0.41668726  0.88938637  1
  P  P236  1  0.94560251  0.74975257  0.13944048  1
  P  P237  1  0.94456603  0.75014439  0.38847695  1
  P  P238  1  0.94761439  0.74908468  0.64028643  1
  P  P239  1  0.94560696  0.74884881  0.88923220  1
  P  P240  1  0.19528253  0.08417549  0.23575891  1
  P  P241  1  0.19788694  0.08341462  0.48467793  1
  P  P242  1  0.19935089  0.08383466  0.73509817  1
  P  P243  1  0.19671886  0.08292621  0.98468180  1
  P  P244  1  0.19433341  0.41582908  0.23510797  1
  P  P245  1  0.19585785  0.41814169  0.48604408  1
  P  P246  1  0.19460303  0.41643276  0.73601876  1
  P  P247  1  0.19636064  0.41688437  0.98533149  1
  P  P248  1  0.19545062  0.74974983  0.23397245  1
  P  P249  1  0.19688308  0.74857517  0.48663595  1
  P  P250  1  0.19617133  0.74986613  0.73578051  1
  P  P251  1  0.19551397  0.74991087  0.98535521  1
  P  P252  1  0.69673634  0.08259555  0.23513043  1
  P  P253  1  0.69517725  0.08284789  0.48581619  1
  P  P254  1  0.69710077  0.08426681  0.73470675  1
  P  P255  1  0.69634894  0.08439496  0.98500408  1
  P  P256  1  0.69546924  0.41781306  0.23435533  1
  P  P257  1  0.69561949  0.41704153  0.48597040  1
  P  P258  1  0.69639465  0.41606309  0.73589940  1
  P  P259  1  0.69556026  0.41681258  0.98563531  1
  P  P260  1  0.69666088  0.74949961  0.23656090  1
  P  P261  1  0.69421579  0.75034030  0.48591158  1
  P  P262  1  0.69768095  0.74974895  0.73424700  1
  P  P263  1  0.69834629  0.74860048  0.98456006  1
  P  P264  1  0.30576107  0.25160436  0.01445741  1
  P  P265  1  0.30379596  0.25066012  0.26422306  1
  P  P266  1  0.30497378  0.25068845  0.51383547  1
  P  P267  1  0.30463019  0.24973402  0.76603712  1
  P  P268  1  0.30416789  0.58280702  0.01549790  1
  P  P269  1  0.30411017  0.58312999  0.26378201  1
  P  P270  1  0.30277833  0.58303779  0.51574905  1
  P  P271  1  0.30463287  0.58392906  0.76409701  1
  P  P272  1  0.30312393  0.91564474  0.01397744  1
  P  P273  1  0.30254601  0.91613778  0.26539969  1
  P  P274  1  0.30385511  0.91615805  0.51483150  1
  P  P275  1  0.30484883  0.91633411  0.76539824  1
  P  P276  1  0.80381049  0.25145581  0.01455081  1
  P  P277  1  0.80395015  0.25046598  0.26427083  1
  P  P278  1  0.80333032  0.25022323  0.51509376  1
  P  P279  1  0.80266610  0.25030053  0.76534043  1
  P  P280  1  0.80364398  0.58289256  0.01335075  1
  P  P281  1  0.80257400  0.58376814  0.26584971  1
  P  P282  1  0.80538703  0.58293961  0.51478023  1
  P  P283  1  0.80622941  0.58317271  0.76354964  1
  P  P284  1  0.80318914  0.91540463  0.01513064  1
  P  P285  1  0.80289152  0.91564629  0.26586034  1
  P  P286  1  0.80306692  0.91688002  0.51407070  1
  P  P287  1  0.80320116  0.91653865  0.76460244  1
  O  O288  1  0.05834337  0.25010354  0.18713303  1
  O  O289  1  0.05779956  0.24996249  0.43641354  1
  O  O290  1  0.05637674  0.24998306  0.68726804  1
  O  O291  1  0.05564095  0.25049856  0.93702402  1
  O  O292  1  0.05550786  0.58343145  0.18648531  1
  O  O293  1  0.05835186  0.58356861  0.43794709  1
  O  O294  1  0.05602805  0.58372170  0.68663422  1
  O  O295  1  0.05605114  0.58325915  0.93723654  1
  O  O296  1  0.05612581  0.91633342  0.18546959  1
  O  O297  1  0.05593261  0.91650689  0.43690144  1
  O  O298  1  0.05683889  0.91611474  0.68730464  1
  O  O299  1  0.05916197  0.91635816  0.93794884  1
  O  O300  1  0.55609844  0.25048430  0.18589430  1
  O  O301  1  0.55486092  0.25030989  0.43678970  1
  O  O302  1  0.55943115  0.25006967  0.68876132  1
  O  O303  1  0.55901547  0.25050887  0.93719944  1
  O  O304  1  0.55924161  0.58387688  0.18691906  1
  O  O305  1  0.55656720  0.58352565  0.43606349  1
  O  O306  1  0.55609438  0.58340564  0.68735780  1
  O  O307  1  0.55936041  0.58363774  0.93797766  1
  O  O308  1  0.55946326  0.91604063  0.18767358  1
  O  O309  1  0.55869711  0.91630107  0.43720251  1
  O  O310  1  0.55681962  0.91635669  0.68658959  1
  O  O311  1  0.55541598  0.91599271  0.93648939  1
  O  O312  1  0.44393025  0.08342757  0.06320427  1
  O  O313  1  0.44297128  0.08339034  0.31389973  1
  O  O314  1  0.44136777  0.08325140  0.56259717  1
  O  O315  1  0.44228085  0.08310813  0.81182600  1
  O  O316  1  0.44240405  0.41741677  0.06159121  1
  O  O317  1  0.44280984  0.41697559  0.31387147  1
  O  O318  1  0.44136396  0.41763712  0.56254694  1
  O  O319  1  0.44397024  0.41679510  0.81387503  1
  O  O320  1  0.44071493  0.74961061  0.06186673  1
  O  O321  1  0.44350394  0.74998796  0.31367907  1
  O  O322  1  0.44132463  0.74933807  0.56275741  1
  O  O323  1  0.44102374  0.74982195  0.81301532  1
  O  O324  1  0.94324032  0.08376567  0.06311239  1
  O  O325  1  0.94462938  0.08300049  0.31338930  1
  O  O326  1  0.94366646  0.08337855  0.56427633  1
  O  O327  1  0.94012357  0.08365811  0.81196372  1
  O  O328  1  0.94085429  0.41681868  0.06206720  1
  O  O329  1  0.94442037  0.41666774  0.31282620  1
  O  O330  1  0.94429468  0.41655788  0.56368561  1
  O  O331  1  0.94066036  0.41632675  0.81263923  1
  O  O332  1  0.94091646  0.74949557  0.06267842  1
  O  O333  1  0.94071666  0.75010252  0.31167115  1
  O  O334  1  0.94376953  0.75022233  0.56355077  1
  O  O335  1  0.94104558  0.74990914  0.81254490  1
  O  O336  1  0.19338506  0.08385310  0.06149241  1
  O  O337  1  0.19136272  0.08343737  0.31255829  1
  O  O338  1  0.19411439  0.08343148  0.56140517  1
  O  O339  1  0.19476488  0.08414629  0.81176374  1
  O  O340  1  0.19119393  0.41677602  0.06204301  1
  O  O341  1  0.19052286  0.41695810  0.31197652  1
  O  O342  1  0.19116215  0.41734503  0.56277558  1
  O  O343  1  0.18986493  0.41674274  0.81276693  1
  O  O344  1  0.19061591  0.74903518  0.06201327  1
  O  O345  1  0.19233653  0.74936149  0.31085016  1
  O  O346  1  0.19200507  0.74929483  0.56329602  1
  O  O347  1  0.19097792  0.74894966  0.81245249  1
  O  O348  1  0.69344397  0.08391145  0.06177793  1
  O  O349  1  0.69342190  0.08379059  0.31192875  1
  O  O350  1  0.69099881  0.08356838  0.56260279  1
  O  O351  1  0.69353817  0.08358512  0.81147271  1
  O  O352  1  0.69110345  0.41669996  0.06234613  1
  O  O353  1  0.69262164  0.41678157  0.31118344  1
  O  O354  1  0.69114942  0.41738283  0.56277814  1
  O  O355  1  0.69176622  0.41690020  0.81260969  1
  O  O356  1  0.69463587  0.74905821  0.06132760  1
  O  O357  1  0.69230560  0.74938428  0.31322228  1
  O  O358  1  0.69000344  0.74918031  0.56267008  1
  O  O359  1  0.69363671  0.74945100  0.81094563  1
  O  O360  1  0.30887915  0.25095772  0.18752648  1
  O  O361  1  0.30775817  0.25080446  0.43700272  1
  O  O362  1  0.30733116  0.25085413  0.68913144  1
  O  O363  1  0.31020140  0.25125335  0.93772660  1
  O  O364  1  0.30902328  0.58285784  0.18712589  1
  O  O365  1  0.30588892  0.58304626  0.43896031  1
  O  O366  1  0.30874382  0.58309574  0.68738122  1
  O  O367  1  0.30662965  0.58245800  0.93862923  1
  O  O368  1  0.30554119  0.91618319  0.18855948  1
  O  O369  1  0.30656641  0.91585370  0.43807276  1
  O  O370  1  0.30767719  0.91628579  0.68857944  1
  O  O371  1  0.30785913  0.91636608  0.93731629  1
  O  O372  1  0.80843341  0.25056611  0.18748907  1
  O  O373  1  0.80727383  0.25048881  0.43831769  1
  O  O374  1  0.80597941  0.25062095  0.68860726  1
  O  O375  1  0.80827258  0.25101057  0.93780460  1
  O  O376  1  0.80606056  0.58287967  0.18903524  1
  O  O377  1  0.80962657  0.58263091  0.43799610  1
  O  O378  1  0.81004313  0.58314270  0.68675581  1
  O  O379  1  0.80817239  0.58276266  0.93665792  1
  O  O380  1  0.80685173  0.91645070  0.18914481  1
  O  O381  1  0.80830299  0.91696950  0.43742997  1
  O  O382  1  0.80545078  0.91631297  0.68778154  1
  O  O383  1  0.80643319  0.91618454  0.93832574  1
  O  O384  1  0.23558183  0.25019738  0.03828266  1
  O  O385  1  0.23342281  0.25074775  0.28771375  1
  O  O386  1  0.23521794  0.25030088  0.53916272  1
  O  O387  1  0.23500402  0.25027607  0.79144682  1
  O  O388  1  0.23450701  0.58295660  0.04078735  1
  O  O389  1  0.23399723  0.58305846  0.28759065  1
  O  O390  1  0.23288188  0.58332368  0.54092567  1
  O  O391  1  0.23460254  0.58359354  0.78845963  1
  O  O392  1  0.23276753  0.91599460  0.03774613  1
  O  O393  1  0.23298340  0.91601272  0.29078618  1
  O  O394  1  0.23433941  0.91637655  0.54066543  1
  O  O395  1  0.23511844  0.91608890  0.79055728  1
  O  O396  1  0.73333120  0.25078734  0.03807690  1
  O  O397  1  0.73387318  0.25063340  0.28836269  1
  O  O398  1  0.73352600  0.25011927  0.53962261  1
  O  O399  1  0.73258872  0.25051369  0.79014826  1
  O  O400  1  0.73343133  0.58285291  0.03756770  1
  O  O401  1  0.73254146  0.58353287  0.29045352  1
  O  O402  1  0.73527395  0.58337346  0.53870215  1
  O  O403  1  0.73611060  0.58291080  0.78773606  1
  O  O404  1  0.73355811  0.91545624  0.04034166  1
  O  O405  1  0.73272092  0.91587274  0.29008265  1
  O  O406  1  0.73266086  0.91650107  0.53742702  1
  O  O407  1  0.73371268  0.91642520  0.79064209  1
  O  O408  1  0.26516207  0.08343354  0.21106326  1
  O  O409  1  0.26802560  0.08365447  0.46036709  1
  O  O410  1  0.26950343  0.08347461  0.71096602  1
  O  O411  1  0.26661891  0.08317624  0.96025801  1
  O  O412  1  0.26445310  0.41634140  0.21110845  1
  O  O413  1  0.26618290  0.41736454  0.46217151  1
  O  O414  1  0.26486167  0.41647255  0.71251601  1
  O  O415  1  0.26688738  0.41742501  0.96214458  1
  O  O416  1  0.26519340  0.75016817  0.20914019  1
  O  O417  1  0.26722902  0.74875388  0.46273154  1
  O  O418  1  0.26675053  0.75029480  0.71278607  1
  O  O419  1  0.26604761  0.74911073  0.96206999  1
  O  O420  1  0.76640020  0.08272638  0.20989697  1
  O  O421  1  0.76513028  0.08306702  0.46139159  1
  O  O422  1  0.76718619  0.08354416  0.71007795  1
  O  O423  1  0.76602687  0.08426823  0.95984810  1
  O  O424  1  0.76516445  0.41724307  0.20910943  1
  O  O425  1  0.76562646  0.41705286  0.46183298  1
  O  O426  1  0.76694948  0.41657891  0.71248066  1
  O  O427  1  0.76595370  0.41684880  0.96183228  1
  O  O428  1  0.76693616  0.74945555  0.21229518  1
  O  O429  1  0.76444820  0.74978215  0.46230715  1
  O  O430  1  0.76787488  0.75005767  0.70999690  1
  O  O431  1  0.76834921  0.74900131  0.95990287  1
  O  O432  1  0.01628236  0.08351013  0.16471011  1
  O  O433  1  0.01856289  0.08339595  0.41480422  1
  O  O434  1  0.01608790  0.08323720  0.66653261  1
  O  O435  1  0.01480275  0.08430669  0.91274010  1
  O  O436  1  0.01655297  0.41678502  0.16209678  1
  O  O437  1  0.01848438  0.41653332  0.41399023  1
  O  O438  1  0.01748040  0.41754508  0.66513943  1
  O  O439  1  0.01521210  0.41684975  0.91339610  1
  O  O440  1  0.01598946  0.74965011  0.16298043  1
  O  O441  1  0.01452257  0.74997317  0.41304926  1
  O  O442  1  0.01768208  0.74877564  0.66486786  1
  O  O443  1  0.01606863  0.74921345  0.91276272  1
  O  O444  1  0.51605947  0.08464909  0.16576332  1
  O  O445  1  0.51547892  0.08394918  0.41593243  1
  O  O446  1  0.51700472  0.08294318  0.66258320  1
  O  O447  1  0.51528217  0.08392553  0.91368386  1
  O  O448  1  0.51687300  0.41689225  0.16250269  1
  O  O449  1  0.51499295  0.41689826  0.41610559  1
  O  O450  1  0.51700983  0.41712896  0.66283975  1
  O  O451  1  0.51787129  0.41676550  0.91479108  1
  O  O452  1  0.51560853  0.74918935  0.16233158  1
  O  O453  1  0.51769326  0.74950689  0.41447886  1
  O  O454  1  0.51628718  0.74959287  0.66329397  1
  O  O455  1  0.51461658  0.74976342  0.91438123  1
  O  O456  1  0.48282027  0.25100572  0.08447606  1
  O  O457  1  0.48084549  0.25077407  0.33555080  1
  O  O458  1  0.48521182  0.25058056  0.58790105  1
  O  O459  1  0.48419120  0.25032096  0.83667320  1
  O  O460  1  0.48441587  0.58282757  0.08639318  1
  O  O461  1  0.48406401  0.58346898  0.33405849  1
  O  O462  1  0.48238941  0.58367948  0.58563949  1
  O  O463  1  0.48501317  0.58277205  0.83729836  1
  O  O464  1  0.48434045  0.91679706  0.08730951  1
  O  O465  1  0.48526370  0.91640293  0.33572950  1
  O  O466  1  0.48477695  0.91613397  0.58432572  1
  O  O467  1  0.48134878  0.91636427  0.83517455  1
  O  O468  1  0.98305177  0.25079944  0.08671523  1
  O  O469  1  0.98539414  0.25029362  0.33419195  1
  O  O470  1  0.98416791  0.25067191  0.58479701  1
  O  O471  1  0.98141448  0.25131157  0.83602741  1
  O  O472  1  0.98323953  0.58309204  0.08427043  1
  O  O473  1  0.98319543  0.58327174  0.33718207  1
  O  O474  1  0.98308030  0.58331039  0.58488312  1
  O  O475  1  0.98220609  0.58274943  0.83611312  1
  O  O476  1  0.98424617  0.91648854  0.08304507  1
  O  O477  1  0.98191733  0.91658570  0.33530056  1
  O  O478  1  0.98390456  0.91606630  0.58531287  1
  O  O479  1  0.98491746  0.91544329  0.83711193  1
  O  O480  1  0.08672650  0.31606876  0.07733794  1
  O  O481  1  0.08948945  0.31507094  0.32735847  1
  O  O482  1  0.08787587  0.31614450  0.57861504  1
  O  O483  1  0.08540539  0.31651381  0.82810227  1
  O  O484  1  0.08685539  0.64852134  0.07737537  1
  O  O485  1  0.08689120  0.64792213  0.32777096  1
  O  O486  1  0.08706083  0.64859145  0.57705394  1
  O  O487  1  0.08595458  0.64806657  0.82753987  1
  O  O488  1  0.08892249  0.98013266  0.07619488  1
  O  O489  1  0.08567379  0.98239067  0.32773324  1
  O  O490  1  0.08805967  0.98043295  0.57815987  1
  O  O491  1  0.08824629  0.98073172  0.82777058  1
  O  O492  1  0.58704200  0.31615930  0.07670507  1
  O  O493  1  0.58490630  0.31544229  0.32742387  1
  O  O494  1  0.58874325  0.31545499  0.57900729  1
  O  O495  1  0.58764190  0.31652482  0.82753342  1
  O  O496  1  0.58835286  0.64750497  0.07629932  1
  O  O497  1  0.58770702  0.64947737  0.32693201  1
  O  O498  1  0.58633109  0.64850042  0.57809092  1
  O  O499  1  0.58848793  0.64768542  0.82767706  1
  O  O500  1  0.58786369  0.98180668  0.07792453  1
  O  O501  1  0.58956056  0.98018760  0.32730947  1
  O  O502  1  0.58866244  0.98141420  0.57745199  1
  O  O503  1  0.58532078  0.98124468  0.82721371  1
  O  O504  1  0.41237147  0.01958320  0.17270305  1
  O  O505  1  0.41157644  0.01915827  0.42333785  1
  O  O506  1  0.41303605  0.01819315  0.67251538  1
  O  O507  1  0.41200790  0.01811017  0.92169633  1
  O  O508  1  0.41305588  0.35199917  0.17124996  1
  O  O509  1  0.41123137  0.35109644  0.42292896  1
  O  O510  1  0.41311621  0.35304094  0.67269830  1
  O  O511  1  0.41408910  0.35082450  0.92311987  1
  O  O512  1  0.41241194  0.68327890  0.17139498  1
  O  O513  1  0.41337153  0.68503946  0.42330004  1
  O  O514  1  0.41262564  0.68364511  0.67273387  1
  O  O515  1  0.41035218  0.68585827  0.92292241  1
  O  O516  1  0.91233744  0.01929677  0.17240211  1
  O  O517  1  0.91478423  0.01745695  0.42275380  1
  O  O518  1  0.91190874  0.01826533  0.67328889  1
  O  O519  1  0.91142226  0.01918236  0.92204773  1
  O  O520  1  0.91326774  0.35086266  0.17210761  1
  O  O521  1  0.91457808  0.35205704  0.42252136  1
  O  O522  1  0.91316834  0.35295277  0.67360848  1
  O  O523  1  0.91124797  0.35181119  0.92279785  1
  O  O524  1  0.91199206  0.68484950  0.17285594  1
  O  O525  1  0.91096105  0.68497425  0.42128319  1
  O  O526  1  0.91339517  0.68399351  0.67239096  1
  O  O527  1  0.91246091  0.68349351  0.92226125  1
  O  O528  1  0.16117675  0.01928522  0.20289416  1
  O  O529  1  0.16398650  0.01836820  0.45183285  1
  O  O530  1  0.16557730  0.01874907  0.70232071  1
  O  O531  1  0.16286194  0.01776325  0.95245864  1
  O  O532  1  0.16102058  0.35053296  0.20230906  1
  O  O533  1  0.16209594  0.35334528  0.45241840  1
  O  O534  1  0.16122408  0.35145404  0.70272632  1
  O  O535  1  0.16322199  0.35180148  0.95181656  1
  O  O536  1  0.16143462  0.68473787  0.20119305  1
  O  O537  1  0.16353069  0.68341867  0.45351146  1
  O  O538  1  0.16312585  0.68489197  0.70181702  1
  O  O539  1  0.16201556  0.68504181  0.95147046  1
  O  O540  1  0.66272031  0.01722696  0.20335907  1
  O  O541  1  0.66153628  0.01755885  0.45332537  1
  O  O542  1  0.66265108  0.01947214  0.70195647  1
  O  O543  1  0.66227153  0.01932362  0.95237395  1
  O  O544  1  0.66069174  0.35315728  0.20154829  1
  O  O545  1  0.66204287  0.35203337  0.45281914  1
  O  O546  1  0.66312146  0.35090608  0.70295798  1
  O  O547  1  0.66219250  0.35167278  0.95233844  1
  O  O548  1  0.66338436  0.68436878  0.20311508  1
  O  O549  1  0.66058626  0.68554002  0.45224195  1
  O  O550  1  0.66402676  0.68468009  0.70115550  1
  O  O551  1  0.66466967  0.68348241  0.95192747  1
  O  O552  1  0.33845035  0.31717920  0.04767469  1
  O  O553  1  0.33718612  0.31556478  0.29784845  1
  O  O554  1  0.33848189  0.31598543  0.54672153  1
  O  O555  1  0.33926262  0.31454042  0.79867091  1
  O  O556  1  0.33858125  0.64793182  0.04747752  1
  O  O557  1  0.33736359  0.64821263  0.29719199  1
  O  O558  1  0.33740775  0.64784970  0.54822829  1
  O  O559  1  0.33815577  0.64915958  0.79674020  1
  O  O560  1  0.33650716  0.98062713  0.04759920  1
  O  O561  1  0.33684884  0.98123731  0.29750248  1
  O  O562  1  0.33822140  0.98139356  0.54676856  1
  O  O563  1  0.33894159  0.98147415  0.79779284  1
  O  O564  1  0.83682994  0.31678412  0.04774850  1
  O  O565  1  0.83752664  0.31554073  0.29731720  1
  O  O566  1  0.83710169  0.31529942  0.54799139  1
  O  O567  1  0.83674199  0.31528622  0.79820178  1
  O  O568  1  0.83704982  0.64794503  0.04658826  1
  O  O569  1  0.83673655  0.64878121  0.29813466  1
  O  O570  1  0.83929153  0.64790481  0.54773670  1
  O  O571  1  0.83966782  0.64840699  0.79652184  1
  O  O572  1  0.83713496  0.98059285  0.04773848  1
  O  O573  1  0.83679681  0.98057025  0.29915959  1
  O  O574  1  0.83621511  0.98182592  0.54756707  1
  O  O575  1  0.83745392  0.98171012  0.79662493  1
  O  O576  1  0.41222581  0.14997187  0.17138905  1
  O  O577  1  0.41156279  0.14936596  0.42280839  1
  O  O578  1  0.41335139  0.14819079  0.67296173  1
  O  O579  1  0.41149497  0.14854910  0.92099875  1
  O  O580  1  0.41336936  0.48215126  0.17179262  1
  O  O581  1  0.41073208  0.48109596  0.42325047  1
  O  O582  1  0.41372400  0.48315137  0.67261345  1
  O  O583  1  0.41341577  0.48073883  0.92378527  1
  O  O584  1  0.41198903  0.81369258  0.17220638  1
  O  O585  1  0.41391344  0.81493191  0.42354160  1
  O  O586  1  0.41207417  0.81363828  0.67277449  1
  O  O587  1  0.41110874  0.81595805  0.92249234  1
  O  O588  1  0.91294864  0.14969612  0.17226662  1
  O  O589  1  0.91444158  0.14770405  0.42274611  1
  O  O590  1  0.91188026  0.14826571  0.67328833  1
  O  O591  1  0.91125017  0.14967449  0.92145098  1
  O  O592  1  0.91278659  0.48099243  0.17241617  1
  O  O593  1  0.91475924  0.48220172  0.42219947  1
  O  O594  1  0.91346953  0.48286113  0.67258517  1
  O  O595  1  0.91135583  0.48190292  0.92243633  1
  O  O596  1  0.91217811  0.81483424  0.17259625  1
  O  O597  1  0.91112179  0.81535432  0.42151757  1
  O  O598  1  0.91376895  0.81395860  0.67365566  1
  O  O599  1  0.91202739  0.81356883  0.92307633  1
  O  O600  1  0.08665469  0.18590749  0.07678783  1
  O  O601  1  0.08918171  0.18483276  0.32723879  1
  O  O602  1  0.08812242  0.18583075  0.57808305  1
  O  O603  1  0.08539706  0.18641490  0.82709739  1
  O  O604  1  0.08722407  0.51826745  0.07744797  1
  O  O605  1  0.08682592  0.51777443  0.32820745  1
  O  O606  1  0.08738007  0.51853277  0.57752943  1
  O  O607  1  0.08610683  0.51791237  0.82796223  1
  O  O608  1  0.08767573  0.84993383  0.07685258  1
  O  O609  1  0.08587037  0.85217506  0.32737949  1
  O  O610  1  0.08726053  0.85000188  0.57820545  1
  O  O611  1  0.08854712  0.85028675  0.82870485  1
  O  O612  1  0.58690033  0.18624390  0.07610318  1
  O  O613  1  0.58459662  0.18545532  0.32709136  1
  O  O614  1  0.58828518  0.18492123  0.57876502  1
  O  O615  1  0.58846466  0.18643847  0.82695025  1
  O  O616  1  0.58827896  0.51755215  0.07737058  1
  O  O617  1  0.58841463  0.51944824  0.32671476  1
  O  O618  1  0.58619297  0.51838994  0.57784700  1
  O  O619  1  0.58861369  0.51747253  0.82852423  1
  O  O620  1  0.58769850  0.85150090  0.07730188  1
  O  O621  1  0.58851344  0.85002482  0.32773023  1
  O  O622  1  0.58872329  0.85111427  0.57773332  1
  O  O623  1  0.58511202  0.85111351  0.82700518  1
  O  O624  1  0.34009088  0.18700102  0.04775080  1
  O  O625  1  0.33718447  0.18563947  0.29760653  1
  O  O626  1  0.33915779  0.18564207  0.54624638  1
  O  O627  1  0.33902032  0.18453757  0.79767023  1
  O  O628  1  0.33852849  0.51782889  0.04797805  1
  O  O629  1  0.33740800  0.51809004  0.29718287  1
  O  O630  1  0.33676977  0.51786797  0.54845590  1
  O  O631  1  0.33826959  0.51901302  0.79750977  1
  O  O632  1  0.33621315  0.85037081  0.04705706  1
  O  O633  1  0.33692200  0.85118592  0.29768334  1
  O  O634  1  0.33794198  0.85095669  0.54723248  1
  O  O635  1  0.33903483  0.85122011  0.79778210  1
  O  O636  1  0.83769876  0.18674744  0.04801049  1
  O  O637  1  0.83743412  0.18530499  0.29728946  1
  O  O638  1  0.83729437  0.18515526  0.54761309  1
  O  O639  1  0.83647294  0.18513262  0.79786100  1
  O  O640  1  0.83686220  0.51775430  0.04682523  1
  O  O641  1  0.83671611  0.51881271  0.29876209  1
  O  O642  1  0.83902788  0.51806536  0.54807144  1
  O  O643  1  0.83986269  0.51814975  0.79680312  1
  O  O644  1  0.83734603  0.85021514  0.04711303  1
  O  O645  1  0.83660197  0.85050586  0.29843170  1
  O  O646  1  0.83631838  0.85179820  0.54754133  1
  O  O647  1  0.83770269  0.85139418  0.79659484  1
  O  O648  1  0.16222828  0.14967914  0.20288938  1
  O  O649  1  0.16383202  0.14834426  0.45189318  1
  O  O650  1  0.16581503  0.14889541  0.70210156  1
  O  O651  1  0.16293830  0.14806619  0.95182871  1
  O  O652  1  0.16031461  0.48053603  0.20167007  1
  O  O653  1  0.16280475  0.48352911  0.45298821  1
  O  O654  1  0.16114981  0.48146736  0.70254718  1
  O  O655  1  0.16263006  0.48173320  0.95196532  1
  O  O656  1  0.16086325  0.81462932  0.20176858  1
  O  O657  1  0.16343101  0.81352787  0.45299840  1
  O  O658  1  0.16277964  0.81478883  0.70243287  1
  O  O659  1  0.16255547  0.81507117  0.95201223  1
  O  O660  1  0.66264953  0.14770751  0.20244727  1
  O  O661  1  0.66154573  0.14777698  0.45239954  1
  O  O662  1  0.66347388  0.14959130  0.70235329  1
  O  O663  1  0.66237532  0.14969897  0.95291496  1
  O  O664  1  0.66164703  0.48331330  0.20240831  1
  O  O665  1  0.66202877  0.48211215  0.45299632  1
  O  O666  1  0.66288348  0.48087156  0.70201857  1
  O  O667  1  0.66223115  0.48180825  0.95213230  1
  O  O668  1  0.66328174  0.81456791  0.20323940  1
  O  O669  1  0.66101412  0.81559671  0.45295838  1
  O  O670  1  0.66329390  0.81460553  0.70180854  1
  O  O671  1  0.66425926  0.81359407  0.95178551  1
