# generated using pymatgen
data_Na2MnFe(PO4)2
_symmetry_space_group_name_H-M   'P 1'
_cell_length_a   21.09448331
_cell_length_b   18.94882988
_cell_length_c   20.05225797
_cell_angle_alpha   89.99922887
_cell_angle_beta   90.00181163
_cell_angle_gamma   90.00091045
_symmetry_Int_Tables_number   1
_chemical_formula_structural   Na2MnFe(PO4)2
_chemical_formula_sum   'Na96 Mn48 Fe48 P96 O384'
_cell_volume   8015.20384001
_cell_formula_units_Z   48
loop_
 _symmetry_equiv_pos_site_id
 _symmetry_equiv_pos_as_xyz
  1  'x, y, z'
loop_
 _atom_site_type_symbol
 _atom_site_label
 _atom_site_symmetry_multiplicity
 _atom_site_fract_x
 _atom_site_fract_y
 _atom_site_fract_z
 _atom_site_occupancy
  Na  Na0  1  0.00046139  0.00008237  -0.00103112  1
  Na  Na1  1  0.00084162  -0.00040651  0.25046489  1
  Na  Na2  1  -0.00030133  -0.00011525  0.49949805  1
  Na  Na3  1  -0.00280336  -0.00169615  0.75079935  1
  Na  Na4  1  0.00107201  0.33356936  0.00108033  1
  Na  Na5  1  -0.00092706  0.33319726  0.24899658  1
  Na  Na6  1  -0.00114486  0.33310056  0.49944501  1
  Na  Na7  1  0.00080683  0.33311445  0.75063328  1
  Na  Na8  1  -0.00017942  0.66661241  0.00111883  1
  Na  Na9  1  0.00027180  0.66645432  0.24945047  1
  Na  Na10  1  0.00082644  0.66618686  0.50055214  1
  Na  Na11  1  0.00193780  0.66717716  0.74984396  1
  Na  Na12  1  0.50151332  0.00074462  -0.00043440  1
  Na  Na13  1  0.49803368  -0.00047747  0.24924097  1
  Na  Na14  1  0.49724014  -0.00131102  0.50078175  1
  Na  Na15  1  0.50077439  0.00027589  0.75032449  1
  Na  Na16  1  0.49789507  0.33295874  -0.00002804  1
  Na  Na17  1  0.49932066  0.33310616  0.24948218  1
  Na  Na18  1  0.50143212  0.33337032  0.49998229  1
  Na  Na19  1  0.49963100  0.33298540  0.74990138  1
  Na  Na20  1  0.49826359  0.66621596  0.00102881  1
  Na  Na21  1  0.50175443  0.66732581  0.25018614  1
  Na  Na22  1  0.50128236  0.66713012  0.49892044  1
  Na  Na23  1  0.50030024  0.66708896  0.74919155  1
  Na  Na24  1  0.25057396  -0.00037003  0.12561419  1
  Na  Na25  1  0.25212262  0.00009748  0.37532537  1
  Na  Na26  1  0.25095291  -0.00037957  0.62517009  1
  Na  Na27  1  0.25067959  0.00033714  0.87361951  1
  Na  Na28  1  0.24937439  0.33246376  0.12439923  1
  Na  Na29  1  0.25087827  0.33426532  0.37649517  1
  Na  Na30  1  0.24961834  0.33305151  0.62485602  1
  Na  Na31  1  0.25087334  0.33402212  0.87496251  1
  Na  Na32  1  0.25187324  0.66656751  0.12389356  1
  Na  Na33  1  0.25188865  0.66739114  0.37455055  1
  Na  Na34  1  0.24820073  0.66580644  0.62620888  1
  Na  Na35  1  0.24959990  0.66648505  0.87468311  1
  Na  Na36  1  0.74836345  -0.00075534  0.12417551  1
  Na  Na37  1  0.75039322  0.00037694  0.37513514  1
  Na  Na38  1  0.75186902  0.00068252  0.62636686  1
  Na  Na39  1  0.74916050  -0.00087182  0.87447460  1
  Na  Na40  1  0.75123503  0.33391926  0.12492497  1
  Na  Na41  1  0.75004484  0.33341243  0.37536757  1
  Na  Na42  1  0.74930779  0.33253659  0.62475811  1
  Na  Na43  1  0.75131301  0.33328142  0.87457861  1
  Na  Na44  1  0.74861758  0.66670585  0.12544985  1
  Na  Na45  1  0.74716282  0.66620754  0.37535286  1
  Na  Na46  1  0.74697702  0.66633659  0.62483185  1
  Na  Na47  1  0.74945683  0.66737917  0.87505692  1
  Na  Na48  1  0.00021717  0.16727427  -0.00043195  1
  Na  Na49  1  0.00112101  0.16703391  0.24901730  1
  Na  Na50  1  -0.00156265  0.16784938  0.50087696  1
  Na  Na51  1  -0.00127828  0.16762069  0.75100666  1
  Na  Na52  1  0.00046102  0.50024208  0.00109900  1
  Na  Na53  1  -0.00056799  0.50044946  0.24999381  1
  Na  Na54  1  0.00175560  0.49985085  0.49917629  1
  Na  Na55  1  0.00311712  0.49917116  0.74999468  1
  Na  Na56  1  0.00032581  0.83296292  0.00021511  1
  Na  Na57  1  -0.00015419  0.83352129  0.25018837  1
  Na  Na58  1  -0.00088867  0.83380471  0.49928284  1
  Na  Na59  1  -0.00088165  0.83352191  0.75064343  1
  Na  Na60  1  0.49960546  0.16744378  0.00076006  1
  Na  Na61  1  0.50115784  0.16648552  0.24935412  1
  Na  Na62  1  0.49968148  0.16753353  0.50052814  1
  Na  Na63  1  0.50114424  0.16649563  0.74860436  1
  Na  Na64  1  0.49553060  0.50082766  0.00031396  1
  Na  Na65  1  0.49967166  0.49974185  0.25009772  1
  Na  Na66  1  0.50209233  0.49852344  0.49904055  1
  Na  Na67  1  0.49743820  0.50026817  0.75060483  1
  Na  Na68  1  0.50153766  0.83241850  -0.00043975  1
  Na  Na69  1  0.49864659  0.83293509  0.24938399  1
  Na  Na70  1  0.49982389  0.83256148  0.50032925  1
  Na  Na71  1  0.50257875  0.83265536  0.75016432  1
  Na  Na72  1  0.24983505  0.16720369  0.12447379  1
  Na  Na73  1  0.25157404  0.16669419  0.37608061  1
  Na  Na74  1  0.25044252  0.16687413  0.62419685  1
  Na  Na75  1  0.24903456  0.16780938  0.87478275  1
  Na  Na76  1  0.25284034  0.49906997  0.12392117  1
  Na  Na77  1  0.24858924  0.50118727  0.37561090  1
  Na  Na78  1  0.24840495  0.49997135  0.62537336  1
  Na  Na79  1  0.25066762  0.49956807  0.87530819  1
  Na  Na80  1  0.25165519  0.83268982  0.12487365  1
  Na  Na81  1  0.25135428  0.83349179  0.37546567  1
  Na  Na82  1  0.25159239  0.83245449  0.62577663  1
  Na  Na83  1  0.24951842  0.83389157  0.87381653  1
  Na  Na84  1  0.74952177  0.16766773  0.12387154  1
  Na  Na85  1  0.74953347  0.16792698  0.37528046  1
  Na  Na86  1  0.75058258  0.16724761  0.62571394  1
  Na  Na87  1  0.75119192  0.16672945  0.87481516  1
  Na  Na88  1  0.75162421  0.49937590  0.12555766  1
  Na  Na89  1  0.74864235  0.50045267  0.37534999  1
  Na  Na90  1  0.74852961  0.50036458  0.62457994  1
  Na  Na91  1  0.75092475  0.49990063  0.87488496  1
  Na  Na92  1  0.74732537  0.83302570  0.12496721  1
  Na  Na93  1  0.74841051  0.83279740  0.37526519  1
  Na  Na94  1  0.74895295  0.83329124  0.62586917  1
  Na  Na95  1  0.74812470  0.83345955  0.87436782  1
  Mn  Mn96  1  0.64087239  0.58277614  0.74816128  1
  Mn  Mn97  1  0.64243772  0.25038849  0.99690471  1
  Mn  Mn98  1  0.60712638  0.08301711  0.37285225  1
  Mn  Mn99  1  0.10680840  0.08327321  0.62301698  1
  Mn  Mn100  1  0.60736758  0.41723648  0.12249260  1
  Mn  Mn101  1  0.10753558  0.08308455  0.87242795  1
  Mn  Mn102  1  0.39276448  0.58278917  0.37741456  1
  Mn  Mn103  1  0.35811981  0.08443405  0.75267163  1
  Mn  Mn104  1  0.14345118  0.58367018  0.99759716  1
  Mn  Mn105  1  0.39139926  0.25037581  0.12759474  1
  Mn  Mn106  1  0.64156785  0.91729791  0.49764577  1
  Mn  Mn107  1  0.89291714  0.58341571  0.87695690  1
  Mn  Mn108  1  0.89179142  0.91682715  0.12669373  1
  Mn  Mn109  1  0.85705534  0.75001818  0.75230003  1
  Mn  Mn110  1  0.85658250  0.74987570  0.50201076  1
  Mn  Mn111  1  0.14329769  0.91637977  0.24774291  1
  Mn  Mn112  1  0.85876192  0.41686066  0.75229788  1
  Mn  Mn113  1  0.60697792  0.41643197  0.87310631  1
  Mn  Mn114  1  0.14195583  0.24939948  0.49753750  1
  Mn  Mn115  1  0.60784180  0.08298735  0.12247591  1
  Mn  Mn116  1  0.85652534  0.74947849  0.25252358  1
  Mn  Mn117  1  0.39202506  0.58352976  0.62658295  1
  Mn  Mn118  1  0.39334289  0.91700541  0.87742956  1
  Mn  Mn119  1  0.60771531  0.41725775  0.62340596  1
  Mn  Mn120  1  0.85714888  0.41715523  0.50231483  1
  Mn  Mn121  1  0.85778520  0.08382611  0.25227036  1
  Mn  Mn122  1  0.10882575  0.75049770  0.12283681  1
  Mn  Mn123  1  0.85742903  0.08278175  0.00233665  1
  Mn  Mn124  1  0.14172188  0.91718722  0.74732927  1
  Mn  Mn125  1  0.64162508  0.58285058  0.99768420  1
  Mn  Mn126  1  0.10747034  0.41637662  0.37218989  1
  Mn  Mn127  1  0.64082715  0.91704720  0.24793380  1
  Mn  Mn128  1  0.10907976  0.08276745  0.12253666  1
  Mn  Mn129  1  0.10781528  0.75037366  0.62222234  1
  Mn  Mn130  1  0.60815582  0.08284157  0.62244660  1
  Mn  Mn131  1  0.35818502  0.08389763  0.25290839  1
  Mn  Mn132  1  0.10828007  0.41690814  0.12348676  1
  Mn  Mn133  1  0.35786422  0.41739274  0.50226728  1
  Mn  Mn134  1  0.89242871  0.58338279  0.62708575  1
  Mn  Mn135  1  0.89193735  0.58387240  0.12754137  1
  Mn  Mn136  1  0.39229769  0.91618114  0.12584940  1
  Mn  Mn137  1  0.10850248  0.74977666  0.37293750  1
  Mn  Mn138  1  0.10834218  0.08392811  0.37329735  1
  Mn  Mn139  1  0.85811920  0.08324317  0.50238594  1
  Mn  Mn140  1  0.89185160  0.91649611  0.37737232  1
  Mn  Mn141  1  0.89279874  0.24956269  0.12726656  1
  Mn  Mn142  1  0.39256189  0.24991536  0.62735021  1
  Mn  Mn143  1  0.35787775  0.74909622  0.75268811  1
  Fe  Fe144  1  0.60748763  0.08380383  0.87329855  1
  Fe  Fe145  1  0.85668616  0.41694615  0.25207710  1
  Fe  Fe146  1  0.35768600  0.75070148  0.00088247  1
  Fe  Fe147  1  0.60634947  0.74951559  0.12278368  1
  Fe  Fe148  1  0.89220466  0.25037183  0.37619686  1
  Fe  Fe149  1  0.64298714  0.25010492  0.49767506  1
  Fe  Fe150  1  0.10732909  0.74981882  0.87428071  1
  Fe  Fe151  1  0.89222732  0.91591845  0.87757923  1
  Fe  Fe152  1  0.35766673  0.75005312  0.50180120  1
  Fe  Fe153  1  0.85848057  0.41750845  0.00120841  1
  Fe  Fe154  1  0.14294346  0.58276681  0.74885403  1
  Fe  Fe155  1  0.89240524  0.25005425  0.62724910  1
  Fe  Fe156  1  0.35642988  0.41622966  0.75148890  1
  Fe  Fe157  1  0.35682107  0.41609177  0.00143157  1
  Fe  Fe158  1  0.89235531  0.58334150  0.37689086  1
  Fe  Fe159  1  0.64258354  0.58239286  0.24803917  1
  Fe  Fe160  1  0.35799825  0.74913850  0.25181128  1
  Fe  Fe161  1  0.85703382  0.08334144  0.75210445  1
  Fe  Fe162  1  0.64187414  0.58262047  0.49759378  1
  Fe  Fe163  1  0.39291634  0.91622538  0.62690851  1
  Fe  Fe164  1  0.60739874  0.41609807  0.37241827  1
  Fe  Fe165  1  0.39243692  0.24970352  0.87606652  1
  Fe  Fe166  1  0.14271325  0.58438359  0.49780687  1
  Fe  Fe167  1  0.64333302  0.24984422  0.74895526  1
  Fe  Fe168  1  0.14250783  0.25044377  0.74840438  1
  Fe  Fe169  1  0.64280231  0.25062981  0.24872221  1
  Fe  Fe170  1  0.10825688  0.41704227  0.87379263  1
  Fe  Fe171  1  0.64241683  0.91643099  0.99742960  1
  Fe  Fe172  1  0.14349656  0.91623295  0.49882421  1
  Fe  Fe173  1  0.89356423  0.25062043  0.87694418  1
  Fe  Fe174  1  0.39322248  0.24965594  0.37633482  1
  Fe  Fe175  1  0.35759040  0.08292314  0.50186506  1
  Fe  Fe176  1  0.39218371  0.91684076  0.37749124  1
  Fe  Fe177  1  0.14341682  0.24947921  0.99787876  1
  Fe  Fe178  1  0.39261941  0.58359971  0.12775316  1
  Fe  Fe179  1  0.14314525  0.91686094  0.99822413  1
  Fe  Fe180  1  0.10756485  0.41611408  0.62364843  1
  Fe  Fe181  1  0.85666319  0.74967013  0.00155117  1
  Fe  Fe182  1  0.60601378  0.75003738  0.37307063  1
  Fe  Fe183  1  0.35746760  0.08308992  0.00057137  1
  Fe  Fe184  1  0.89225140  0.91673324  0.62660379  1
  Fe  Fe185  1  0.64330734  0.91752825  0.74798260  1
  Fe  Fe186  1  0.14309997  0.25077984  0.24925953  1
  Fe  Fe187  1  0.14351246  0.58313248  0.24856929  1
  Fe  Fe188  1  0.60695562  0.74963181  0.87380273  1
  Fe  Fe189  1  0.60666561  0.75006574  0.62293691  1
  Fe  Fe190  1  0.35708374  0.41664022  0.25211896  1
  Fe  Fe191  1  0.39165584  0.58331359  0.87646778  1
  P  P192  1  0.05614295  0.25012840  0.11032709  1
  P  P193  1  0.05233377  0.25031330  0.35917620  1
  P  P194  1  0.05317309  0.25057979  0.61144810  1
  P  P195  1  0.05476973  0.25083291  0.86111261  1
  P  P196  1  0.05524959  0.58338607  0.11125244  1
  P  P197  1  0.05411430  0.58354024  0.36006148  1
  P  P198  1  0.05564406  0.58226421  0.61056513  1
  P  P199  1  0.05458571  0.58344909  0.86020195  1
  P  P200  1  0.05429573  0.91660726  0.10889367  1
  P  P201  1  0.05496351  0.91646893  0.36116504  1
  P  P202  1  0.05223043  0.91689183  0.60934626  1
  P  P203  1  0.05342229  0.91571278  0.86140057  1
  P  P204  1  0.55461747  0.25070535  0.11093493  1
  P  P205  1  0.55392282  0.25043262  0.36035760  1
  P  P206  1  0.55569657  0.25009426  0.61053840  1
  P  P207  1  0.55250873  0.24933914  0.85943694  1
  P  P208  1  0.55289867  0.58348203  0.11124757  1
  P  P209  1  0.55515697  0.58278679  0.36032749  1
  P  P210  1  0.55348759  0.58386343  0.60909026  1
  P  P211  1  0.55099616  0.58346010  0.86057234  1
  P  P212  1  0.55393197  0.91560793  0.10899439  1
  P  P213  1  0.55093160  0.91623167  0.36018417  1
  P  P214  1  0.55346290  0.91615943  0.61125548  1
  P  P215  1  0.55582125  0.91691248  0.86055883  1
  P  P216  1  0.44527928  0.08322312  0.13847934  1
  P  P217  1  0.44600488  0.08373168  0.39068380  1
  P  P218  1  0.44552122  0.08241134  0.63898156  1
  P  P219  1  0.44775565  0.08456625  0.89019510  1
  P  P220  1  0.44418958  0.41737499  0.13952712  1
  P  P221  1  0.44678212  0.41561023  0.38867382  1
  P  P222  1  0.44586649  0.41679368  0.64072042  1
  P  P223  1  0.44399993  0.41597549  0.88901280  1
  P  P224  1  0.44548086  0.74929470  0.13909178  1
  P  P225  1  0.44560392  0.75009774  0.38924901  1
  P  P226  1  0.44620129  0.75042857  0.63875813  1
  P  P227  1  0.44739864  0.74957002  0.89019036  1
  P  P228  1  0.94733239  0.08294887  0.13998176  1
  P  P229  1  0.94688500  0.08465801  0.38992857  1
  P  P230  1  0.94544946  0.08334012  0.64102711  1
  P  P231  1  0.94497042  0.08332521  0.88873111  1
  P  P232  1  0.94483823  0.41696241  0.13989332  1
  P  P233  1  0.94473273  0.41702098  0.38842230  1
  P  P234  1  0.94801745  0.41637412  0.63981958  1
  P  P235  1  0.94845173  0.41634703  0.89062479  1
  P  P236  1  0.94557389  0.75042136  0.13934470  1
  P  P237  1  0.94643954  0.74851690  0.39001712  1
  P  P238  1  0.94632083  0.75055355  0.63988691  1
  P  P239  1  0.94696618  0.75021267  0.89065978  1
  P  P240  1  0.19733083  0.08449283  0.23559228  1
  P  P241  1  0.19798563  0.08204953  0.48566263  1
  P  P242  1  0.19653049  0.08460451  0.73473156  1
  P  P243  1  0.19805214  0.08283404  0.98455730  1
  P  P244  1  0.19811087  0.41693448  0.23542486  1
  P  P245  1  0.19498108  0.41736371  0.48634870  1
  P  P246  1  0.19560553  0.41643231  0.73616311  1
  P  P247  1  0.19736506  0.41617783  0.98475130  1
  P  P248  1  0.19877296  0.74891772  0.23512545  1
  P  P249  1  0.19823031  0.75034427  0.48541573  1
  P  P250  1  0.19507202  0.74934611  0.73652836  1
  P  P251  1  0.19794148  0.75091853  0.98440985  1
  P  P252  1  0.69638648  0.08459228  0.23484790  1
  P  P253  1  0.69685958  0.08418901  0.48515264  1
  P  P254  1  0.69640219  0.08377185  0.73667352  1
  P  P255  1  0.69586334  0.08286503  0.98393259  1
  P  P256  1  0.69616155  0.41655107  0.23621479  1
  P  P257  1  0.69526041  0.41635805  0.48454526  1
  P  P258  1  0.69690125  0.41565102  0.73534204  1
  P  P259  1  0.69826300  0.41702552  0.98485220  1
  P  P260  1  0.69330429  0.74898656  0.23572878  1
  P  P261  1  0.69357982  0.74955792  0.48559357  1
  P  P262  1  0.69366349  0.75066407  0.73580940  1
  P  P263  1  0.69534308  0.74999411  0.98553641  1
  P  P264  1  0.30378983  0.24958173  0.01292622  1
  P  P265  1  0.30272316  0.25128291  0.26632702  1
  P  P266  1  0.30497305  0.24966432  0.51379957  1
  P  P267  1  0.30258609  0.25097142  0.76520626  1
  P  P268  1  0.30616813  0.58369772  0.01383131  1
  P  P269  1  0.30402195  0.58282542  0.26391624  1
  P  P270  1  0.30212430  0.58419971  0.51501081  1
  P  P271  1  0.30270736  0.58209849  0.76522938  1
  P  P272  1  0.30258743  0.91688101  0.01392304  1
  P  P273  1  0.30492463  0.91556121  0.26551251  1
  P  P274  1  0.30472010  0.91630453  0.51479752  1
  P  P275  1  0.30484424  0.91660957  0.76396410  1
  P  P276  1  0.80524114  0.25106447  0.01353980  1
  P  P277  1  0.80272938  0.25089960  0.26519918  1
  P  P278  1  0.80408917  0.25038269  0.51461233  1
  P  P279  1  0.80480771  0.24953146  0.76451631  1
  P  P280  1  0.80348368  0.58387854  0.01479449  1
  P  P281  1  0.80231235  0.58290993  0.26580621  1
  P  P282  1  0.80232678  0.58349407  0.51398756  1
  P  P283  1  0.80270832  0.58355777  0.76500678  1
  P  P284  1  0.80272330  0.91515596  0.01357170  1
  P  P285  1  0.80223537  0.91638916  0.26494936  1
  P  P286  1  0.80317775  0.91635624  0.51611127  1
  P  P287  1  0.80426486  0.91710828  0.76455192  1
  O  O288  1  0.06062045  0.25049830  0.18705801  1
  O  O289  1  0.05627631  0.25044065  0.43596897  1
  O  O290  1  0.05822823  0.25001113  0.68805011  1
  O  O291  1  0.05981767  0.24995985  0.93780150  1
  O  O292  1  0.06010928  0.58316184  0.18795576  1
  O  O293  1  0.05933865  0.58400027  0.43677157  1
  O  O294  1  0.05982571  0.58315847  0.68731530  1
  O  O295  1  0.05723798  0.58348785  0.93700089  1
  O  O296  1  0.05788926  0.91646766  0.18568679  1
  O  O297  1  0.05992265  0.91626853  0.43786021  1
  O  O298  1  0.05605760  0.91667758  0.68609281  1
  O  O299  1  0.05906774  0.91661654  0.93797350  1
  O  O300  1  0.55921400  0.25086227  0.18742496  1
  O  O301  1  0.55851852  0.25013318  0.43704463  1
  O  O302  1  0.56021402  0.24987758  0.68724460  1
  O  O303  1  0.55606976  0.25023360  0.93619589  1
  O  O304  1  0.55800932  0.58236501  0.18782778  1
  O  O305  1  0.55869896  0.58250093  0.43714397  1
  O  O306  1  0.55575180  0.58287535  0.68592236  1
  O  O307  1  0.55467172  0.58270371  0.93723126  1
  O  O308  1  0.55598238  0.91660978  0.18580870  1
  O  O309  1  0.55478467  0.91669136  0.43684764  1
  O  O310  1  0.55854365  0.91741451  0.68785201  1
  O  O311  1  0.55932996  0.91682765  0.93737886  1
  O  O312  1  0.44060591  0.08356919  0.06181271  1
  O  O313  1  0.44371316  0.08394623  0.31379996  1
  O  O314  1  0.44105962  0.08313659  0.56228999  1
  O  O315  1  0.44416479  0.08391178  0.81346115  1
  O  O316  1  0.43962712  0.41608703  0.06283494  1
  O  O317  1  0.44154074  0.41639475  0.31202942  1
  O  O318  1  0.44315412  0.41659454  0.56389134  1
  O  O319  1  0.44021088  0.41601362  0.81226192  1
  O  O320  1  0.44081993  0.75022703  0.06243347  1
  O  O321  1  0.44121296  0.74917254  0.31253509  1
  O  O322  1  0.44139723  0.74959417  0.56208285  1
  O  O323  1  0.44395212  0.75021602  0.81346286  1
  O  O324  1  0.94357209  0.08315441  0.06321807  1
  O  O325  1  0.94416666  0.08393383  0.31316913  1
  O  O326  1  0.94321643  0.08351838  0.56420246  1
  O  O327  1  0.94090481  0.08312646  0.81198267  1
  O  O328  1  0.94091426  0.41727838  0.06313772  1
  O  O329  1  0.94054572  0.41713585  0.31169071  1
  O  O330  1  0.94396624  0.41704763  0.56313662  1
  O  O331  1  0.94480420  0.41676251  0.81391389  1
  O  O332  1  0.94073809  0.75009751  0.06267782  1
  O  O333  1  0.94313081  0.74896965  0.31326463  1
  O  O334  1  0.94286796  0.74978760  0.56318519  1
  O  O335  1  0.94304340  0.74981060  0.81398065  1
  O  O336  1  0.19499383  0.08276121  0.06134964  1
  O  O337  1  0.19451545  0.08386068  0.31229631  1
  O  O338  1  0.19372289  0.08282272  0.56230232  1
  O  O339  1  0.19316868  0.08380442  0.81137503  1
  O  O340  1  0.19384735  0.41680627  0.06156258  1
  O  O341  1  0.19441440  0.41717228  0.31203905  1
  O  O342  1  0.19107138  0.41607940  0.56310090  1
  O  O343  1  0.19158784  0.41638327  0.81285690  1
  O  O344  1  0.19464051  0.75016680  0.06113128  1
  O  O345  1  0.19494267  0.74955329  0.31175075  1
  O  O346  1  0.19433668  0.75024201  0.56210242  1
  O  O347  1  0.19075347  0.75042232  0.81319113  1
  O  O348  1  0.69287285  0.08359598  0.06062247  1
  O  O349  1  0.69326231  0.08381253  0.31166100  1
  O  O350  1  0.69410650  0.08333794  0.56191361  1
  O  O351  1  0.69175300  0.08384957  0.81327703  1
  O  O352  1  0.69395428  0.41700992  0.06148347  1
  O  O353  1  0.69146494  0.41641155  0.31288462  1
  O  O354  1  0.69277208  0.41659909  0.56126693  1
  O  O355  1  0.69345482  0.41635405  0.81205793  1
  O  O356  1  0.69057742  0.74924783  0.06221623  1
  O  O357  1  0.68905119  0.75023918  0.31251890  1
  O  O358  1  0.68991769  0.75044599  0.56239949  1
  O  O359  1  0.68963444  0.74945426  0.81259737  1
  O  O360  1  0.30582020  0.25039962  0.18891316  1
  O  O361  1  0.30951495  0.25047839  0.43721280  1
  O  O362  1  0.30646981  0.25006427  0.68849567  1
  O  O363  1  0.30836456  0.24959271  0.93665598  1
  O  O364  1  0.30824178  0.58302191  0.18716869  1
  O  O365  1  0.30648314  0.58355350  0.43841996  1
  O  O366  1  0.30616306  0.58307578  0.68855065  1
  O  O367  1  0.30948700  0.58398722  0.93699133  1
  O  O368  1  0.30766646  0.91616868  0.18871090  1
  O  O369  1  0.30912851  0.91629410  0.43805455  1
  O  O370  1  0.30938034  0.91622706  0.68723653  1
  O  O371  1  0.30616977  0.91691576  0.93727294  1
  O  O372  1  0.80659700  0.25017491  0.18851943  1
  O  O373  1  0.80894391  0.25034377  0.43796969  1
  O  O374  1  0.80917097  0.25048629  0.68777848  1
  O  O375  1  0.80974553  0.25064871  0.93678128  1
  O  O376  1  0.80627478  0.58373885  0.18913770  1
  O  O377  1  0.80758400  0.58364032  0.43742694  1
  O  O378  1  0.80604982  0.58361889  0.68826504  1
  O  O379  1  0.80670905  0.58401104  0.93805996  1
  O  O380  1  0.80536482  0.91607190  0.18818362  1
  O  O381  1  0.80636638  0.91614205  0.43931197  1
  O  O382  1  0.80898515  0.91627625  0.68790619  1
  O  O383  1  0.80784289  0.91561000  0.93688672  1
  O  O384  1  0.23351115  0.24964754  0.03711305  1
  O  O385  1  0.23289316  0.25088412  0.29096804  1
  O  O386  1  0.23483292  0.24985189  0.53778368  1
  O  O387  1  0.23245925  0.25102873  0.78939457  1
  O  O388  1  0.23614127  0.58311841  0.03819029  1
  O  O389  1  0.23393501  0.58343673  0.28837388  1
  O  O390  1  0.23209017  0.58358330  0.53936476  1
  O  O391  1  0.23266869  0.58264774  0.78978418  1
  O  O392  1  0.23283794  0.91634599  0.03933138  1
  O  O393  1  0.23524561  0.91663797  0.29063805  1
  O  O394  1  0.23441494  0.91602453  0.53884620  1
  O  O395  1  0.23470524  0.91711202  0.78752774  1
  O  O396  1  0.73518854  0.25056602  0.03748156  1
  O  O397  1  0.73263556  0.25084564  0.28955732  1
  O  O398  1  0.73367193  0.25034479  0.53794880  1
  O  O399  1  0.73445124  0.24983941  0.78830441  1
  O  O400  1  0.73387225  0.58327815  0.04019717  1
  O  O401  1  0.73205950  0.58313770  0.28968708  1
  O  O402  1  0.73186586  0.58293811  0.53720902  1
  O  O403  1  0.73300204  0.58341909  0.79002838  1
  O  O404  1  0.73230941  0.91591869  0.03697315  1
  O  O405  1  0.73255423  0.91661157  0.29012297  1
  O  O406  1  0.73346973  0.91700092  0.54102361  1
  O  O407  1  0.73372872  0.91677583  0.78772809  1
  O  O408  1  0.26697059  0.08385733  0.21013116  1
  O  O409  1  0.26809760  0.08277123  0.46143872  1
  O  O410  1  0.26627328  0.08395125  0.70988769  1
  O  O411  1  0.26793095  0.08359583  0.95930046  1
  O  O412  1  0.26795495  0.41628406  0.21024985  1
  O  O413  1  0.26494288  0.41756824  0.46203833  1
  O  O414  1  0.26584641  0.41629971  0.71188477  1
  O  O415  1  0.26756533  0.41683971  0.96070925  1
  O  O416  1  0.26881298  0.74909506  0.21054727  1
  O  O417  1  0.26828362  0.75052672  0.46088644  1
  O  O418  1  0.26515389  0.74913986  0.71248375  1
  O  O419  1  0.26801594  0.75029691  0.95974063  1
  O  O420  1  0.76589264  0.08393867  0.20915277  1
  O  O421  1  0.76638556  0.08402751  0.45977242  1
  O  O422  1  0.76670135  0.08370407  0.71279816  1
  O  O423  1  0.76565463  0.08296775  0.95911445  1
  O  O424  1  0.76651746  0.41673515  0.21248747  1
  O  O425  1  0.76493883  0.41672182  0.45936570  1
  O  O426  1  0.76648812  0.41615301  0.70998707  1
  O  O427  1  0.76838029  0.41707747  0.96060448  1
  O  O428  1  0.76340284  0.74943105  0.21180613  1
  O  O429  1  0.76352739  0.74998004  0.46118176  1
  O  O430  1  0.76374329  0.74991974  0.71177598  1
  O  O431  1  0.76561570  0.74992260  0.96162935  1
  O  O432  1  0.01706169  0.08300010  0.16465361  1
  O  O433  1  0.01633278  0.08426891  0.41582800  1
  O  O434  1  0.01494627  0.08310442  0.66689449  1
  O  O435  1  0.01494638  0.08353820  0.91303757  1
  O  O436  1  0.01499790  0.41692930  0.16379561  1
  O  O437  1  0.01471517  0.41678664  0.41269662  1
  O  O438  1  0.01800904  0.41625165  0.66440764  1
  O  O439  1  0.01854561  0.41690890  0.91516569  1
  O  O440  1  0.01571322  0.75024159  0.16313762  1
  O  O441  1  0.01612091  0.74947720  0.41512482  1
  O  O442  1  0.01609599  0.75044451  0.66471679  1
  O  O443  1  0.01718319  0.74973069  0.91491945  1
  O  O444  1  0.51513264  0.08292426  0.16252406  1
  O  O445  1  0.51549454  0.08333278  0.41647643  1
  O  O446  1  0.51556322  0.08306854  0.66292130  1
  O  O447  1  0.51781179  0.08411280  0.91465603  1
  O  O448  1  0.51421997  0.41677823  0.16325351  1
  O  O449  1  0.51719866  0.41602865  0.41200246  1
  O  O450  1  0.51550006  0.41689094  0.66580047  1
  O  O451  1  0.51393232  0.41639108  0.91386480  1
  O  O452  1  0.51579060  0.74985749  0.16277125  1
  O  O453  1  0.51604791  0.74941198  0.41271220  1
  O  O454  1  0.51645588  0.75015448  0.66253026  1
  O  O455  1  0.51748495  0.74966489  0.91472506  1
  O  O456  1  0.48411484  0.25074688  0.08731390  1
  O  O457  1  0.48356909  0.24980680  0.33649619  1
  O  O458  1  0.48548136  0.25030372  0.58702141  1
  O  O459  1  0.48246867  0.24959950  0.83481615  1
  O  O460  1  0.48253424  0.58346334  0.08783110  1
  O  O461  1  0.48516141  0.58323887  0.33603281  1
  O  O462  1  0.48401583  0.58297854  0.58325653  1
  O  O463  1  0.48097799  0.58350420  0.83576929  1
  O  O464  1  0.48439938  0.91633061  0.08333890  1
  O  O465  1  0.48094417  0.91653118  0.33551078  1
  O  O466  1  0.48320356  0.91585011  0.58746636  1
  O  O467  1  0.48580156  0.91667282  0.83616937  1
  O  O468  1  0.98598212  0.25023079  0.08673679  1
  O  O469  1  0.98229795  0.25049684  0.33481019  1
  O  O470  1  0.98278433  0.25027740  0.58786211  1
  O  O471  1  0.98420508  0.25034861  0.83795751  1
  O  O472  1  0.98513480  0.58341485  0.08770017  1
  O  O473  1  0.98369872  0.58304257  0.33680194  1
  O  O474  1  0.98558040  0.58323588  0.58640893  1
  O  O475  1  0.98499371  0.58321402  0.83461096  1
  O  O476  1  0.98450905  0.91667562  0.08427256  1
  O  O477  1  0.98482456  0.91626244  0.33742510  1
  O  O478  1  0.98205115  0.91696588  0.58528842  1
  O  O479  1  0.98284774  0.91584970  0.83835900  1
  O  O480  1  0.08970499  0.31510934  0.07709595  1
  O  O481  1  0.08629076  0.31520129  0.32623392  1
  O  O482  1  0.08640958  0.31552185  0.57806080  1
  O  O483  1  0.08765324  0.31612644  0.82800103  1
  O  O484  1  0.08871317  0.64833081  0.07804256  1
  O  O485  1  0.08746777  0.64846640  0.32659063  1
  O  O486  1  0.08976406  0.64698192  0.57708345  1
  O  O487  1  0.08873751  0.64854921  0.82798615  1
  O  O488  1  0.08851093  0.98150535  0.07620653  1
  O  O489  1  0.08816339  0.98167447  0.32813606  1
  O  O490  1  0.08617186  0.98188850  0.57675095  1
  O  O491  1  0.08628470  0.98069315  0.82738972  1
  O  O492  1  0.58762885  0.31564362  0.07721694  1
  O  O493  1  0.58714205  0.31550384  0.32690155  1
  O  O494  1  0.58907736  0.31510792  0.57736523  1
  O  O495  1  0.58669199  0.31423783  0.82669922  1
  O  O496  1  0.58602888  0.64875625  0.07826817  1
  O  O497  1  0.58895617  0.64784597  0.32774072  1
  O  O498  1  0.58746395  0.64920879  0.57735748  1
  O  O499  1  0.58497179  0.64843803  0.82821342  1
  O  O500  1  0.58892216  0.98006709  0.07651492  1
  O  O501  1  0.58474578  0.98127570  0.32738273  1
  O  O502  1  0.58644194  0.98108159  0.57729479  1
  O  O503  1  0.58929971  0.98213388  0.82760680  1
  O  O504  1  0.41158243  0.01830045  0.17125426  1
  O  O505  1  0.41134700  0.01870601  0.42259543  1
  O  O506  1  0.41241020  0.01720385  0.67189055  1
  O  O507  1  0.41369560  0.01960769  0.92305826  1
  O  O508  1  0.41026702  0.35254333  0.17317045  1
  O  O509  1  0.41373357  0.35060666  0.42194473  1
  O  O510  1  0.41156837  0.35193602  0.67323501  1
  O  O511  1  0.41066507  0.35061207  0.92190542  1
  O  O512  1  0.41248069  0.68407506  0.17252622  1
  O  O513  1  0.41205740  0.68534740  0.42294854  1
  O  O514  1  0.41298723  0.68529889  0.67215578  1
  O  O515  1  0.41321575  0.68475974  0.92257121  1
  O  O516  1  0.91328441  0.01798438  0.17241705  1
  O  O517  1  0.91234983  0.01974005  0.42223608  1
  O  O518  1  0.91080588  0.01829663  0.67289356  1
  O  O519  1  0.91153232  0.01812495  0.92171618  1
  O  O520  1  0.91124478  0.35189916  0.17275364  1
  O  O521  1  0.91119983  0.35182810  0.42123495  1
  O  O522  1  0.91415813  0.35138583  0.67245901  1
  O  O523  1  0.91465995  0.35128808  0.92321938  1
  O  O524  1  0.91205713  0.68547026  0.17268400  1
  O  O525  1  0.91291929  0.68308904  0.42244033  1
  O  O526  1  0.91245011  0.68556020  0.67274282  1
  O  O527  1  0.91301230  0.68530115  0.92359740  1
  O  O528  1  0.16308284  0.01954482  0.20307121  1
  O  O529  1  0.16481743  0.01675887  0.45304585  1
  O  O530  1  0.16221676  0.01971323  0.70215469  1
  O  O531  1  0.16443705  0.01760089  0.95201461  1
  O  O532  1  0.16385232  0.35191436  0.20313813  1
  O  O533  1  0.16152120  0.35240979  0.45290067  1
  O  O534  1  0.16197621  0.35149154  0.70279747  1
  O  O535  1  0.16386663  0.35115305  0.95203643  1
  O  O536  1  0.16501005  0.68394518  0.20243404  1
  O  O537  1  0.16459988  0.68524996  0.45253165  1
  O  O538  1  0.16164488  0.68401480  0.70409311  1
  O  O539  1  0.16364631  0.68604285  0.95177958  1
  O  O540  1  0.66180999  0.01962655  0.20263097  1
  O  O541  1  0.66257787  0.01925274  0.45257997  1
  O  O542  1  0.66319950  0.01859994  0.70328460  1
  O  O543  1  0.66168450  0.01782278  0.95175524  1
  O  O544  1  0.66298219  0.35163599  0.20279598  1
  O  O545  1  0.66136954  0.35103268  0.45219304  1
  O  O546  1  0.66307447  0.35037894  0.70325696  1
  O  O547  1  0.66445186  0.35212979  0.95190273  1
  O  O548  1  0.66009360  0.68349502  0.20308195  1
  O  O549  1  0.66001826  0.68430875  0.45309039  1
  O  O550  1  0.65940385  0.68613521  0.70245255  1
  O  O551  1  0.66182632  0.68505252  0.95200049  1
  O  O552  1  0.33688177  0.31481200  0.04657716  1
  O  O553  1  0.33680613  0.31634825  0.29813578  1
  O  O554  1  0.33827531  0.31466979  0.54725798  1
  O  O555  1  0.33659377  0.31589464  0.79763844  1
  O  O556  1  0.33947485  0.64891708  0.04678575  1
  O  O557  1  0.33806281  0.64756831  0.29683848  1
  O  O558  1  0.33556928  0.64940290  0.54775799  1
  O  O559  1  0.33702873  0.64675316  0.79834974  1
  O  O560  1  0.33634657  0.98204255  0.04645795  1
  O  O561  1  0.33968269  0.98023563  0.29806751  1
  O  O562  1  0.33818325  0.98143478  0.54780269  1
  O  O563  1  0.33854775  0.98155924  0.79689310  1
  O  O564  1  0.83855002  0.31618844  0.04641129  1
  O  O565  1  0.83657386  0.31590642  0.29790289  1
  O  O566  1  0.83738476  0.31540579  0.54804979  1
  O  O567  1  0.83858813  0.31431024  0.79797509  1
  O  O568  1  0.83708025  0.64927222  0.04731943  1
  O  O569  1  0.83603873  0.64774621  0.29910585  1
  O  O570  1  0.83511587  0.64853247  0.54771067  1
  O  O571  1  0.83665640  0.64853062  0.79759253  1
  O  O572  1  0.83608251  0.98016356  0.04696253  1
  O  O573  1  0.83655091  0.98142951  0.29706734  1
  O  O574  1  0.83783973  0.98119007  0.54831220  1
  O  O575  1  0.83739460  0.98222796  0.79773995  1
  O  O576  1  0.41204047  0.14847767  0.17200260  1
  O  O577  1  0.41182903  0.14885537  0.42279345  1
  O  O578  1  0.41201333  0.14742411  0.67229447  1
  O  O579  1  0.41375695  0.14959234  0.92255474  1
  O  O580  1  0.41092120  0.48260468  0.17241184  1
  O  O581  1  0.41362680  0.48065358  0.42234175  1
  O  O582  1  0.41138581  0.48173596  0.67278252  1
  O  O583  1  0.40993687  0.48085781  0.92180946  1
  O  O584  1  0.41180791  0.81405164  0.17249072  1
  O  O585  1  0.41269094  0.81530606  0.42241542  1
  O  O586  1  0.41298628  0.81534296  0.67207531  1
  O  O587  1  0.41372976  0.81464592  0.92319162  1
  O  O588  1  0.91342020  0.14806683  0.17248672  1
  O  O589  1  0.91286324  0.15000336  0.42179467  1
  O  O590  1  0.91114794  0.14847556  0.67310462  1
  O  O591  1  0.91158839  0.14856521  0.92147124  1
  O  O592  1  0.91107604  0.48172675  0.17318650  1
  O  O593  1  0.91148462  0.48225269  0.42165803  1
  O  O594  1  0.91448440  0.48146325  0.67283198  1
  O  O595  1  0.91422234  0.48124626  0.92333221  1
  O  O596  1  0.91222690  0.81549118  0.17244422  1
  O  O597  1  0.91173875  0.81328675  0.42232902  1
  O  O598  1  0.91246752  0.81577725  0.67216985  1
  O  O599  1  0.91309888  0.81520839  0.92345125  1
  O  O600  1  0.08960321  0.18516401  0.07698721  1
  O  O601  1  0.08652409  0.18541826  0.32679402  1
  O  O602  1  0.08629401  0.18548869  0.57778184  1
  O  O603  1  0.08807186  0.18612100  0.82716530  1
  O  O604  1  0.08858086  0.51836030  0.07795690  1
  O  O605  1  0.08777691  0.51861052  0.32680932  1
  O  O606  1  0.08868640  0.51685286  0.57790099  1
  O  O607  1  0.08903288  0.51839270  0.82805895  1
  O  O608  1  0.08850838  0.85167310  0.07634218  1
  O  O609  1  0.08836559  0.85150182  0.32772759  1
  O  O610  1  0.08624076  0.85203756  0.57645143  1
  O  O611  1  0.08640423  0.85055840  0.82819334  1
  O  O612  1  0.58770965  0.18565587  0.07764906  1
  O  O613  1  0.58759699  0.18557113  0.32707597  1
  O  O614  1  0.58909209  0.18519933  0.57705433  1
  O  O615  1  0.58655735  0.18428134  0.82702537  1
  O  O616  1  0.58590194  0.51870723  0.07713949  1
  O  O617  1  0.58861744  0.51767674  0.32719113  1
  O  O618  1  0.58848028  0.51921096  0.57678974  1
  O  O619  1  0.58469451  0.51843614  0.82760476  1
  O  O620  1  0.58781404  0.85008305  0.07735774  1
  O  O621  1  0.58458628  0.85118640  0.32757628  1
  O  O622  1  0.58678350  0.85107524  0.57829903  1
  O  O623  1  0.58962188  0.85189545  0.82789091  1
  O  O624  1  0.33713470  0.18460802  0.04654334  1
  O  O625  1  0.33728757  0.18658200  0.29846595  1
  O  O626  1  0.33826768  0.18442171  0.54669640  1
  O  O627  1  0.33644159  0.18616263  0.79849414  1
  O  O628  1  0.34006973  0.51867527  0.04645753  1
  O  O629  1  0.33702656  0.51752855  0.29714908  1
  O  O630  1  0.33601243  0.51926947  0.54792035  1
  O  O631  1  0.33637287  0.51688782  0.79752984  1
  O  O632  1  0.33692600  0.85188565  0.04628477  1
  O  O633  1  0.33844414  0.85013118  0.29766532  1
  O  O634  1  0.33837550  0.85130504  0.54793158  1
  O  O635  1  0.33801772  0.85156915  0.79729791  1
  O  O636  1  0.83867211  0.18594007  0.04674426  1
  O  O637  1  0.83659289  0.18603428  0.29835190  1
  O  O638  1  0.83755448  0.18555720  0.54813294  1
  O  O639  1  0.83813666  0.18438982  0.79738952  1
  O  O640  1  0.83801872  0.51892181  0.04689235  1
  O  O641  1  0.83602296  0.51779428  0.29837863  1
  O  O642  1  0.83578878  0.51859803  0.54742872  1
  O  O643  1  0.83703388  0.51858166  0.79726934  1
  O  O644  1  0.83551748  0.84999748  0.04694389  1
  O  O645  1  0.83611019  0.85137426  0.29762320  1
  O  O646  1  0.83698817  0.85127437  0.54874656  1
  O  O647  1  0.83747734  0.85220746  0.79839009  1
  O  O648  1  0.16366151  0.14985561  0.20354592  1
  O  O649  1  0.16401828  0.14698636  0.45269893  1
  O  O650  1  0.16290179  0.15006317  0.70264520  1
  O  O651  1  0.16349092  0.14763335  0.95234141  1
  O  O652  1  0.16465240  0.48211073  0.20246465  1
  O  O653  1  0.16130279  0.48255441  0.45389904  1
  O  O654  1  0.16213843  0.48157937  0.70325275  1
  O  O655  1  0.16340329  0.48098253  0.95183524  1
  O  O656  1  0.16508205  0.81404414  0.20231655  1
  O  O657  1  0.16443965  0.81536867  0.45277859  1
  O  O658  1  0.16189027  0.81426475  0.70275239  1
  O  O659  1  0.16400903  0.81592435  0.95193626  1
  O  O660  1  0.66257924  0.14993123  0.20288323  1
  O  O661  1  0.66266043  0.14933649  0.45323772  1
  O  O662  1  0.66318055  0.14879396  0.70339781  1
  O  O663  1  0.66176260  0.14783925  0.95111512  1
  O  O664  1  0.66296777  0.48179937  0.20296593  1
  O  O665  1  0.66066611  0.48106506  0.45201505  1
  O  O666  1  0.66246013  0.48058913  0.70293538  1
  O  O667  1  0.66432336  0.48195406  0.95206169  1
  O  O668  1  0.65935787  0.81357833  0.20218824  1
  O  O669  1  0.65957898  0.81433769  0.45228317  1
  O  O670  1  0.66062334  0.81624955  0.70324821  1
  O  O671  1  0.66177124  0.81492644  0.95239853  1
