# generated using pymatgen
data_Na2MnFe(PO4)2
_symmetry_space_group_name_H-M   'P 1'
_cell_length_a   21.08595598
_cell_length_b   18.93761881
_cell_length_c   20.04430178
_cell_angle_alpha   90.00012256
_cell_angle_beta   89.99804784
_cell_angle_gamma   89.99884165
_symmetry_Int_Tables_number   1
_chemical_formula_structural   Na2MnFe(PO4)2
_chemical_formula_sum   'Na96 Mn48 Fe48 P96 O384'
_cell_volume   8004.04641580
_cell_formula_units_Z   48
loop_
 _symmetry_equiv_pos_site_id
 _symmetry_equiv_pos_as_xyz
  1  'x, y, z'
loop_
 _atom_site_type_symbol
 _atom_site_label
 _atom_site_symmetry_multiplicity
 _atom_site_fract_x
 _atom_site_fract_y
 _atom_site_fract_z
 _atom_site_occupancy
  Na  Na0  1  0.00153423  0.00063880  -0.00056860  1
  Na  Na1  1  0.00160549  0.00087940  0.25030348  1
  Na  Na2  1  -0.00170479  -0.00080127  0.50134498  1
  Na  Na3  1  -0.00026216  0.00032155  0.74936388  1
  Na  Na4  1  -0.00145753  0.33314693  0.00122050  1
  Na  Na5  1  -0.00204121  0.33291439  0.25000622  1
  Na  Na6  1  -0.00106934  0.33288857  0.49876937  1
  Na  Na7  1  0.00124693  0.33458720  0.74860389  1
  Na  Na8  1  -0.00063485  0.66629217  -0.00128657  1
  Na  Na9  1  0.00043675  0.66699253  0.24982144  1
  Na  Na10  1  0.00097887  0.66641770  0.50057869  1
  Na  Na11  1  0.00109107  0.66654410  0.75123621  1
  Na  Na12  1  0.50157958  0.00024813  -0.00031419  1
  Na  Na13  1  0.50150075  0.00020355  0.24967478  1
  Na  Na14  1  0.50071370  0.00033948  0.50017551  1
  Na  Na15  1  0.49995693  -0.00028552  0.75075042  1
  Na  Na16  1  0.49893569  0.33314799  0.00008016  1
  Na  Na17  1  0.50170088  0.33413715  0.24888252  1
  Na  Na18  1  0.49809384  0.33279264  0.50080455  1
  Na  Na19  1  0.49725474  0.33282971  0.75030509  1
  Na  Na20  1  0.50162892  0.66672765  -0.00053202  1
  Na  Na21  1  0.50239760  0.66698993  0.24849631  1
  Na  Na22  1  0.50004260  0.66624012  0.50038417  1
  Na  Na23  1  0.49980206  0.66633787  0.75164494  1
  Na  Na24  1  0.24806886  -0.00083189  0.12416011  1
  Na  Na25  1  0.24968592  0.00017850  0.37482030  1
  Na  Na26  1  0.24934841  -0.00110501  0.62404692  1
  Na  Na27  1  0.25008469  -0.00032356  0.87614830  1
  Na  Na28  1  0.24993042  0.33330402  0.12441283  1
  Na  Na29  1  0.24947418  0.33225620  0.37534854  1
  Na  Na30  1  0.25186404  0.33360437  0.62541800  1
  Na  Na31  1  0.25211846  0.33429890  0.87453480  1
  Na  Na32  1  0.24867467  0.66629398  0.12628641  1
  Na  Na33  1  0.24976718  0.66672366  0.37518293  1
  Na  Na34  1  0.24872779  0.66581440  0.62396327  1
  Na  Na35  1  0.24990456  0.66668959  0.87483007  1
  Na  Na36  1  0.74760363  -0.00078661  0.12612606  1
  Na  Na37  1  0.74987240  0.00094524  0.37532261  1
  Na  Na38  1  0.74944250  0.00047546  0.62461146  1
  Na  Na39  1  0.75011862  0.00032985  0.87536422  1
  Na  Na40  1  0.75196271  0.33405344  0.12544468  1
  Na  Na41  1  0.75212716  0.33423922  0.37446935  1
  Na  Na42  1  0.74926004  0.33282223  0.62427419  1
  Na  Na43  1  0.75060909  0.33381022  0.87567785  1
  Na  Na44  1  0.74905441  0.66641009  0.12592719  1
  Na  Na45  1  0.74854959  0.66597135  0.37511677  1
  Na  Na46  1  0.75027396  0.66665883  0.62374335  1
  Na  Na47  1  0.74976904  0.66636872  0.87499998  1
  Na  Na48  1  -0.00097600  0.16724681  -0.00040810  1
  Na  Na49  1  -0.00029591  0.16733482  0.25084720  1
  Na  Na50  1  -0.00060130  0.16677039  0.50030922  1
  Na  Na51  1  -0.00039398  0.16668288  0.74925550  1
  Na  Na52  1  0.00053166  0.49986399  -0.00006337  1
  Na  Na53  1  -0.00301136  0.50113808  0.25009685  1
  Na  Na54  1  -0.00170177  0.50067470  0.49996869  1
  Na  Na55  1  0.00114121  0.50033200  0.74953465  1
  Na  Na56  1  -0.00008311  0.83295700  0.00001673  1
  Na  Na57  1  0.00204681  0.83228036  0.24878100  1
  Na  Na58  1  0.00197247  0.83222377  0.50097278  1
  Na  Na59  1  0.00017546  0.83286103  0.75019049  1
  Na  Na60  1  0.50116100  0.16739637  0.00047924  1
  Na  Na61  1  0.50298553  0.16620168  0.24947502  1
  Na  Na62  1  0.50016345  0.16751877  0.50006784  1
  Na  Na63  1  0.49995380  0.16712372  0.75018357  1
  Na  Na64  1  0.50168765  0.49969953  -0.00043903  1
  Na  Na65  1  0.50152498  0.49996141  0.24876155  1
  Na  Na66  1  0.49819099  0.50134333  0.50075868  1
  Na  Na67  1  0.49952606  0.50056844  0.75117742  1
  Na  Na68  1  0.49875988  0.83298027  -0.00073878  1
  Na  Na69  1  0.50127493  0.83207579  0.24885274  1
  Na  Na70  1  0.49994467  0.83225791  0.50052764  1
  Na  Na71  1  0.49792493  0.83322413  0.75131681  1
  Na  Na72  1  0.24829890  0.16801289  0.12415299  1
  Na  Na73  1  0.24993206  0.16712480  0.37494515  1
  Na  Na74  1  0.25023345  0.16740174  0.62486193  1
  Na  Na75  1  0.25143951  0.16666476  0.87524721  1
  Na  Na76  1  0.24973687  0.49974656  0.12562419  1
  Na  Na77  1  0.25084030  0.50007633  0.37501127  1
  Na  Na78  1  0.25094006  0.50014483  0.62490708  1
  Na  Na79  1  0.24845563  0.50098505  0.87415193  1
  Na  Na80  1  0.24856461  0.83335070  0.12521752  1
  Na  Na81  1  0.24817904  0.83345207  0.37538250  1
  Na  Na82  1  0.24941923  0.83320081  0.62367773  1
  Na  Na83  1  0.25154442  0.83199582  0.87613331  1
  Na  Na84  1  0.74924002  0.16691126  0.12581499  1
  Na  Na85  1  0.74904769  0.16717676  0.37464838  1
  Na  Na86  1  0.74986803  0.16631271  0.62364987  1
  Na  Na87  1  0.74951165  0.16650673  0.87621304  1
  Na  Na88  1  0.75109284  0.50035692  0.12545839  1
  Na  Na89  1  0.75235089  0.49996019  0.37486776  1
  Na  Na90  1  0.75163754  0.50017949  0.62464909  1
  Na  Na91  1  0.74994064  0.50081002  0.87446139  1
  Na  Na92  1  0.74885420  0.83260813  0.12625887  1
  Na  Na93  1  0.74852724  0.83271146  0.37546097  1
  Na  Na94  1  0.74861192  0.83308005  0.62412504  1
  Na  Na95  1  0.75132230  0.83196120  0.87523675  1
  Mn  Mn96  1  0.39301045  0.24983191  0.12749821  1
  Mn  Mn97  1  0.10663597  0.41690192  0.37265165  1
  Mn  Mn98  1  0.35794913  0.08342982  0.00294434  1
  Mn  Mn99  1  0.39318797  0.58322875  0.12649676  1
  Mn  Mn100  1  0.39288013  0.91683731  0.12741812  1
  Mn  Mn101  1  0.89200635  0.91542608  0.62778356  1
  Mn  Mn102  1  0.35869619  0.08350997  0.50174957  1
  Mn  Mn103  1  0.14180469  0.25132153  0.99744326  1
  Mn  Mn104  1  0.85770437  0.41635589  0.75248768  1
  Mn  Mn105  1  0.89178836  0.25044342  0.62746197  1
  Mn  Mn106  1  0.64120140  0.91652410  0.24794181  1
  Mn  Mn107  1  0.60797106  0.41626312  0.87297557  1
  Mn  Mn108  1  0.85762022  0.08264577  0.00321749  1
  Mn  Mn109  1  0.35784051  0.08333652  0.25166123  1
  Mn  Mn110  1  0.60812705  0.41689841  0.37289864  1
  Mn  Mn111  1  0.39216523  0.91639183  0.62782371  1
  Mn  Mn112  1  0.89231272  0.91680866  0.12756167  1
  Mn  Mn113  1  0.85744166  0.74989268  0.25252733  1
  Mn  Mn114  1  0.35801958  0.41675068  0.50159183  1
  Mn  Mn115  1  0.10764449  0.08338772  0.62280169  1
  Mn  Mn116  1  0.14324658  0.24989405  0.74769006  1
  Mn  Mn117  1  0.35773622  0.74963309  0.50169761  1
  Mn  Mn118  1  0.64190799  0.25082467  0.49751658  1
  Mn  Mn119  1  0.85798564  0.75035598  0.50239416  1
  Mn  Mn120  1  0.64214067  0.58273061  0.49815379  1
  Mn  Mn121  1  0.60702080  0.41706910  0.62308708  1
  Mn  Mn122  1  0.10808170  0.74970567  0.87243867  1
  Mn  Mn123  1  0.85741580  0.08326976  0.25239308  1
  Mn  Mn124  1  0.89253009  0.58291739  0.87683040  1
  Mn  Mn125  1  0.35822770  0.08254696  0.75221331  1
  Mn  Mn126  1  0.60770925  0.08360862  0.87254095  1
  Mn  Mn127  1  0.10794770  0.08399046  0.87192247  1
  Mn  Mn128  1  0.64186539  0.91642470  0.74771362  1
  Mn  Mn129  1  0.10752274  0.08304594  0.37281609  1
  Mn  Mn130  1  0.60770144  0.75010724  0.87273406  1
  Mn  Mn131  1  0.14185109  0.91702345  0.49705741  1
  Mn  Mn132  1  0.14152871  0.58279007  0.24779118  1
  Mn  Mn133  1  0.89179899  0.91678360  0.87715340  1
  Mn  Mn134  1  0.10681283  0.41684562  0.12298147  1
  Mn  Mn135  1  0.64320709  0.25055610  0.99789355  1
  Mn  Mn136  1  0.64129043  0.91665589  0.49763394  1
  Mn  Mn137  1  0.14224671  0.91601075  0.99738197  1
  Mn  Mn138  1  0.35758549  0.75012811  0.25197533  1
  Mn  Mn139  1  0.89248234  0.91652022  0.37723781  1
  Mn  Mn140  1  0.89172134  0.25054954  0.87631605  1
  Mn  Mn141  1  0.10835557  0.41696933  0.62213159  1
  Mn  Mn142  1  0.39175731  0.58307396  0.87796887  1
  Mn  Mn143  1  0.35853735  0.41625418  0.25207847  1
  Fe  Fe144  1  0.64410801  0.58348808  0.99870837  1
  Fe  Fe145  1  0.10720573  0.74955584  0.37333500  1
  Fe  Fe146  1  0.64310455  0.25127679  0.24864976  1
  Fe  Fe147  1  0.89231471  0.24972711  0.37698842  1
  Fe  Fe148  1  0.60686373  0.74984244  0.62433446  1
  Fe  Fe149  1  0.14268890  0.58240935  0.49777490  1
  Fe  Fe150  1  0.10787637  0.41621382  0.87352183  1
  Fe  Fe151  1  0.85643647  0.08311028  0.75112220  1
  Fe  Fe152  1  0.60755154  0.08327351  0.62367630  1
  Fe  Fe153  1  0.85772932  0.41643341  0.50177610  1
  Fe  Fe154  1  0.14239973  0.91740863  0.24819948  1
  Fe  Fe155  1  0.85654690  0.08349756  0.50162037  1
  Fe  Fe156  1  0.35699796  0.41777328  0.00161691  1
  Fe  Fe157  1  0.60711107  0.08327054  0.37369664  1
  Fe  Fe158  1  0.10687486  0.74971202  0.12272065  1
  Fe  Fe159  1  0.39213795  0.58363197  0.62725531  1
  Fe  Fe160  1  0.14194039  0.24963041  0.24857980  1
  Fe  Fe161  1  0.39203739  0.91693978  0.87704268  1
  Fe  Fe162  1  0.64267522  0.91568077  0.99828542  1
  Fe  Fe163  1  0.89233107  0.58402537  0.37701455  1
  Fe  Fe164  1  0.35683002  0.74876501  0.00222756  1
  Fe  Fe165  1  0.89232670  0.58360408  0.12642486  1
  Fe  Fe166  1  0.60796151  0.08315478  0.12295651  1
  Fe  Fe167  1  0.39275028  0.25019208  0.62707933  1
  Fe  Fe168  1  0.39286800  0.24994265  0.37576681  1
  Fe  Fe169  1  0.85682070  0.41689602  0.25145563  1
  Fe  Fe170  1  0.60676101  0.74986177  0.37371931  1
  Fe  Fe171  1  0.85695147  0.74980458  0.00205894  1
  Fe  Fe172  1  0.89258665  0.24984801  0.12736205  1
  Fe  Fe173  1  0.60782069  0.74998336  0.12209448  1
  Fe  Fe174  1  0.85812935  0.41749611  0.00180992  1
  Fe  Fe175  1  0.60880243  0.41691070  0.12239732  1
  Fe  Fe176  1  0.35688068  0.74966258  0.75106380  1
  Fe  Fe177  1  0.39240947  0.91648695  0.37560953  1
  Fe  Fe178  1  0.14331341  0.58385799  0.74761795  1
  Fe  Fe179  1  0.39290639  0.24964262  0.87691138  1
  Fe  Fe180  1  0.85718023  0.75020404  0.75096114  1
  Fe  Fe181  1  0.35717318  0.41759233  0.75212647  1
  Fe  Fe182  1  0.64292563  0.58237454  0.24846928  1
  Fe  Fe183  1  0.64183734  0.25047000  0.74839351  1
  Fe  Fe184  1  0.39318936  0.58345025  0.37584035  1
  Fe  Fe185  1  0.64293703  0.58325383  0.74773752  1
  Fe  Fe186  1  0.10775204  0.74985831  0.62412231  1
  Fe  Fe187  1  0.14314665  0.91612212  0.74898133  1
  Fe  Fe188  1  0.14224696  0.58294316  0.99905205  1
  Fe  Fe189  1  0.89357292  0.58398484  0.62692007  1
  Fe  Fe190  1  0.10718393  0.08356396  0.12373498  1
  Fe  Fe191  1  0.14308313  0.25041290  0.49819038  1
  P  P192  1  0.05309784  0.24955352  0.11141567  1
  P  P193  1  0.05337558  0.25021638  0.36071198  1
  P  P194  1  0.05414036  0.25032676  0.60892245  1
  P  P195  1  0.05306742  0.25142185  0.85937911  1
  P  P196  1  0.05229136  0.58391695  0.10944161  1
  P  P197  1  0.05273480  0.58355243  0.36121728  1
  P  P198  1  0.05487932  0.58423355  0.61066502  1
  P  P199  1  0.05575620  0.58207846  0.86052678  1
  P  P200  1  0.05465520  0.91686850  0.11098224  1
  P  P201  1  0.05370716  0.91574336  0.35934866  1
  P  P202  1  0.05485978  0.91565957  0.61166711  1
  P  P203  1  0.05384979  0.91645203  0.85892591  1
  P  P204  1  0.55579071  0.25077039  0.11113181  1
  P  P205  1  0.55288766  0.24998221  0.35949376  1
  P  P206  1  0.55336055  0.24993202  0.61145709  1
  P  P207  1  0.55286624  0.25055553  0.85962590  1
  P  P208  1  0.55633288  0.58298921  0.11008854  1
  P  P209  1  0.55295058  0.58367442  0.35945719  1
  P  P210  1  0.55304720  0.58412303  0.61182638  1
  P  P211  1  0.55557419  0.58317366  0.86088761  1
  P  P212  1  0.55432867  0.91619823  0.10890841  1
  P  P213  1  0.55177215  0.91628187  0.36022004  1
  P  P214  1  0.55324276  0.91603931  0.61068445  1
  P  P215  1  0.55290405  0.91614115  0.86128710  1
  P  P216  1  0.44871926  0.08338320  0.13994524  1
  P  P217  1  0.44791270  0.08353682  0.38920552  1
  P  P218  1  0.44822474  0.08386680  0.63995643  1
  P  P219  1  0.44642980  0.08358852  0.89027201  1
  P  P220  1  0.44755835  0.41720978  0.13841916  1
  P  P221  1  0.44719297  0.41682635  0.38951826  1
  P  P222  1  0.44532599  0.41728331  0.64080700  1
  P  P223  1  0.44481742  0.41633350  0.88976655  1
  P  P224  1  0.44703829  0.74937817  0.13835215  1
  P  P225  1  0.44754669  0.74952869  0.38922245  1
  P  P226  1  0.44684021  0.74886829  0.64096554  1
  P  P227  1  0.44412840  0.75008507  0.88962286  1
  P  P228  1  0.94774383  0.08382913  0.14034691  1
  P  P229  1  0.94576321  0.08393216  0.39087968  1
  P  P230  1  0.94443133  0.08329820  0.63957018  1
  P  P231  1  0.94511327  0.08349372  0.88878754  1
  P  P232  1  0.94417539  0.41729028  0.13943672  1
  P  P233  1  0.94384397  0.41677231  0.38885718  1
  P  P234  1  0.94574467  0.41780290  0.63868633  1
  P  P235  1  0.94756133  0.41682951  0.89046558  1
  P  P236  1  0.94617563  0.74907634  0.13856205  1
  P  P237  1  0.94792657  0.74962731  0.39007250  1
  P  P238  1  0.94768594  0.74866542  0.64085386  1
  P  P239  1  0.94477173  0.74989038  0.88943232  1
  P  P240  1  0.19592157  0.08358372  0.23427527  1
  P  P241  1  0.19686277  0.08454308  0.48485611  1
  P  P242  1  0.19738373  0.08223953  0.73479656  1
  P  P243  1  0.19524545  0.08389586  0.98591464  1
  P  P244  1  0.19642487  0.41557637  0.23514382  1
  P  P245  1  0.19653570  0.41658995  0.48490860  1
  P  P246  1  0.19697718  0.41731036  0.73596446  1
  P  P247  1  0.19691765  0.41767505  0.98453773  1
  P  P248  1  0.19420568  0.75066601  0.23576004  1
  P  P249  1  0.19447883  0.74870029  0.48555104  1
  P  P250  1  0.19743360  0.75013073  0.73455751  1
  P  P251  1  0.19613129  0.74857216  0.98637738  1
  P  P252  1  0.69427993  0.08442398  0.23615928  1
  P  P253  1  0.69534180  0.08367194  0.48537977  1
  P  P254  1  0.69675366  0.08420270  0.73451584  1
  P  P255  1  0.69533261  0.08231972  0.98643355  1
  P  P256  1  0.69726511  0.41694547  0.23493299  1
  P  P257  1  0.69822579  0.41706551  0.48483047  1
  P  P258  1  0.69656879  0.41682558  0.73486246  1
  P  P259  1  0.69774577  0.41779808  0.98619200  1
  P  P260  1  0.69409252  0.74876729  0.23605703  1
  P  P261  1  0.69458129  0.74951655  0.48557358  1
  P  P262  1  0.69719348  0.74909994  0.73436113  1
  P  P263  1  0.69662357  0.74969505  0.98626105  1
  P  P264  1  0.30483550  0.25139698  0.01388835  1
  P  P265  1  0.30247745  0.24973200  0.26515517  1
  P  P266  1  0.30469025  0.25007362  0.51427191  1
  P  P267  1  0.30584426  0.25058577  0.76448313  1
  P  P268  1  0.30191723  0.58306250  0.01523848  1
  P  P269  1  0.30396898  0.58343212  0.26551133  1
  P  P270  1  0.30422027  0.58334130  0.51412091  1
  P  P271  1  0.30356398  0.58388982  0.76370444  1
  P  P272  1  0.30478744  0.91545538  0.01442296  1
  P  P273  1  0.30231915  0.91665474  0.26523485  1
  P  P274  1  0.30483307  0.91649660  0.51345505  1
  P  P275  1  0.30270266  0.91535686  0.76553771  1
  P  P276  1  0.80461477  0.25072103  0.01589243  1
  P  P277  1  0.80414117  0.25060479  0.26433305  1
  P  P278  1  0.80450757  0.24996712  0.51342378  1
  P  P279  1  0.80121267  0.24912664  0.76479900  1
  P  P280  1  0.80350263  0.58370246  0.01534723  1
  P  P281  1  0.80396978  0.58307157  0.26435440  1
  P  P282  1  0.80564078  0.58297122  0.51444199  1
  P  P283  1  0.80363495  0.58445675  0.76340433  1
  P  P284  1  0.80191316  0.91560009  0.01565495  1
  P  P285  1  0.80254467  0.91641818  0.26560587  1
  P  P286  1  0.80306956  0.91740009  0.51490344  1
  P  P287  1  0.80284070  0.91639732  0.76472598  1
  O  O288  1  0.05792351  0.25024346  0.18808497  1
  O  O289  1  0.05863711  0.25026450  0.43730250  1
  O  O290  1  0.05795429  0.25046835  0.68569679  1
  O  O291  1  0.05572478  0.25080510  0.93620124  1
  O  O292  1  0.05572805  0.58330017  0.18619101  1
  O  O293  1  0.05768831  0.58251817  0.43783132  1
  O  O294  1  0.05978783  0.58338365  0.68742974  1
  O  O295  1  0.05946954  0.58306164  0.93727919  1
  O  O296  1  0.05838629  0.91694071  0.18772648  1
  O  O297  1  0.05610687  0.91672643  0.43623393  1
  O  O298  1  0.05923262  0.91644201  0.68833734  1
  O  O299  1  0.05707598  0.91615316  0.93575829  1
  O  O300  1  0.55974754  0.25133081  0.18786550  1
  O  O301  1  0.55605963  0.25102630  0.43629697  1
  O  O302  1  0.55814068  0.25054762  0.68810790  1
  O  O303  1  0.55743091  0.25095507  0.93630101  1
  O  O304  1  0.55991033  0.58261231  0.18686955  1
  O  O305  1  0.55618831  0.58271603  0.43623480  1
  O  O306  1  0.55815549  0.58339319  0.68846711  1
  O  O307  1  0.56060756  0.58321687  0.93758273  1
  O  O308  1  0.55661226  0.91601962  0.18576393  1
  O  O309  1  0.55495917  0.91616301  0.43693186  1
  O  O310  1  0.55572417  0.91606968  0.68750493  1
  O  O311  1  0.55835921  0.91555598  0.93785115  1
  O  O312  1  0.44439818  0.08365999  0.06330710  1
  O  O313  1  0.44457683  0.08349842  0.31252886  1
  O  O314  1  0.44474568  0.08357912  0.56324999  1
  O  O315  1  0.44364381  0.08315340  0.81348498  1
  O  O316  1  0.44193782  0.41751996  0.06183743  1
  O  O317  1  0.44500165  0.41671684  0.31271197  1
  O  O318  1  0.44286495  0.41740952  0.56397551  1
  O  O319  1  0.44054185  0.41781114  0.81302278  1
  O  O320  1  0.44147056  0.74881174  0.06175218  1
  O  O321  1  0.44435915  0.74954220  0.31251097  1
  O  O322  1  0.44326664  0.74902898  0.56423349  1
  O  O323  1  0.43981067  0.74929735  0.81288703  1
  O  O324  1  0.94406172  0.08311856  0.06360403  1
  O  O325  1  0.94296197  0.08347028  0.31406064  1
  O  O326  1  0.94001240  0.08326438  0.56284474  1
  O  O327  1  0.94010439  0.08335824  0.81205574  1
  O  O328  1  0.94090857  0.41741465  0.06259829  1
  O  O329  1  0.94015068  0.41679679  0.31201693  1
  O  O330  1  0.94158740  0.41672140  0.56195648  1
  O  O331  1  0.94364922  0.41711483  0.81368453  1
  O  O332  1  0.94112639  0.74972982  0.06190428  1
  O  O333  1  0.94407682  0.75003118  0.31336308  1
  O  O334  1  0.94396054  0.74954326  0.56415957  1
  O  O335  1  0.94032089  0.74984374  0.81271949  1
  O  O336  1  0.19057012  0.08402994  0.06264592  1
  O  O337  1  0.19324463  0.08372187  0.31107532  1
  O  O338  1  0.19371611  0.08375849  0.56158955  1
  O  O339  1  0.19458304  0.08316550  0.81162346  1
  O  O340  1  0.19280055  0.41662152  0.06124299  1
  O  O341  1  0.19290650  0.41624850  0.31185893  1
  O  O342  1  0.19436495  0.41678151  0.56171467  1
  O  O343  1  0.19235334  0.41654251  0.81256808  1
  O  O344  1  0.19116452  0.74928162  0.06304187  1
  O  O345  1  0.19036985  0.74954818  0.31257101  1
  O  O346  1  0.19084688  0.74945706  0.56229655  1
  O  O347  1  0.19427713  0.74996961  0.81133592  1
  O  O348  1  0.69133667  0.08300185  0.06323981  1
  O  O349  1  0.69011389  0.08348610  0.31298394  1
  O  O350  1  0.69033691  0.08354732  0.56207277  1
  O  O351  1  0.69332579  0.08363210  0.81131981  1
  O  O352  1  0.69333105  0.41700785  0.06286086  1
  O  O353  1  0.69393286  0.41699585  0.31164987  1
  O  O354  1  0.69351884  0.41716757  0.56144580  1
  O  O355  1  0.69387516  0.41681227  0.81166895  1
  O  O356  1  0.69219038  0.74995721  0.06296687  1
  O  O357  1  0.68974242  0.74967920  0.31285257  1
  O  O358  1  0.69006168  0.74950488  0.56227478  1
  O  O359  1  0.69368063  0.74959878  0.81112246  1
  O  O360  1  0.30682432  0.24994940  0.18844175  1
  O  O361  1  0.30977265  0.24982026  0.43757247  1
  O  O362  1  0.30968517  0.24962780  0.68761276  1
  O  O363  1  0.30911085  0.25014210  0.93715773  1
  O  O364  1  0.30768534  0.58348334  0.18877098  1
  O  O365  1  0.30952567  0.58368149  0.43748788  1
  O  O366  1  0.30802603  0.58376315  0.68701732  1
  O  O367  1  0.30531202  0.58328868  0.93850769  1
  O  O368  1  0.30649075  0.91643235  0.18851495  1
  O  O369  1  0.30966704  0.91656286  0.43671900  1
  O  O370  1  0.30606725  0.91629700  0.68871332  1
  O  O371  1  0.30900824  0.91647571  0.93764812  1
  O  O372  1  0.80879382  0.24935551  0.18763508  1
  O  O373  1  0.80816686  0.24984403  0.43665204  1
  O  O374  1  0.80502010  0.24983317  0.68810023  1
  O  O375  1  0.80707657  0.25006991  0.93906075  1
  O  O376  1  0.80852978  0.58435007  0.18769511  1
  O  O377  1  0.80949177  0.58431486  0.43759520  1
  O  O378  1  0.80860491  0.58405654  0.68679785  1
  O  O379  1  0.80667527  0.58345563  0.93860179  1
  O  O380  1  0.80610869  0.91628301  0.18884491  1
  O  O381  1  0.80625823  0.91643025  0.43816111  1
  O  O382  1  0.80551893  0.91626880  0.68793893  1
  O  O383  1  0.80579140  0.91636067  0.93895470  1
  O  O384  1  0.23474140  0.25125313  0.03784840  1
  O  O385  1  0.23222985  0.24959756  0.28906074  1
  O  O386  1  0.23429865  0.25060013  0.53777534  1
  O  O387  1  0.23582765  0.25012277  0.78875277  1
  O  O388  1  0.23205586  0.58286974  0.04039825  1
  O  O389  1  0.23398556  0.58336775  0.28977694  1
  O  O390  1  0.23373353  0.58286022  0.53732013  1
  O  O391  1  0.23323968  0.58404711  0.78759760  1
  O  O392  1  0.23468914  0.91572357  0.03826455  1
  O  O393  1  0.23215525  0.91685560  0.28929811  1
  O  O394  1  0.23464948  0.91609983  0.53696283  1
  O  O395  1  0.23281419  0.91572420  0.79060252  1
  O  O396  1  0.73490268  0.25033487  0.04100204  1
  O  O397  1  0.73370320  0.25085583  0.28797745  1
  O  O398  1  0.73458530  0.24993168  0.53801024  1
  O  O399  1  0.73132756  0.24999477  0.78989272  1
  O  O400  1  0.73351891  0.58377560  0.04019690  1
  O  O401  1  0.73354494  0.58293286  0.28804949  1
  O  O402  1  0.73550286  0.58339995  0.53838000  1
  O  O403  1  0.73335090  0.58375133  0.78733350  1
  O  O404  1  0.73194139  0.91565768  0.04033650  1
  O  O405  1  0.73273307  0.91661797  0.29033676  1
  O  O406  1  0.73335158  0.91692257  0.53990179  1
  O  O407  1  0.73330596  0.91616827  0.79047666  1
  O  O408  1  0.26552178  0.08352972  0.20858406  1
  O  O409  1  0.26647731  0.08393580  0.45955565  1
  O  O410  1  0.26695518  0.08276821  0.70922438  1
  O  O411  1  0.26539762  0.08351572  0.96227568  1
  O  O412  1  0.26617253  0.41614144  0.21016343  1
  O  O413  1  0.26598767  0.41656714  0.45912077  1
  O  O414  1  0.26728780  0.41711194  0.71202716  1
  O  O415  1  0.26698667  0.41757727  0.96015826  1
  O  O416  1  0.26430452  0.74987585  0.21157501  1
  O  O417  1  0.26452404  0.74969829  0.46119666  1
  O  O418  1  0.26735619  0.74960555  0.70943199  1
  O  O419  1  0.26641351  0.74896508  0.96261887  1
  O  O420  1  0.76437527  0.08333885  0.21206376  1
  O  O421  1  0.76572757  0.08394901  0.46196109  1
  O  O422  1  0.76674135  0.08330989  0.70976201  1
  O  O423  1  0.76528690  0.08327063  0.96216104  1
  O  O424  1  0.76744748  0.41699498  0.21054690  1
  O  O425  1  0.76830240  0.41707920  0.46077398  1
  O  O426  1  0.76615612  0.41675595  0.70936498  1
  O  O427  1  0.76798296  0.41747567  0.96203340  1
  O  O428  1  0.76428921  0.74945066  0.21234090  1
  O  O429  1  0.76477564  0.74944817  0.46185414  1
  O  O430  1  0.76721305  0.74984647  0.70960124  1
  O  O431  1  0.76684718  0.74923793  0.96216639  1
  O  O432  1  0.01766002  0.08388273  0.16513609  1
  O  O433  1  0.01546440  0.08300374  0.41601926  1
  O  O434  1  0.01465489  0.08364376  0.66316941  1
  O  O435  1  0.01525553  0.08351376  0.91244896  1
  O  O436  1  0.01407282  0.41723354  0.16422618  1
  O  O437  1  0.01383021  0.41676751  0.41332635  1
  O  O438  1  0.01577600  0.41773944  0.66278245  1
  O  O439  1  0.01752995  0.41668228  0.91502142  1
  O  O440  1  0.01657353  0.74947035  0.16203938  1
  O  O441  1  0.01788517  0.74958341  0.41479326  1
  O  O442  1  0.01776625  0.74935019  0.66532136  1
  O  O443  1  0.01505409  0.74980203  0.91291296  1
  O  O444  1  0.51889695  0.08306896  0.16384603  1
  O  O445  1  0.51785193  0.08380241  0.41444340  1
  O  O446  1  0.51813837  0.08332607  0.66502876  1
  O  O447  1  0.51610672  0.08387232  0.91550484  1
  O  O448  1  0.51805418  0.41725487  0.16153111  1
  O  O449  1  0.51650894  0.41692128  0.41595701  1
  O  O450  1  0.51494600  0.41707954  0.66629799  1
  O  O451  1  0.51498523  0.41674365  0.91362458  1
  O  O452  1  0.51759038  0.74958229  0.16116856  1
  O  O453  1  0.51742626  0.74941614  0.41452958  1
  O  O454  1  0.51680181  0.74970118  0.66584725  1
  O  O455  1  0.51442085  0.74945018  0.91315201  1
  O  O456  1  0.48584297  0.25049633  0.08663383  1
  O  O457  1  0.48293274  0.25021272  0.33445059  1
  O  O458  1  0.48298406  0.25046874  0.58773830  1
  O  O459  1  0.48260466  0.25010134  0.83604039  1
  O  O460  1  0.48636719  0.58316092  0.08544441  1
  O  O461  1  0.48303523  0.58336099  0.33435776  1
  O  O462  1  0.48268650  0.58370963  0.58818267  1
  O  O463  1  0.48511635  0.58331609  0.83807146  1
  O  O464  1  0.48469154  0.91635038  0.08355744  1
  O  O465  1  0.48201661  0.91623883  0.33454172  1
  O  O466  1  0.48376034  0.91614870  0.58487656  1
  O  O467  1  0.48245871  0.91635730  0.83798443  1
  O  O468  1  0.98270637  0.25022900  0.08778615  1
  O  O469  1  0.98281522  0.25024179  0.33759690  1
  O  O470  1  0.98414054  0.25010590  0.58490733  1
  O  O471  1  0.98362644  0.25114518  0.83351860  1
  O  O472  1  0.98228274  0.58323517  0.08477437  1
  O  O473  1  0.98239180  0.58360106  0.33741677  1
  O  O474  1  0.98446905  0.58365973  0.58723496  1
  O  O475  1  0.98567081  0.58298095  0.83634012  1
  O  O476  1  0.98480209  0.91655302  0.08602409  1
  O  O477  1  0.98419444  0.91649944  0.33365761  1
  O  O478  1  0.98479555  0.91555451  0.58749806  1
  O  O479  1  0.98407743  0.91648248  0.83425983  1
  O  O480  1  0.08640849  0.31464879  0.07786563  1
  O  O481  1  0.08648785  0.31511398  0.32685682  1
  O  O482  1  0.08793076  0.31536875  0.57603280  1
  O  O483  1  0.08734594  0.31668182  0.82755724  1
  O  O484  1  0.08619595  0.64891646  0.07674399  1
  O  O485  1  0.08617541  0.64862013  0.32825471  1
  O  O486  1  0.08798068  0.64950676  0.57777921  1
  O  O487  1  0.08983871  0.64685385  0.82716156  1
  O  O488  1  0.08817299  0.98213029  0.07826329  1
  O  O489  1  0.08861384  0.98053000  0.32705560  1
  O  O490  1  0.08817054  0.98062601  0.57796636  1
  O  O491  1  0.08821015  0.98128286  0.82647010  1
  O  O492  1  0.58917944  0.31588173  0.07774703  1
  O  O493  1  0.58730403  0.31481411  0.32669025  1
  O  O494  1  0.58664200  0.31492421  0.57774186  1
  O  O495  1  0.58619012  0.31559666  0.82631137  1
  O  O496  1  0.59010505  0.64817148  0.07732886  1
  O  O497  1  0.58705797  0.64874295  0.32728741  1
  O  O498  1  0.58620153  0.64929854  0.57872485  1
  O  O499  1  0.58886044  0.64811743  0.82732353  1
  O  O500  1  0.58881327  0.98126645  0.07699624  1
  O  O501  1  0.58594153  0.98142674  0.32805072  1
  O  O502  1  0.58758582  0.98115582  0.57857468  1
  O  O503  1  0.58618550  0.98121770  0.82809944  1
  O  O504  1  0.41495005  0.01836000  0.17268923  1
  O  O505  1  0.41417088  0.01834795  0.42178363  1
  O  O506  1  0.41411819  0.01879504  0.67251493  1
  O  O507  1  0.41242105  0.01845201  0.92266084  1
  O  O508  1  0.41445007  0.35215496  0.17204411  1
  O  O509  1  0.41278690  0.35161530  0.42137832  1
  O  O510  1  0.41085472  0.35220719  0.67273372  1
  O  O511  1  0.41149692  0.35098796  0.92223842  1
  O  O512  1  0.41411901  0.68448811  0.17222458  1
  O  O513  1  0.41369840  0.68435487  0.42184483  1
  O  O514  1  0.41301425  0.68385839  0.67379408  1
  O  O515  1  0.41053136  0.68514202  0.92324856  1
  O  O516  1  0.91390156  0.01877938  0.17318007  1
  O  O517  1  0.91096129  0.01924280  0.42334821  1
  O  O518  1  0.91108886  0.01821424  0.67286105  1
  O  O519  1  0.91187060  0.01843581  0.92238278  1
  O  O520  1  0.91024022  0.35226245  0.17222146  1
  O  O521  1  0.91018686  0.35160004  0.42172708  1
  O  O522  1  0.91226440  0.35282836  0.67216268  1
  O  O523  1  0.91315152  0.35204279  0.92297117  1
  O  O524  1  0.91324897  0.68375061  0.17181777  1
  O  O525  1  0.91391838  0.68472292  0.42271359  1
  O  O526  1  0.91412904  0.68339798  0.67347186  1
  O  O527  1  0.91136873  0.68479499  0.92261747  1
  O  O528  1  0.16153614  0.01840405  0.20223232  1
  O  O529  1  0.16246845  0.01961524  0.45233139  1
  O  O530  1  0.16348783  0.01683260  0.70297071  1
  O  O531  1  0.16171158  0.01883307  0.95290434  1
  O  O532  1  0.16254822  0.35044253  0.20270433  1
  O  O533  1  0.16214819  0.35148304  0.45297379  1
  O  O534  1  0.16363899  0.35242772  0.70229584  1
  O  O535  1  0.16303780  0.35285867  0.95108416  1
  O  O536  1  0.16001801  0.68597503  0.20239870  1
  O  O537  1  0.16133837  0.68315850  0.45282787  1
  O  O538  1  0.16292623  0.68528813  0.70202557  1
  O  O539  1  0.16303208  0.68339581  0.95324481  1
  O  O540  1  0.66005398  0.01971697  0.20295558  1
  O  O541  1  0.66204170  0.01860979  0.45197938  1
  O  O542  1  0.66235985  0.01928135  0.70191704  1
  O  O543  1  0.66225271  0.01692450  0.95360348  1
  O  O544  1  0.66351152  0.35192188  0.20209869  1
  O  O545  1  0.66462963  0.35203901  0.45183900  1
  O  O546  1  0.66233822  0.35170917  0.70267102  1
  O  O547  1  0.66415796  0.35287460  0.95275848  1
  O  O548  1  0.66107594  0.68343044  0.20312310  1
  O  O549  1  0.66099641  0.68455724  0.45236149  1
  O  O550  1  0.66338828  0.68400223  0.70167832  1
  O  O551  1  0.66310747  0.68462618  0.95322769  1
  O  O552  1  0.33821588  0.31686259  0.04637788  1
  O  O553  1  0.33636966  0.31461542  0.29820104  1
  O  O554  1  0.33830827  0.31503205  0.54750959  1
  O  O555  1  0.33926544  0.31594344  0.79695572  1
  O  O556  1  0.33593653  0.64804408  0.04796227  1
  O  O557  1  0.33785049  0.64846388  0.29831733  1
  O  O558  1  0.33720493  0.64837960  0.54793813  1
  O  O559  1  0.33684185  0.64888802  0.79701126  1
  O  O560  1  0.33816333  0.98048774  0.04786286  1
  O  O561  1  0.33636321  0.98165715  0.29788117  1
  O  O562  1  0.33788894  0.98162700  0.54686110  1
  O  O563  1  0.33712243  0.98017388  0.79837963  1
  O  O564  1  0.83867613  0.31601647  0.04773131  1
  O  O565  1  0.83768357  0.31580377  0.29691224  1
  O  O566  1  0.83807340  0.31516481  0.54637173  1
  O  O567  1  0.83562334  0.31407907  0.79740047  1
  O  O568  1  0.83741180  0.64870059  0.04817887  1
  O  O569  1  0.83725704  0.64786604  0.29842966  1
  O  O570  1  0.83955114  0.64768887  0.54796015  1
  O  O571  1  0.83665710  0.64960922  0.79673580  1
  O  O572  1  0.83568633  0.98067073  0.04866383  1
  O  O573  1  0.83660023  0.98150233  0.29779685  1
  O  O574  1  0.83687663  0.98266942  0.54697121  1
  O  O575  1  0.83678875  0.98169294  0.79692935  1
  O  O576  1  0.41529282  0.14840434  0.17305909  1
  O  O577  1  0.41408255  0.14879968  0.42165483  1
  O  O578  1  0.41435113  0.14888221  0.67238472  1
  O  O579  1  0.41241603  0.14887411  0.92241156  1
  O  O580  1  0.41436773  0.48208882  0.17210417  1
  O  O581  1  0.41271501  0.48200117  0.42139907  1
  O  O582  1  0.41107855  0.48235638  0.67322528  1
  O  O583  1  0.41107748  0.48114705  0.92348466  1
  O  O584  1  0.41392585  0.81444077  0.17186708  1
  O  O585  1  0.41357434  0.81458835  0.42176472  1
  O  O586  1  0.41232847  0.81374038  0.67348372  1
  O  O587  1  0.41082717  0.81525678  0.92248583  1
  O  O588  1  0.91367702  0.14883651  0.17281436  1
  O  O589  1  0.91192485  0.14933739  0.42292638  1
  O  O590  1  0.91073710  0.14820597  0.67287237  1
  O  O591  1  0.91179664  0.14861850  0.92190612  1
  O  O592  1  0.91035823  0.48247172  0.17211286  1
  O  O593  1  0.91019171  0.48182288  0.42178156  1
  O  O594  1  0.91231226  0.48303749  0.67146203  1
  O  O595  1  0.91358737  0.48188927  0.92324977  1
  O  O596  1  0.91282806  0.81386165  0.17241382  1
  O  O597  1  0.91430314  0.81475247  0.42302684  1
  O  O598  1  0.91315111  0.81328275  0.67383532  1
  O  O599  1  0.91125710  0.81477640  0.92287963  1
  O  O600  1  0.08616939  0.18452087  0.07804765  1
  O  O601  1  0.08661992  0.18517729  0.32722322  1
  O  O602  1  0.08829437  0.18539811  0.57630437  1
  O  O603  1  0.08750088  0.18648505  0.82697122  1
  O  O604  1  0.08670777  0.51903800  0.07682244  1
  O  O605  1  0.08572158  0.51860624  0.32722187  1
  O  O606  1  0.08847364  0.51953144  0.57673426  1
  O  O607  1  0.08898442  0.51673449  0.82777014  1
  O  O608  1  0.08839902  0.85159054  0.07822146  1
  O  O609  1  0.08775745  0.85044335  0.32758565  1
  O  O610  1  0.08843345  0.85044374  0.57898741  1
  O  O611  1  0.08807144  0.85134271  0.82656770  1
  O  O612  1  0.58933507  0.18542599  0.07860187  1
  O  O613  1  0.58717051  0.18490950  0.32757801  1
  O  O614  1  0.58645162  0.18476402  0.57833152  1
  O  O615  1  0.58683210  0.18567754  0.82673528  1
  O  O616  1  0.59019192  0.51801594  0.07703578  1
  O  O617  1  0.58735421  0.51886556  0.32654941  1
  O  O618  1  0.58632749  0.51921351  0.57791548  1
  O  O619  1  0.58875283  0.51818273  0.82738161  1
  O  O620  1  0.58853236  0.85106414  0.07650564  1
  O  O621  1  0.58592377  0.85129481  0.32775635  1
  O  O622  1  0.58729912  0.85071609  0.57868443  1
  O  O623  1  0.58590381  0.85118865  0.82749125  1
  O  O624  1  0.33835237  0.18658068  0.04765932  1
  O  O625  1  0.33634071  0.18470557  0.29795493  1
  O  O626  1  0.33794830  0.18508960  0.54786851  1
  O  O627  1  0.33974928  0.18575843  0.79773548  1
  O  O628  1  0.33608729  0.51792480  0.04753523  1
  O  O629  1  0.33809961  0.51847997  0.29811672  1
  O  O630  1  0.33775832  0.51846831  0.54753664  1
  O  O631  1  0.33679399  0.51888476  0.79725720  1
  O  O632  1  0.33798290  0.85005461  0.04710297  1
  O  O633  1  0.33609208  0.85166291  0.29826668  1
  O  O634  1  0.33823281  0.85148817  0.54671324  1
  O  O635  1  0.33665566  0.85009270  0.79755326  1
  O  O636  1  0.83899872  0.18588494  0.04867988  1
  O  O637  1  0.83738449  0.18575821  0.29822803  1
  O  O638  1  0.83805270  0.18487040  0.54635487  1
  O  O639  1  0.83482710  0.18391071  0.79724653  1
  O  O640  1  0.83753461  0.51875912  0.04803965  1
  O  O641  1  0.83749505  0.51786629  0.29694692  1
  O  O642  1  0.83909895  0.51765177  0.54692933  1
  O  O643  1  0.83720642  0.51950398  0.79694653  1
  O  O644  1  0.83582716  0.85048975  0.04808934  1
  O  O645  1  0.83633369  0.85127279  0.29814434  1
  O  O646  1  0.83727560  0.85241148  0.54763866  1
  O  O647  1  0.83719819  0.85126187  0.79675044  1
  O  O648  1  0.16148557  0.14865972  0.20201600  1
  O  O649  1  0.16299541  0.14982565  0.45267403  1
  O  O650  1  0.16290442  0.14715948  0.70242099  1
  O  O651  1  0.16214313  0.14907304  0.95257849  1
  O  O652  1  0.16220318  0.48062664  0.20256526  1
  O  O653  1  0.16215535  0.48170603  0.45274379  1
  O  O654  1  0.16376784  0.48256140  0.70287767  1
  O  O655  1  0.16295847  0.48283581  0.95228634  1
  O  O656  1  0.16098596  0.81609556  0.20314089  1
  O  O657  1  0.16012550  0.81325958  0.45230090  1
  O  O658  1  0.16361180  0.81530385  0.70209108  1
  O  O659  1  0.16271352  0.81338994  0.95260630  1
  O  O660  1  0.66145899  0.14997391  0.20347927  1
  O  O661  1  0.66178714  0.14852875  0.45199255  1
  O  O662  1  0.66308115  0.14939497  0.70195506  1
  O  O663  1  0.66144364  0.14727508  0.95338594  1
  O  O664  1  0.66343217  0.48194179  0.20212449  1
  O  O665  1  0.66465044  0.48208758  0.45181303  1
  O  O666  1  0.66252654  0.48206305  0.70252456  1
  O  O667  1  0.66437861  0.48290480  0.95324592  1
  O  O668  1  0.66022557  0.81354159  0.20254909  1
  O  O669  1  0.66096608  0.81449311  0.45229623  1
  O  O670  1  0.66269128  0.81390766  0.70177133  1
  O  O671  1  0.66337168  0.81474757  0.95276420  1
