# generated using pymatgen
data_Na2MnFe(PO4)2
_symmetry_space_group_name_H-M   'P 1'
_cell_length_a   21.08559095
_cell_length_b   18.93824615
_cell_length_c   20.04478003
_cell_angle_alpha   89.99979458
_cell_angle_beta   89.99770580
_cell_angle_gamma   90.00034791
_symmetry_Int_Tables_number   1
_chemical_formula_structural   Na2MnFe(PO4)2
_chemical_formula_sum   'Na96 Mn48 Fe48 P96 O384'
_cell_volume   8004.36397127
_cell_formula_units_Z   48
loop_
 _symmetry_equiv_pos_site_id
 _symmetry_equiv_pos_as_xyz
  1  'x, y, z'
loop_
 _atom_site_type_symbol
 _atom_site_label
 _atom_site_symmetry_multiplicity
 _atom_site_fract_x
 _atom_site_fract_y
 _atom_site_fract_z
 _atom_site_occupancy
  Na  Na0  1  -0.00055519  -0.00006125  0.00049864  1
  Na  Na1  1  -0.00249993  -0.00071569  0.24914558  1
  Na  Na2  1  -0.00073717  0.00019112  0.49955760  1
  Na  Na3  1  0.00042000  -0.00016957  0.75080669  1
  Na  Na4  1  0.00103669  0.33347475  -0.00022594  1
  Na  Na5  1  0.00177318  0.33280109  0.25010248  1
  Na  Na6  1  0.00294635  0.33402577  0.49981325  1
  Na  Na7  1  -0.00100882  0.33248754  0.75098592  1
  Na  Na8  1  0.00043906  0.66674874  -0.00039143  1
  Na  Na9  1  0.00162685  0.66730608  0.24983484  1
  Na  Na10  1  0.00009867  0.66596972  0.50036775  1
  Na  Na11  1  -0.00040511  0.66581511  0.74964137  1
  Na  Na12  1  0.50172227  0.00105573  0.00093921  1
  Na  Na13  1  0.49933678  0.00047342  0.24875578  1
  Na  Na14  1  0.49699044  -0.00085694  0.49967228  1
  Na  Na15  1  0.49959324  0.00023431  0.74995356  1
  Na  Na16  1  0.50069727  0.33375711  -0.00068510  1
  Na  Na17  1  0.49884285  0.33300431  0.25017315  1
  Na  Na18  1  0.49949993  0.33390259  0.49945598  1
  Na  Na19  1  0.49952541  0.33370248  0.75054223  1
  Na  Na20  1  0.50082338  0.66670261  -0.00032230  1
  Na  Na21  1  0.50147520  0.66736812  0.24952399  1
  Na  Na22  1  0.50124184  0.66671116  0.50042517  1
  Na  Na23  1  0.50163075  0.66671450  0.75091492  1
  Na  Na24  1  0.25133191  0.00068882  0.12498713  1
  Na  Na25  1  0.25355844  0.00122614  0.37631109  1
  Na  Na26  1  0.25091670  0.00026189  0.62519122  1
  Na  Na27  1  0.24753930  -0.00092949  0.87406583  1
  Na  Na28  1  0.25099080  0.33323089  0.12515829  1
  Na  Na29  1  0.24992634  0.33282732  0.37430333  1
  Na  Na30  1  0.25101448  0.33432960  0.62600521  1
  Na  Na31  1  0.24983696  0.33314914  0.87396353  1
  Na  Na32  1  0.24959691  0.66716466  0.12526328  1
  Na  Na33  1  0.24890332  0.66627690  0.37460726  1
  Na  Na34  1  0.25009356  0.66618830  0.62514080  1
  Na  Na35  1  0.25040333  0.66691977  0.87512219  1
  Na  Na36  1  0.74989519  0.00004865  0.12383819  1
  Na  Na37  1  0.74964765  0.00016253  0.37452316  1
  Na  Na38  1  0.75147137  0.00072105  0.62610880  1
  Na  Na39  1  0.75054815  0.00008991  0.87507410  1
  Na  Na40  1  0.74875688  0.33261159  0.12477446  1
  Na  Na41  1  0.74843870  0.33279744  0.37472732  1
  Na  Na42  1  0.74937093  0.33400678  0.62559654  1
  Na  Na43  1  0.74797160  0.33305610  0.87569779  1
  Na  Na44  1  0.74747792  0.66551969  0.12400472  1
  Na  Na45  1  0.74945523  0.66704397  0.37554021  1
  Na  Na46  1  0.74835637  0.66536580  0.62530689  1
  Na  Na47  1  0.74913736  0.66605168  0.87504067  1
  Na  Na48  1  0.00030791  0.16685453  0.00086205  1
  Na  Na49  1  -0.00023366  0.16699218  0.24988713  1
  Na  Na50  1  0.00225654  0.16644192  0.49820404  1
  Na  Na51  1  0.00286821  0.16582535  0.75124501  1
  Na  Na52  1  0.00011891  0.49973545  -0.00049344  1
  Na  Na53  1  0.00052770  0.49924745  0.24967525  1
  Na  Na54  1  -0.00086378  0.50009890  0.50095054  1
  Na  Na55  1  -0.00100629  0.49986124  0.74998053  1
  Na  Na56  1  -0.00007661  0.83403276  -0.00073216  1
  Na  Na57  1  0.00211713  0.83263785  0.24981206  1
  Na  Na58  1  0.00035218  0.83372853  0.50033149  1
  Na  Na59  1  -0.00095212  0.83434913  0.75072816  1
  Na  Na60  1  0.50014256  0.16633571  0.00019545  1
  Na  Na61  1  0.49925643  0.16645095  0.25003943  1
  Na  Na62  1  0.49882303  0.16669873  0.49937385  1
  Na  Na63  1  0.49938504  0.16676012  0.75013711  1
  Na  Na64  1  0.50180456  0.49847397  -0.00053272  1
  Na  Na65  1  0.49931337  0.49956255  0.24994499  1
  Na  Na66  1  0.49943083  0.49990940  0.50033035  1
  Na  Na67  1  0.50022464  0.49991038  0.74987017  1
  Na  Na68  1  0.50165633  0.83364909  0.00042418  1
  Na  Na69  1  0.50128998  0.83328065  0.24842291  1
  Na  Na70  1  0.49925514  0.83411848  0.49989826  1
  Na  Na71  1  0.50059448  0.83353311  0.75132963  1
  Na  Na72  1  0.25107090  0.16654264  0.12452285  1
  Na  Na73  1  0.25042718  0.16694704  0.37507568  1
  Na  Na74  1  0.24951272  0.16656051  0.62632117  1
  Na  Na75  1  0.24864286  0.16705480  0.87374071  1
  Na  Na76  1  0.25191614  0.49862483  0.12516336  1
  Na  Na77  1  0.25178577  0.49918494  0.37529537  1
  Na  Na78  1  0.25227019  0.49906091  0.62575059  1
  Na  Na79  1  0.25016281  0.50007262  0.87447050  1
  Na  Na80  1  0.24882281  0.83388448  0.12574151  1
  Na  Na81  1  0.25040290  0.83324241  0.37487366  1
  Na  Na82  1  0.24980384  0.83378724  0.62428920  1
  Na  Na83  1  0.24897253  0.83369955  0.87487121  1
  Na  Na84  1  0.75066863  0.16610077  0.12509323  1
  Na  Na85  1  0.74971285  0.16664108  0.37396010  1
  Na  Na86  1  0.74865962  0.16728443  0.62577225  1
  Na  Na87  1  0.74959079  0.16656878  0.87519862  1
  Na  Na88  1  0.74780937  0.49992969  0.12370615  1
  Na  Na89  1  0.74808752  0.50027832  0.37567591  1
  Na  Na90  1  0.74962165  0.49955425  0.62557901  1
  Na  Na91  1  0.74815213  0.49990941  0.87537142  1
  Na  Na92  1  0.74830326  0.83494143  0.12371147  1
  Na  Na93  1  0.74861269  0.83422804  0.37524421  1
  Na  Na94  1  0.75111070  0.83311197  0.62554277  1
  Na  Na95  1  0.75097200  0.83363163  0.87514025  1
  Mn  Mn96  1  0.35704427  0.08318457  0.75248095  1
  Mn  Mn97  1  0.39124970  0.24942643  0.37793210  1
  Mn  Mn98  1  0.85756217  0.41643511  0.25218257  1
  Mn  Mn99  1  0.85779727  0.74964013  0.50234990  1
  Mn  Mn100  1  0.39278561  0.91703356  0.12653725  1
  Mn  Mn101  1  0.39234606  0.24954456  0.87780464  1
  Mn  Mn102  1  0.39264527  0.58363634  0.87744049  1
  Mn  Mn103  1  0.14266016  0.58285041  0.99731684  1
  Mn  Mn104  1  0.14234690  0.58264646  0.24754410  1
  Mn  Mn105  1  0.64280682  0.91635234  0.74776813  1
  Mn  Mn106  1  0.85749404  0.41631765  0.50187696  1
  Mn  Mn107  1  0.85738261  0.75008622  0.00260221  1
  Mn  Mn108  1  0.60702443  0.41650227  0.37278542  1
  Mn  Mn109  1  0.14244684  0.58239256  0.49836082  1
  Mn  Mn110  1  0.35788266  0.74977190  0.75187307  1
  Mn  Mn111  1  0.10866770  0.08307870  0.37212299  1
  Mn  Mn112  1  0.14265247  0.91791740  0.24808803  1
  Mn  Mn113  1  0.64144605  0.58369474  0.24735859  1
  Mn  Mn114  1  0.10776770  0.08268912  0.12282293  1
  Mn  Mn115  1  0.85760340  0.74915256  0.75221115  1
  Mn  Mn116  1  0.64171140  0.24931907  0.24698407  1
  Mn  Mn117  1  0.60812516  0.75088498  0.37259575  1
  Mn  Mn118  1  0.89265522  0.25007175  0.87793784  1
  Mn  Mn119  1  0.14228172  0.25046532  0.74717127  1
  Mn  Mn120  1  0.64171245  0.91720755  0.49831723  1
  Mn  Mn121  1  0.60694547  0.08339591  0.62231448  1
  Mn  Mn122  1  0.10764127  0.41616737  0.62305228  1
  Mn  Mn123  1  0.85752490  0.75028792  0.25173292  1
  Mn  Mn124  1  0.10782227  0.74958718  0.87258802  1
  Mn  Mn125  1  0.60780512  0.75017491  0.87260400  1
  Mn  Mn126  1  0.10851029  0.41694657  0.12225000  1
  Mn  Mn127  1  0.35798995  0.75030239  0.25189290  1
  Mn  Mn128  1  0.14282990  0.91705253  0.49758749  1
  Mn  Mn129  1  0.39180731  0.91709496  0.87777498  1
  Mn  Mn130  1  0.85868574  0.08456552  0.75253417  1
  Mn  Mn131  1  0.89170800  0.58348590  0.12730476  1
  Mn  Mn132  1  0.85695746  0.41575879  0.00202949  1
  Mn  Mn133  1  0.89238118  0.24978759  0.62655653  1
  Mn  Mn134  1  0.60691622  0.08290515  0.37299770  1
  Mn  Mn135  1  0.39199962  0.58440315  0.37754978  1
  Mn  Mn136  1  0.89167224  0.91593013  0.37682349  1
  Mn  Mn137  1  0.35821401  0.74961276  0.50285480  1
  Mn  Mn138  1  0.10731003  0.75013378  0.62267362  1
  Mn  Mn139  1  0.64167143  0.25045358  0.74736823  1
  Mn  Mn140  1  0.89295390  0.25051768  0.37722413  1
  Mn  Mn141  1  0.39296264  0.58302206  0.12662919  1
  Mn  Mn142  1  0.85797808  0.08415105  0.50233725  1
  Mn  Mn143  1  0.89233038  0.58295661  0.37688043  1
  Fe  Fe144  1  0.89170363  0.58320162  0.62747969  1
  Fe  Fe145  1  0.64282400  0.58313147  0.74776633  1
  Fe  Fe146  1  0.14322008  0.24959033  0.99916273  1
  Fe  Fe147  1  0.60699685  0.41596298  0.87276672  1
  Fe  Fe148  1  0.60780043  0.75008066  0.12239167  1
  Fe  Fe149  1  0.35705687  0.08425682  0.50279357  1
  Fe  Fe150  1  0.39292446  0.91600806  0.37616025  1
  Fe  Fe151  1  0.60740205  0.08399124  0.12249687  1
  Fe  Fe152  1  0.89269488  0.24986079  0.12671775  1
  Fe  Fe153  1  0.14376492  0.25017769  0.49886497  1
  Fe  Fe154  1  0.60759305  0.08364584  0.87376132  1
  Fe  Fe155  1  0.89298889  0.91700243  0.62653077  1
  Fe  Fe156  1  0.64217568  0.24932132  0.99888187  1
  Fe  Fe157  1  0.89251481  0.91667449  0.12666758  1
  Fe  Fe158  1  0.89353854  0.91667397  0.87706445  1
  Fe  Fe159  1  0.10878707  0.41729045  0.37344968  1
  Fe  Fe160  1  0.85649593  0.08327924  0.25103931  1
  Fe  Fe161  1  0.39256295  0.24995448  0.12555106  1
  Fe  Fe162  1  0.64212851  0.91720280  0.24775396  1
  Fe  Fe163  1  0.14191552  0.91591749  0.74761273  1
  Fe  Fe164  1  0.35807123  0.08363235  0.25117363  1
  Fe  Fe165  1  0.64346532  0.91756229  0.99780404  1
  Fe  Fe166  1  0.39353566  0.58355276  0.62711047  1
  Fe  Fe167  1  0.35721260  0.08324138  0.00101638  1
  Fe  Fe168  1  0.85656822  0.41666174  0.75196695  1
  Fe  Fe169  1  0.39257095  0.91599390  0.62718967  1
  Fe  Fe170  1  0.35767381  0.41642063  0.00123483  1
  Fe  Fe171  1  0.60662943  0.41605397  0.12311428  1
  Fe  Fe172  1  0.60721983  0.74997056  0.62358125  1
  Fe  Fe173  1  0.14379172  0.24968392  0.24792615  1
  Fe  Fe174  1  0.10773651  0.74959152  0.37367213  1
  Fe  Fe175  1  0.10755768  0.75021941  0.12305227  1
  Fe  Fe176  1  0.39245074  0.25045071  0.62620181  1
  Fe  Fe177  1  0.35738952  0.41624561  0.50227317  1
  Fe  Fe178  1  0.35716193  0.75041336  0.00195404  1
  Fe  Fe179  1  0.85723384  0.08381013  0.00166801  1
  Fe  Fe180  1  0.35764184  0.41726244  0.75186478  1
  Fe  Fe181  1  0.10769932  0.41700683  0.87332652  1
  Fe  Fe182  1  0.64214193  0.58317587  0.99748262  1
  Fe  Fe183  1  0.14259632  0.58347713  0.74819567  1
  Fe  Fe184  1  0.60650811  0.41673312  0.62331193  1
  Fe  Fe185  1  0.89260872  0.58319252  0.87637922  1
  Fe  Fe186  1  0.14242758  0.91724892  0.99887043  1
  Fe  Fe187  1  0.64227377  0.58282035  0.49898577  1
  Fe  Fe188  1  0.35755134  0.41631033  0.25146441  1
  Fe  Fe189  1  0.10744684  0.08349550  0.87458199  1
  Fe  Fe190  1  0.64147388  0.25008625  0.49871429  1
  Fe  Fe191  1  0.10747596  0.08303172  0.62312881  1
  P  P192  1  0.05439064  0.24954762  0.11062019  1
  P  P193  1  0.05662559  0.25090631  0.36032527  1
  P  P194  1  0.05418029  0.24910242  0.60923008  1
  P  P195  1  0.05561301  0.25015212  0.86206995  1
  P  P196  1  0.05328781  0.58393324  0.10952283  1
  P  P197  1  0.05390524  0.58283562  0.36023920  1
  P  P198  1  0.05271974  0.58286211  0.61140950  1
  P  P199  1  0.05311253  0.58243912  0.85929001  1
  P  P200  1  0.05285571  0.91644535  0.10958584  1
  P  P201  1  0.05344029  0.91630147  0.35981104  1
  P  P202  1  0.05344460  0.91751992  0.61100889  1
  P  P203  1  0.05458713  0.91759745  0.86122689  1
  P  P204  1  0.55241106  0.24977363  0.10950243  1
  P  P205  1  0.55360134  0.24968150  0.36075237  1
  P  P206  1  0.55190123  0.25105657  0.60959482  1
  P  P207  1  0.55466012  0.24948871  0.86141044  1
  P  P208  1  0.55415156  0.58288010  0.10905607  1
  P  P209  1  0.55398927  0.58330882  0.36102249  1
  P  P210  1  0.55405995  0.58291576  0.61129369  1
  P  P211  1  0.55551847  0.58224770  0.86030030  1
  P  P212  1  0.55577929  0.91750553  0.11030821  1
  P  P213  1  0.55253006  0.91720823  0.35879758  1
  P  P214  1  0.55183642  0.91617192  0.61041011  1
  P  P215  1  0.55473396  0.91814531  0.86133944  1
  P  P216  1  0.44585582  0.08438289  0.13857505  1
  P  P217  1  0.44421015  0.08226079  0.38928263  1
  P  P218  1  0.44475585  0.08376651  0.63897898  1
  P  P219  1  0.44728964  0.08313842  0.89089729  1
  P  P220  1  0.44580756  0.41548035  0.13875107  1
  P  P221  1  0.44422875  0.41661765  0.38977382  1
  P  P222  1  0.44567684  0.41665234  0.63937392  1
  P  P223  1  0.44616074  0.41675766  0.88933477  1
  P  P224  1  0.44709731  0.75019814  0.13820661  1
  P  P225  1  0.44704164  0.75102446  0.38988631  1
  P  P226  1  0.44816537  0.74962737  0.64035428  1
  P  P227  1  0.44601052  0.75039255  0.89109507  1
  P  P228  1  0.94447481  0.08354600  0.13895748  1
  P  P229  1  0.94570676  0.08341390  0.38839073  1
  P  P230  1  0.94836979  0.08345674  0.64008244  1
  P  P231  1  0.94747331  0.08301641  0.89103584  1
  P  P232  1  0.94673863  0.41541204  0.13970130  1
  P  P233  1  0.94867434  0.41636233  0.39008100  1
  P  P234  1  0.94553855  0.41667939  0.64083805  1
  P  P235  1  0.94654997  0.41751331  0.88883349  1
  P  P236  1  0.94769384  0.75108667  0.13960681  1
  P  P237  1  0.94801464  0.74975162  0.38996343  1
  P  P238  1  0.94628772  0.75011059  0.64006777  1
  P  P239  1  0.94633291  0.74937691  0.88975799  1
  P  P240  1  0.19856574  0.08413506  0.23490806  1
  P  P241  1  0.19704935  0.08422350  0.48654366  1
  P  P242  1  0.19405124  0.08226232  0.73574109  1
  P  P243  1  0.19743207  0.08340755  0.98478355  1
  P  P244  1  0.19721144  0.41564799  0.23600110  1
  P  P245  1  0.19786321  0.41581700  0.48512367  1
  P  P246  1  0.19653930  0.41791505  0.73625218  1
  P  P247  1  0.19784218  0.41551112  0.98436088  1
  P  P248  1  0.19489920  0.75031665  0.23542466  1
  P  P249  1  0.19638482  0.74972361  0.48454135  1
  P  P250  1  0.19626785  0.74960621  0.73489135  1
  P  P251  1  0.19655673  0.75090872  0.98622514  1
  P  P252  1  0.69634956  0.08251610  0.23398386  1
  P  P253  1  0.69633994  0.08419138  0.48494920  1
  P  P254  1  0.69569648  0.08337649  0.73607149  1
  P  P255  1  0.69604174  0.08377602  0.98571451  1
  P  P256  1  0.69550064  0.41642535  0.23397987  1
  P  P257  1  0.69446931  0.41651416  0.48661199  1
  P  P258  1  0.69525408  0.41742619  0.73569460  1
  P  P259  1  0.69379465  0.41566122  0.98569564  1
  P  P260  1  0.69589251  0.75124420  0.23378221  1
  P  P261  1  0.69510656  0.74936990  0.48664999  1
  P  P262  1  0.69595027  0.74925271  0.73454726  1
  P  P263  1  0.69521851  0.75051007  0.98581327  1
  P  P264  1  0.30297279  0.24977863  0.01474759  1
  P  P265  1  0.30447454  0.24970763  0.26332121  1
  P  P266  1  0.30277871  0.25025683  0.51601277  1
  P  P267  1  0.30502290  0.25089220  0.76371599  1
  P  P268  1  0.30360446  0.58326981  0.01488202  1
  P  P269  1  0.30382989  0.58279729  0.26465129  1
  P  P270  1  0.30418421  0.58255388  0.51608339  1
  P  P271  1  0.30399619  0.58295175  0.76395115  1
  P  P272  1  0.30201283  0.91690476  0.01479161  1
  P  P273  1  0.30445964  0.91767475  0.26528928  1
  P  P274  1  0.30552969  0.91724482  0.51456299  1
  P  P275  1  0.30300136  0.91622139  0.76399017  1
  P  P276  1  0.80256373  0.24919828  0.01537897  1
  P  P277  1  0.80436843  0.24921223  0.26368193  1
  P  P278  1  0.80134805  0.25021778  0.51507294  1
  P  P279  1  0.80332333  0.25123364  0.76536359  1
  P  P280  1  0.80273886  0.58279852  0.01344809  1
  P  P281  1  0.80245182  0.58338135  0.26508247  1
  P  P282  1  0.80247448  0.58291281  0.51577543  1
  P  P283  1  0.80363714  0.58211858  0.76474801  1
  P  P284  1  0.80470588  0.91785994  0.01384924  1
  P  P285  1  0.80286910  0.91739384  0.26330213  1
  P  P286  1  0.80370694  0.91698176  0.51594369  1
  P  P287  1  0.80594365  0.91693545  0.76489452  1
  O  O288  1  0.05957588  0.24941612  0.18727824  1
  O  O289  1  0.06098961  0.25008500  0.43709023  1
  O  O290  1  0.05673061  0.25018504  0.68612089  1
  O  O291  1  0.05974402  0.25029581  0.93881808  1
  O  O292  1  0.05664499  0.58301378  0.18627001  1
  O  O293  1  0.05648804  0.58243040  0.43704137  1
  O  O294  1  0.05807186  0.58274074  0.68800435  1
  O  O295  1  0.05706223  0.58285884  0.93601694  1
  O  O296  1  0.05682010  0.91749732  0.18623617  1
  O  O297  1  0.05674856  0.91755284  0.43658875  1
  O  O298  1  0.05783199  0.91668976  0.68775043  1
  O  O299  1  0.05939016  0.91701570  0.93792052  1
  O  O300  1  0.55545227  0.24959480  0.18624850  1
  O  O301  1  0.55795005  0.24973373  0.43746683  1
  O  O302  1  0.55550253  0.25043173  0.68635689  1
  O  O303  1  0.55849080  0.24938825  0.93811291  1
  O  O304  1  0.55608046  0.58313588  0.18592677  1
  O  O305  1  0.55811148  0.58299071  0.43777996  1
  O  O306  1  0.55841899  0.58292779  0.68802267  1
  O  O307  1  0.55940312  0.58300190  0.93710541  1
  O  O308  1  0.55898545  0.91750248  0.18710516  1
  O  O309  1  0.55623120  0.91745533  0.43552973  1
  O  O310  1  0.55608698  0.91685663  0.68707635  1
  O  O311  1  0.55924177  0.91772260  0.93806386  1
  O  O312  1  0.44070772  0.08352621  0.06192906  1
  O  O313  1  0.44096811  0.08374104  0.31243280  1
  O  O314  1  0.44096661  0.08402533  0.56216031  1
  O  O315  1  0.44286470  0.08299482  0.81420909  1
  O  O316  1  0.44117186  0.41608995  0.06201117  1
  O  O317  1  0.44019504  0.41633525  0.31293131  1
  O  O318  1  0.44129939  0.41652212  0.56263922  1
  O  O319  1  0.44123571  0.41702984  0.81265737  1
  O  O320  1  0.44145471  0.75045522  0.06160569  1
  O  O321  1  0.44405028  0.75013668  0.31308744  1
  O  O322  1  0.44456324  0.74957322  0.56367810  1
  O  O323  1  0.44271092  0.75031757  0.81431456  1
  O  O324  1  0.94075154  0.08387765  0.06217825  1
  O  O325  1  0.94081039  0.08351083  0.31169455  1
  O  O326  1  0.94469056  0.08434334  0.56334103  1
  O  O327  1  0.94422234  0.08385051  0.81430708  1
  O  O328  1  0.94323381  0.41580818  0.06290610  1
  O  O329  1  0.94427984  0.41590911  0.31342669  1
  O  O330  1  0.94277018  0.41621891  0.56401778  1
  O  O331  1  0.94137978  0.41655905  0.81226842  1
  O  O332  1  0.94358054  0.75052522  0.06290532  1
  O  O333  1  0.94406712  0.75000782  0.31326722  1
  O  O334  1  0.94385411  0.74985955  0.56326895  1
  O  O335  1  0.94340712  0.74931651  0.81303861  1
  O  O336  1  0.19415763  0.08334880  0.06150109  1
  O  O337  1  0.19505412  0.08330765  0.31161473  1
  O  O338  1  0.19213458  0.08309312  0.56318048  1
  O  O339  1  0.19008872  0.08288652  0.81249284  1
  O  O340  1  0.19435485  0.41623814  0.06112451  1
  O  O341  1  0.19279105  0.41670128  0.31264412  1
  O  O342  1  0.19396587  0.41678364  0.56183346  1
  O  O343  1  0.19154303  0.41734602  0.81287578  1
  O  O344  1  0.19165225  0.75040364  0.06290844  1
  O  O345  1  0.19068690  0.75008082  0.31219347  1
  O  O346  1  0.19295107  0.74991276  0.56135249  1
  O  O347  1  0.19350947  0.74969042  0.81171493  1
  O  O348  1  0.69153427  0.08396590  0.06239660  1
  O  O349  1  0.69245204  0.08315298  0.31066926  1
  O  O350  1  0.69316362  0.08343469  0.56177111  1
  O  O351  1  0.69141662  0.08321438  0.81280463  1
  O  O352  1  0.68986503  0.41569930  0.06245894  1
  O  O353  1  0.69236290  0.41626594  0.31080661  1
  O  O354  1  0.69067416  0.41646092  0.56339344  1
  O  O355  1  0.69078602  0.41642297  0.81240621  1
  O  O356  1  0.69134956  0.75024834  0.06257648  1
  O  O357  1  0.69341014  0.75071062  0.31067471  1
  O  O358  1  0.69082778  0.75019236  0.56339182  1
  O  O359  1  0.69315399  0.75036250  0.81135096  1
  O  O360  1  0.30889167  0.24979216  0.18666452  1
  O  O361  1  0.30563658  0.24998192  0.43920762  1
  O  O362  1  0.30914475  0.25040811  0.68703229  1
  O  O363  1  0.30609796  0.24975772  0.93800162  1
  O  O364  1  0.30706180  0.58349835  0.18788619  1
  O  O365  1  0.30679411  0.58383362  0.43928909  1
  O  O366  1  0.30931840  0.58355710  0.68733121  1
  O  O367  1  0.30629023  0.58347978  0.93808775  1
  O  O368  1  0.30729696  0.91670795  0.18846051  1
  O  O369  1  0.30940654  0.91607444  0.43785048  1
  O  O370  1  0.30866024  0.91612160  0.68736047  1
  O  O371  1  0.30516880  0.91670771  0.93806830  1
  O  O372  1  0.80864860  0.25013914  0.18697137  1
  O  O373  1  0.80572755  0.25020237  0.43837687  1
  O  O374  1  0.80653944  0.25034558  0.68864437  1
  O  O375  1  0.80647340  0.25002200  0.93866428  1
  O  O376  1  0.80567202  0.58321569  0.18823609  1
  O  O377  1  0.80647611  0.58311919  0.43904155  1
  O  O378  1  0.80837162  0.58285503  0.68803533  1
  O  O379  1  0.80811387  0.58296843  0.93682818  1
  O  O380  1  0.80780129  0.91644782  0.18663891  1
  O  O381  1  0.80645037  0.91680114  0.43906861  1
  O  O382  1  0.81031936  0.91720554  0.68812151  1
  O  O383  1  0.80989702  0.91696965  0.93716777  1
  O  O384  1  0.23295035  0.24976307  0.03969066  1
  O  O385  1  0.23437157  0.24969866  0.28775422  1
  O  O386  1  0.23292311  0.25033206  0.54124108  1
  O  O387  1  0.23490233  0.25040984  0.78762949  1
  O  O388  1  0.23404965  0.58276905  0.04054377  1
  O  O389  1  0.23421726  0.58268768  0.28987278  1
  O  O390  1  0.23447035  0.58258887  0.54126488  1
  O  O391  1  0.23369597  0.58315703  0.78768680  1
  O  O392  1  0.23209739  0.91736558  0.04002027  1
  O  O393  1  0.23484790  0.91744526  0.29066157  1
  O  O394  1  0.23542810  0.91688134  0.53873199  1
  O  O395  1  0.23250443  0.91625397  0.78699783  1
  O  O396  1  0.73233344  0.24936416  0.03948512  1
  O  O397  1  0.73425715  0.24956583  0.28762617  1
  O  O398  1  0.73134224  0.25043688  0.53968346  1
  O  O399  1  0.73357309  0.25048688  0.79024043  1
  O  O400  1  0.73214196  0.58255901  0.03639890  1
  O  O401  1  0.73281606  0.58361468  0.29017354  1
  O  O402  1  0.73229597  0.58249478  0.53995846  1
  O  O403  1  0.73317057  0.58295259  0.78808337  1
  O  O404  1  0.73406210  0.91778993  0.03661650  1
  O  O405  1  0.73260147  0.91750721  0.28731167  1
  O  O406  1  0.73402503  0.91708523  0.54116433  1
  O  O407  1  0.73575628  0.91659167  0.78858517  1
  O  O408  1  0.26849686  0.08374939  0.21011615  1
  O  O409  1  0.26743648  0.08416840  0.46292419  1
  O  O410  1  0.26420380  0.08317798  0.71191694  1
  O  O411  1  0.26743009  0.08335950  0.95963597  1
  O  O412  1  0.26749050  0.41579198  0.21195622  1
  O  O413  1  0.26802391  0.41615739  0.46085399  1
  O  O414  1  0.26692409  0.41719312  0.71271614  1
  O  O415  1  0.26801586  0.41619064  0.95992577  1
  O  O416  1  0.26505940  0.75057563  0.21157966  1
  O  O417  1  0.26624282  0.74963570  0.46000421  1
  O  O418  1  0.26580163  0.74997510  0.70930742  1
  O  O419  1  0.26684498  0.75051170  0.96224206  1
  O  O420  1  0.76647223  0.08306068  0.20970380  1
  O  O421  1  0.76588440  0.08366172  0.45949914  1
  O  O422  1  0.76578627  0.08400573  0.71216170  1
  O  O423  1  0.76647360  0.08347047  0.96193161  1
  O  O424  1  0.76519425  0.41633475  0.20895323  1
  O  O425  1  0.76428756  0.41661881  0.46158617  1
  O  O426  1  0.76556505  0.41699725  0.71199474  1
  O  O427  1  0.76391158  0.41598705  0.96150161  1
  O  O428  1  0.76537432  0.75029401  0.20798724  1
  O  O429  1  0.76502386  0.75007923  0.46205457  1
  O  O430  1  0.76567985  0.74922798  0.70963341  1
  O  O431  1  0.76514979  0.75031880  0.96123268  1
  O  O432  1  0.01454695  0.08315598  0.16337732  1
  O  O433  1  0.01591641  0.08344590  0.41197514  1
  O  O434  1  0.01824164  0.08329641  0.66508605  1
  O  O435  1  0.01758366  0.08351622  0.91560968  1
  O  O436  1  0.01657182  0.41580561  0.16442516  1
  O  O437  1  0.01877171  0.41681703  0.41437024  1
  O  O438  1  0.01533020  0.41606876  0.66584974  1
  O  O439  1  0.01697579  0.41709032  0.91248452  1
  O  O440  1  0.01781538  0.75067647  0.16385170  1
  O  O441  1  0.01798274  0.74975159  0.41472819  1
  O  O442  1  0.01576542  0.75007196  0.66595491  1
  O  O443  1  0.01609350  0.74984793  0.91485929  1
  O  O444  1  0.51635785  0.08362037  0.16186725  1
  O  O445  1  0.51405705  0.08301590  0.41404226  1
  O  O446  1  0.51466204  0.08357906  0.66365409  1
  O  O447  1  0.51744056  0.08356598  0.91483206  1
  O  O448  1  0.51620920  0.41610278  0.16246433  1
  O  O449  1  0.51426548  0.41666662  0.41368601  1
  O  O450  1  0.51607907  0.41696220  0.66324640  1
  O  O451  1  0.51663037  0.41625632  0.91243210  1
  O  O452  1  0.51765172  0.75040269  0.16112376  1
  O  O453  1  0.51657776  0.75091592  0.41529168  1
  O  O454  1  0.51813249  0.74975930  0.66532594  1
  O  O455  1  0.51596843  0.75023108  0.91527946  1
  O  O456  1  0.48245588  0.24989314  0.08445008  1
  O  O457  1  0.48353541  0.24962975  0.33681379  1
  O  O458  1  0.48181094  0.25061763  0.58506288  1
  O  O459  1  0.48474595  0.24985878  0.83682520  1
  O  O460  1  0.48462017  0.58278629  0.08324008  1
  O  O461  1  0.48416463  0.58340548  0.33635877  1
  O  O462  1  0.48367588  0.58272203  0.58737448  1
  O  O463  1  0.48542460  0.58342296  0.83634945  1
  O  O464  1  0.48572181  0.91748651  0.08581131  1
  O  O465  1  0.48258762  0.91672776  0.33409130  1
  O  O466  1  0.48168229  0.91647415  0.58618842  1
  O  O467  1  0.48467255  0.91722938  0.83728350  1
  O  O468  1  0.98395105  0.24953035  0.08723618  1
  O  O469  1  0.98645052  0.25002018  0.33653107  1
  O  O470  1  0.98467414  0.25020051  0.58360638  1
  O  O471  1  0.98558198  0.24964860  0.83776335  1
  O  O472  1  0.98358774  0.58341830  0.08440143  1
  O  O473  1  0.98446287  0.58293683  0.33424280  1
  O  O474  1  0.98227404  0.58288385  0.58803630  1
  O  O475  1  0.98293263  0.58302512  0.83518027  1
  O  O476  1  0.98266585  0.91706681  0.08541732  1
  O  O477  1  0.98380643  0.91622438  0.33458732  1
  O  O478  1  0.98325403  0.91705942  0.58684588  1
  O  O479  1  0.98401608  0.91685820  0.83799481  1
  O  O480  1  0.08796821  0.31436484  0.07708867  1
  O  O481  1  0.08979079  0.31636623  0.32759450  1
  O  O482  1  0.08938278  0.31373892  0.57700302  1
  O  O483  1  0.08878559  0.31533665  0.82866216  1
  O  O484  1  0.08713803  0.64924556  0.07743421  1
  O  O485  1  0.08818757  0.64808527  0.32839579  1
  O  O486  1  0.08603277  0.64779755  0.57801000  1
  O  O487  1  0.08724942  0.64740085  0.82649113  1
  O  O488  1  0.08693481  0.98133063  0.07645807  1
  O  O489  1  0.08737934  0.98132341  0.32675731  1
  O  O490  1  0.08672116  0.98274062  0.57795934  1
  O  O491  1  0.08738807  0.98290561  0.82813017  1
  O  O492  1  0.58662421  0.31464371  0.07696029  1
  O  O493  1  0.58700664  0.31466440  0.32753154  1
  O  O494  1  0.58564292  0.31627532  0.57719884  1
  O  O495  1  0.58824439  0.31468207  0.82841801  1
  O  O496  1  0.58867466  0.64784906  0.07683488  1
  O  O497  1  0.58769890  0.64845040  0.32831373  1
  O  O498  1  0.58747836  0.64793396  0.57805166  1
  O  O499  1  0.58983432  0.64687142  0.82716129  1
  O  O500  1  0.58945609  0.98272663  0.07753687  1
  O  O501  1  0.58622262  0.98231296  0.32590496  1
  O  O502  1  0.58528768  0.98121081  0.57708905  1
  O  O503  1  0.58780818  0.98339323  0.82824265  1
  O  O504  1  0.41216334  0.01963737  0.17223454  1
  O  O505  1  0.41079261  0.01674066  0.42128036  1
  O  O506  1  0.41103364  0.01856500  0.67172074  1
  O  O507  1  0.41359337  0.01824155  0.92410602  1
  O  O508  1  0.41271489  0.35018289  0.17179934  1
  O  O509  1  0.41067204  0.35155922  0.42300829  1
  O  O510  1  0.41241441  0.35157086  0.67272196  1
  O  O511  1  0.41264319  0.35192700  0.92283581  1
  O  O512  1  0.41428552  0.68509539  0.17185523  1
  O  O513  1  0.41292000  0.68617455  0.42279737  1
  O  O514  1  0.41452185  0.68439377  0.67304339  1
  O  O515  1  0.41190737  0.68540680  0.92360255  1
  O  O516  1  0.91053316  0.01837323  0.17158165  1
  O  O517  1  0.91232794  0.01838006  0.42158735  1
  O  O518  1  0.91423746  0.01846104  0.67242946  1
  O  O519  1  0.91358552  0.01784463  0.92331767  1
  O  O520  1  0.91307823  0.35011306  0.17212818  1
  O  O521  1  0.91516675  0.35132728  0.42331492  1
  O  O522  1  0.91108852  0.35182097  0.67337366  1
  O  O523  1  0.91320520  0.35265401  0.92271131  1
  O  O524  1  0.91378878  0.68613059  0.17247852  1
  O  O525  1  0.91409871  0.68465195  0.42256612  1
  O  O526  1  0.91190849  0.68497528  0.67220150  1
  O  O527  1  0.91258073  0.68403655  0.92210926  1
  O  O528  1  0.16449671  0.01924985  0.20200937  1
  O  O529  1  0.16392381  0.01939797  0.45248345  1
  O  O530  1  0.16101739  0.01698149  0.70259530  1
  O  O531  1  0.16312879  0.01844527  0.95231790  1
  O  O532  1  0.16401593  0.35039595  0.20302596  1
  O  O533  1  0.16424864  0.35062532  0.45262852  1
  O  O534  1  0.16316376  0.35291122  0.70277994  1
  O  O535  1  0.16413049  0.35029375  0.95206315  1
  O  O536  1  0.16141358  0.68534613  0.20205110  1
  O  O537  1  0.16224810  0.68460115  0.45229724  1
  O  O538  1  0.16236244  0.68419329  0.70287728  1
  O  O539  1  0.16320262  0.68587159  0.95270796  1
  O  O540  1  0.66265240  0.01756102  0.20113589  1
  O  O541  1  0.66202147  0.01911782  0.45250828  1
  O  O542  1  0.66256699  0.01824027  0.70270670  1
  O  O543  1  0.66250444  0.01884051  0.95231268  1
  O  O544  1  0.66105745  0.35149987  0.20150792  1
  O  O545  1  0.66072693  0.35140595  0.45373118  1
  O  O546  1  0.66137011  0.35281293  0.70198810  1
  O  O547  1  0.66052528  0.35026538  0.95283280  1
  O  O548  1  0.66076701  0.68653063  0.20158908  1
  O  O549  1  0.66190543  0.68383413  0.45413040  1
  O  O550  1  0.66169645  0.68405809  0.70269028  1
  O  O551  1  0.66147271  0.68548254  0.95295083  1
  O  O552  1  0.33708135  0.31478158  0.04733695  1
  O  O553  1  0.33793072  0.31466649  0.29667349  1
  O  O554  1  0.33700070  0.31535480  0.54825254  1
  O  O555  1  0.33835126  0.31603837  0.79664535  1
  O  O556  1  0.33752092  0.64846578  0.04728761  1
  O  O557  1  0.33766265  0.64802422  0.29725373  1
  O  O558  1  0.33863374  0.64733602  0.54894956  1
  O  O559  1  0.33728845  0.64794932  0.79748463  1
  O  O560  1  0.33631614  0.98205567  0.04687717  1
  O  O561  1  0.33866877  0.98291623  0.29698130  1
  O  O562  1  0.33885756  0.98260176  0.54724359  1
  O  O563  1  0.33598065  0.98134592  0.79762287  1
  O  O564  1  0.83649919  0.31404081  0.04848622  1
  O  O565  1  0.83791772  0.31402894  0.29737722  1
  O  O566  1  0.83533287  0.31514857  0.54775265  1
  O  O567  1  0.83685869  0.31666333  0.79773210  1
  O  O568  1  0.83554001  0.64788158  0.04723889  1
  O  O569  1  0.83658038  0.64854156  0.29726235  1
  O  O570  1  0.83606991  0.64799971  0.54878995  1
  O  O571  1  0.83742604  0.64685459  0.79832205  1
  O  O572  1  0.83776046  0.98295506  0.04712360  1
  O  O573  1  0.83636513  0.98256057  0.29615127  1
  O  O574  1  0.83816981  0.98198412  0.54819754  1
  O  O575  1  0.83942603  0.98191676  0.79824294  1
  O  O576  1  0.41298029  0.14969667  0.17182331  1
  O  O577  1  0.40985605  0.14682305  0.42278754  1
  O  O578  1  0.41140257  0.14902413  0.67186249  1
  O  O579  1  0.41320996  0.14800549  0.92373042  1
  O  O580  1  0.41217425  0.48026568  0.17235118  1
  O  O581  1  0.41056219  0.48145373  0.42292733  1
  O  O582  1  0.41219097  0.48169543  0.67274093  1
  O  O583  1  0.41317953  0.48173949  0.92301365  1
  O  O584  1  0.41395067  0.81519461  0.17176473  1
  O  O585  1  0.41292966  0.81626406  0.42182213  1
  O  O586  1  0.41410275  0.81463238  0.67298991  1
  O  O587  1  0.41206236  0.81537828  0.92383587  1
  O  O588  1  0.91096034  0.14864022  0.17204980  1
  O  O589  1  0.91258366  0.14850939  0.42197202  1
  O  O590  1  0.91472054  0.14862675  0.67306884  1
  O  O591  1  0.91310025  0.14772117  0.92399248  1
  O  O592  1  0.91267540  0.48050550  0.17217819  1
  O  O593  1  0.91446861  0.48130181  0.42260580  1
  O  O594  1  0.91140706  0.48183944  0.67311216  1
  O  O595  1  0.91336208  0.48278568  0.92185966  1
  O  O596  1  0.91418568  0.81639807  0.17224183  1
  O  O597  1  0.91400158  0.81471128  0.42265818  1
  O  O598  1  0.91218294  0.81532287  0.67206529  1
  O  O599  1  0.91218533  0.81446088  0.92207730  1
  O  O600  1  0.08781947  0.18453076  0.07724085  1
  O  O601  1  0.09063223  0.18621298  0.32668238  1
  O  O602  1  0.08809244  0.18369027  0.57736648  1
  O  O603  1  0.08934343  0.18504698  0.82936030  1
  O  O604  1  0.08755346  0.51895596  0.07691340  1
  O  O605  1  0.08823249  0.51772636  0.32786061  1
  O  O606  1  0.08592119  0.51780972  0.57791585  1
  O  O607  1  0.08692443  0.51741170  0.82652018  1
  O  O608  1  0.08663866  0.85139258  0.07688343  1
  O  O609  1  0.08768556  0.85107627  0.32819660  1
  O  O610  1  0.08715864  0.85267642  0.57771592  1
  O  O611  1  0.08804684  0.85276112  0.82743617  1
  O  O612  1  0.58662951  0.18475527  0.07687928  1
  O  O613  1  0.58701056  0.18463045  0.32755130  1
  O  O614  1  0.58604095  0.18623823  0.57662825  1
  O  O615  1  0.58800760  0.18429388  0.82840019  1
  O  O616  1  0.58842437  0.51764977  0.07717837  1
  O  O617  1  0.58747373  0.51834236  0.32779674  1
  O  O618  1  0.58739410  0.51779934  0.57797376  1
  O  O619  1  0.58841825  0.51680083  0.82742385  1
  O  O620  1  0.58967661  0.85262195  0.07734628  1
  O  O621  1  0.58708556  0.85247012  0.32624979  1
  O  O622  1  0.58543584  0.85106008  0.57774504  1
  O  O623  1  0.58856548  0.85317128  0.82823844  1
  O  O624  1  0.33702353  0.18471128  0.04726677  1
  O  O625  1  0.33780038  0.18456239  0.29655385  1
  O  O626  1  0.33705409  0.18539486  0.54859099  1
  O  O627  1  0.33838702  0.18586470  0.79709524  1
  O  O628  1  0.33798674  0.51796255  0.04659271  1
  O  O629  1  0.33804947  0.51769438  0.29659446  1
  O  O630  1  0.33842109  0.51730017  0.54788219  1
  O  O631  1  0.33736494  0.51784862  0.79714312  1
  O  O632  1  0.33594566  0.85196915  0.04767087  1
  O  O633  1  0.33889291  0.85277675  0.29789620  1
  O  O634  1  0.33931511  0.85244248  0.54822589  1
  O  O635  1  0.33618168  0.85131616  0.79757580  1
  O  O636  1  0.83652382  0.18412751  0.04777837  1
  O  O637  1  0.83758394  0.18372899  0.29627192  1
  O  O638  1  0.83507946  0.18513687  0.54802151  1
  O  O639  1  0.83780584  0.18650152  0.79815152  1
  O  O640  1  0.83579250  0.51780436  0.04696497  1
  O  O641  1  0.83636197  0.51821547  0.29756141  1
  O  O642  1  0.83657042  0.51802581  0.54851960  1
  O  O643  1  0.83656206  0.51683759  0.79803198  1
  O  O644  1  0.83769507  0.85298097  0.04799079  1
  O  O645  1  0.83594461  0.85230769  0.29705963  1
  O  O646  1  0.83812044  0.85201290  0.54821510  1
  O  O647  1  0.83953389  0.85185784  0.79792925  1
  O  O648  1  0.16468358  0.14914289  0.20238355  1
  O  O649  1  0.16401646  0.14951403  0.45359545  1
  O  O650  1  0.16016203  0.14711916  0.70251004  1
  O  O651  1  0.16341030  0.14850401  0.95229953  1
  O  O652  1  0.16386779  0.48046268  0.20221371  1
  O  O653  1  0.16392230  0.48066040  0.45188641  1
  O  O654  1  0.16361248  0.48299556  0.70276426  1
  O  O655  1  0.16350528  0.48027799  0.95141684  1
  O  O656  1  0.16120367  0.81534083  0.20238363  1
  O  O657  1  0.16229837  0.81467832  0.45191861  1
  O  O658  1  0.16182399  0.81464817  0.70276530  1
  O  O659  1  0.16325549  0.81604535  0.95321798  1
  O  O660  1  0.66222082  0.14736752  0.20083905  1
  O  O661  1  0.66224521  0.14944681  0.45294455  1
  O  O662  1  0.66171082  0.14822977  0.70310503  1
  O  O663  1  0.66268235  0.14889410  0.95247003  1
  O  O664  1  0.66116712  0.48136451  0.20163545  1
  O  O665  1  0.66076214  0.48182936  0.45402702  1
  O  O666  1  0.66193055  0.48265024  0.70272989  1
  O  O667  1  0.65998806  0.48049768  0.95244081  1
  O  O668  1  0.66183413  0.81654095  0.20186164  1
  O  O669  1  0.66132854  0.81431982  0.45340250  1
  O  O670  1  0.66174413  0.81410397  0.70168010  1
  O  O671  1  0.66197877  0.81595624  0.95311778  1
