# generated using pymatgen
data_Na2MnFe(PO4)2
_symmetry_space_group_name_H-M   'P 1'
_cell_length_a   21.08280473
_cell_length_b   18.93501226
_cell_length_c   20.04212765
_cell_angle_alpha   90.00022393
_cell_angle_beta   90.00296049
_cell_angle_gamma   89.99947112
_symmetry_Int_Tables_number   1
_chemical_formula_structural   Na2MnFe(PO4)2
_chemical_formula_sum   'Na96 Mn48 Fe48 P96 O384'
_cell_volume   8000.88079669
_cell_formula_units_Z   48
loop_
 _symmetry_equiv_pos_site_id
 _symmetry_equiv_pos_as_xyz
  1  'x, y, z'
loop_
 _atom_site_type_symbol
 _atom_site_label
 _atom_site_symmetry_multiplicity
 _atom_site_fract_x
 _atom_site_fract_y
 _atom_site_fract_z
 _atom_site_occupancy
  Na  Na0  1  0.00010584  0.00130452  -0.00047231  1
  Na  Na1  1  0.00013944  0.00094831  0.24985679  1
  Na  Na2  1  -0.00331396  -0.00064291  0.50018478  1
  Na  Na3  1  -0.00341877  -0.00043961  0.74913633  1
  Na  Na4  1  -0.00091880  0.33277687  0.00058248  1
  Na  Na5  1  0.00013006  0.33376367  0.24992822  1
  Na  Na6  1  0.00012680  0.33330637  0.49976882  1
  Na  Na7  1  -0.00062533  0.33278938  0.75028702  1
  Na  Na8  1  -0.00148764  0.66639185  0.00015234  1
  Na  Na9  1  -0.00143296  0.66605912  0.25007480  1
  Na  Na10  1  0.00054197  0.66731936  0.49924628  1
  Na  Na11  1  -0.00039559  0.66710734  0.75015169  1
  Na  Na12  1  0.50045594  -0.00042864  0.00048686  1
  Na  Na13  1  0.50004096  0.00013746  0.25099510  1
  Na  Na14  1  0.50192558  0.00061612  0.50040496  1
  Na  Na15  1  0.50229356  0.00020650  0.74925459  1
  Na  Na16  1  0.50023671  0.33337272  -0.00087029  1
  Na  Na17  1  0.50033046  0.33365574  0.25067461  1
  Na  Na18  1  0.50132915  0.33365038  0.50072893  1
  Na  Na19  1  0.50192439  0.33375893  0.74957757  1
  Na  Na20  1  0.50011772  0.66723793  0.00095101  1
  Na  Na21  1  0.49937502  0.66581930  0.25016941  1
  Na  Na22  1  0.50067646  0.66643809  0.49883868  1
  Na  Na23  1  0.50098608  0.66725968  0.74985124  1
  Na  Na24  1  0.24818027  -0.00053663  0.12318562  1
  Na  Na25  1  0.25116213  0.00049981  0.37502328  1
  Na  Na26  1  0.25213523  0.00096852  0.62691082  1
  Na  Na27  1  0.24941294  -0.00022379  0.87490195  1
  Na  Na28  1  0.24625523  0.33233328  0.12462593  1
  Na  Na29  1  0.24923244  0.33293909  0.37495569  1
  Na  Na30  1  0.25209750  0.33393259  0.62487440  1
  Na  Na31  1  0.24938676  0.33357597  0.87643976  1
  Na  Na32  1  0.25131074  0.66684487  0.12539966  1
  Na  Na33  1  0.25022571  0.66639610  0.37571655  1
  Na  Na34  1  0.24810737  0.66603092  0.62396680  1
  Na  Na35  1  0.24978000  0.66655946  0.87414580  1
  Na  Na36  1  0.75159194  0.00069334  0.12458088  1
  Na  Na37  1  0.74938353  -0.00000318  0.37521976  1
  Na  Na38  1  0.75015865  0.00047093  0.62572163  1
  Na  Na39  1  0.75112631  0.00058719  0.87427208  1
  Na  Na40  1  0.75342930  0.33447951  0.12547813  1
  Na  Na41  1  0.74864620  0.33327719  0.37442567  1
  Na  Na42  1  0.74644456  0.33201332  0.62437305  1
  Na  Na43  1  0.75142998  0.33332198  0.87540954  1
  Na  Na44  1  0.75135074  0.66669909  0.12494886  1
  Na  Na45  1  0.75153626  0.66679914  0.37428036  1
  Na  Na46  1  0.75047058  0.66722513  0.62540514  1
  Na  Na47  1  0.75056666  0.66713343  0.87581113  1
  Na  Na48  1  -0.00118759  0.16727047  -0.00016735  1
  Na  Na49  1  -0.00003522  0.16637962  0.25005689  1
  Na  Na50  1  -0.00091013  0.16619557  0.50081723  1
  Na  Na51  1  -0.00078574  0.16620694  0.74925345  1
  Na  Na52  1  0.00045557  0.50010668  0.00034104  1
  Na  Na53  1  0.00044301  0.50046161  0.24977295  1
  Na  Na54  1  0.00065159  0.50042579  0.49927149  1
  Na  Na55  1  -0.00063188  0.50065740  0.75076728  1
  Na  Na56  1  -0.00312610  0.83400969  -0.00015978  1
  Na  Na57  1  -0.00214719  0.83303308  0.24993834  1
  Na  Na58  1  -0.00193589  0.83267673  0.49932740  1
  Na  Na59  1  -0.00221249  0.83324217  0.74973622  1
  Na  Na60  1  0.50177942  0.16600978  -0.00013360  1
  Na  Na61  1  0.50047735  0.16677657  0.25065084  1
  Na  Na62  1  0.50159334  0.16658304  0.50093410  1
  Na  Na63  1  0.50345935  0.16539846  0.74924462  1
  Na  Na64  1  0.49851778  0.50088425  0.00019448  1
  Na  Na65  1  0.49956467  0.50049964  0.25034554  1
  Na  Na66  1  0.50181253  0.49928367  0.49969558  1
  Na  Na67  1  0.50077089  0.49954967  0.74989189  1
  Na  Na68  1  0.49976438  0.83320162  0.00055883  1
  Na  Na69  1  0.49948811  0.83320480  0.25082552  1
  Na  Na70  1  0.50010684  0.83398884  0.49929337  1
  Na  Na71  1  0.50080661  0.83374103  0.74973374  1
  Na  Na72  1  0.24635991  0.16698879  0.12409869  1
  Na  Na73  1  0.24923518  0.16639817  0.37488437  1
  Na  Na74  1  0.24936463  0.16679939  0.62599036  1
  Na  Na75  1  0.24669622  0.16709935  0.87515680  1
  Na  Na76  1  0.24851138  0.50103282  0.12523807  1
  Na  Na77  1  0.25086282  0.50016123  0.37408838  1
  Na  Na78  1  0.25081168  0.50013864  0.62488846  1
  Na  Na79  1  0.24989374  0.49981758  0.87610902  1
  Na  Na80  1  0.25144862  0.83269515  0.12400711  1
  Na  Na81  1  0.25070535  0.83289991  0.37653004  1
  Na  Na82  1  0.25099338  0.83365857  0.62546460  1
  Na  Na83  1  0.25236545  0.83275272  0.87418103  1
  Na  Na84  1  0.75330488  0.16602769  0.12512202  1
  Na  Na85  1  0.75011693  0.16639288  0.37434190  1
  Na  Na86  1  0.74863105  0.16637278  0.62555417  1
  Na  Na87  1  0.75070089  0.16661708  0.87523520  1
  Na  Na88  1  0.75252244  0.49951939  0.12617180  1
  Na  Na89  1  0.74874435  0.50070322  0.37496481  1
  Na  Na90  1  0.74762043  0.50074272  0.62385167  1
  Na  Na91  1  0.75179434  0.49925500  0.87491015  1
  Na  Na92  1  0.75052856  0.83260167  0.12377921  1
  Na  Na93  1  0.75077144  0.83261990  0.37440126  1
  Na  Na94  1  0.75038985  0.83324337  0.62594501  1
  Na  Na95  1  0.75100629  0.83296656  0.87537153  1
  Mn  Mn96  1  0.35699521  0.08331683  0.25168506  1
  Mn  Mn97  1  0.10725519  0.41609637  0.87247145  1
  Mn  Mn98  1  0.10665667  0.08206512  0.62266650  1
  Mn  Mn99  1  0.64380479  0.25027129  0.99839135  1
  Mn  Mn100  1  0.14162208  0.91683944  0.74748639  1
  Mn  Mn101  1  0.14278127  0.25012853  0.49824653  1
  Mn  Mn102  1  0.39277293  0.58391916  0.62671222  1
  Mn  Mn103  1  0.35834232  0.08436342  0.75293715  1
  Mn  Mn104  1  0.35726808  0.08354440  0.00152740  1
  Mn  Mn105  1  0.14200873  0.58275988  0.74746101  1
  Mn  Mn106  1  0.10718171  0.75134905  0.87300953  1
  Mn  Mn107  1  0.64284508  0.91693069  0.99758457  1
  Mn  Mn108  1  0.39220607  0.58440341  0.87737584  1
  Mn  Mn109  1  0.64228213  0.58319039  0.74792777  1
  Mn  Mn110  1  0.89196858  0.58326602  0.62640608  1
  Mn  Mn111  1  0.60823255  0.74965892  0.37229078  1
  Mn  Mn112  1  0.35689020  0.41657141  0.00269934  1
  Mn  Mn113  1  0.89208165  0.91686229  0.12748273  1
  Mn  Mn114  1  0.89104924  0.25023742  0.62720207  1
  Mn  Mn115  1  0.35765581  0.75025893  0.50274569  1
  Mn  Mn116  1  0.10765914  0.75010263  0.12256537  1
  Mn  Mn117  1  0.10717905  0.75030492  0.37240538  1
  Mn  Mn118  1  0.39264279  0.24883919  0.87697463  1
  Mn  Mn119  1  0.35810783  0.74950394  0.75189330  1
  Mn  Mn120  1  0.35680295  0.41648860  0.25176126  1
  Mn  Mn121  1  0.14200474  0.91618600  0.24767856  1
  Mn  Mn122  1  0.89101273  0.91625902  0.37765389  1
  Mn  Mn123  1  0.64284185  0.58275575  0.99857123  1
  Mn  Mn124  1  0.39250151  0.91725403  0.37776972  1
  Mn  Mn125  1  0.10810107  0.41678162  0.37284165  1
  Mn  Mn126  1  0.14183673  0.91566756  0.99675646  1
  Mn  Mn127  1  0.10768795  0.08291506  0.37370266  1
  Mn  Mn128  1  0.64274627  0.91590499  0.24738277  1
  Mn  Mn129  1  0.39114979  0.25016148  0.12695464  1
  Mn  Mn130  1  0.39234016  0.25029336  0.37698242  1
  Mn  Mn131  1  0.60838519  0.41700172  0.12271674  1
  Mn  Mn132  1  0.14201497  0.91695910  0.49871754  1
  Mn  Mn133  1  0.39200269  0.91672454  0.12745265  1
  Mn  Mn134  1  0.39341290  0.24945359  0.62782271  1
  Mn  Mn135  1  0.60882577  0.74982273  0.62226511  1
  Mn  Mn136  1  0.89192241  0.58308708  0.87778109  1
  Mn  Mn137  1  0.60878127  0.08321319  0.12290149  1
  Mn  Mn138  1  0.64309553  0.25047957  0.24689825  1
  Mn  Mn139  1  0.10860673  0.41731232  0.62261412  1
  Mn  Mn140  1  0.85723325  0.41637896  0.75136044  1
  Mn  Mn141  1  0.89203888  0.25062219  0.37761316  1
  Mn  Mn142  1  0.60860673  0.41672064  0.87313830  1
  Mn  Mn143  1  0.85644598  0.41649888  0.50254419  1
  Fe  Fe144  1  0.39394770  0.91698668  0.87581284  1
  Fe  Fe145  1  0.64331623  0.91673734  0.74848300  1
  Fe  Fe146  1  0.85872041  0.41687706  0.00246004  1
  Fe  Fe147  1  0.39239171  0.58323495  0.12716281  1
  Fe  Fe148  1  0.10618807  0.75050219  0.62357067  1
  Fe  Fe149  1  0.14214145  0.25041988  0.74853090  1
  Fe  Fe150  1  0.10624991  0.41684803  0.12362008  1
  Fe  Fe151  1  0.85711967  0.75019376  0.75214592  1
  Fe  Fe152  1  0.14268636  0.58398773  0.99895586  1
  Fe  Fe153  1  0.85581241  0.08308414  0.50152634  1
  Fe  Fe154  1  0.60737400  0.41659224  0.62289799  1
  Fe  Fe155  1  0.35864114  0.08378500  0.50199867  1
  Fe  Fe156  1  0.64227750  0.24973147  0.49751873  1
  Fe  Fe157  1  0.85796654  0.08352566  0.00169694  1
  Fe  Fe158  1  0.35817147  0.41635886  0.50153767  1
  Fe  Fe159  1  0.64298767  0.24966016  0.74915913  1
  Fe  Fe160  1  0.64271723  0.58382673  0.49724530  1
  Fe  Fe161  1  0.85791487  0.41737700  0.25265073  1
  Fe  Fe162  1  0.39307014  0.58266640  0.37667848  1
  Fe  Fe163  1  0.64330304  0.91639295  0.49876692  1
  Fe  Fe164  1  0.85804635  0.08321841  0.25223025  1
  Fe  Fe165  1  0.35756143  0.74992106  0.25155007  1
  Fe  Fe166  1  0.85681909  0.75011347  0.50189200  1
  Fe  Fe167  1  0.14285833  0.58360223  0.24809113  1
  Fe  Fe168  1  0.14082782  0.25026751  0.99754042  1
  Fe  Fe169  1  0.10551263  0.08300585  0.87307765  1
  Fe  Fe170  1  0.14299016  0.58309593  0.49784500  1
  Fe  Fe171  1  0.60776696  0.08388458  0.37324108  1
  Fe  Fe172  1  0.60830744  0.08317322  0.62269543  1
  Fe  Fe173  1  0.89389070  0.25051962  0.12701463  1
  Fe  Fe174  1  0.60774544  0.75054085  0.87399706  1
  Fe  Fe175  1  0.14153915  0.25005114  0.24802222  1
  Fe  Fe176  1  0.89258583  0.58294066  0.37688027  1
  Fe  Fe177  1  0.85695426  0.74950536  0.00223328  1
  Fe  Fe178  1  0.35807394  0.41625335  0.75156870  1
  Fe  Fe179  1  0.10636999  0.08348171  0.12308042  1
  Fe  Fe180  1  0.85618205  0.08353604  0.75196095  1
  Fe  Fe181  1  0.39408443  0.91692254  0.62664008  1
  Fe  Fe182  1  0.89100353  0.91608340  0.62674825  1
  Fe  Fe183  1  0.89229354  0.24964357  0.87654618  1
  Fe  Fe184  1  0.60700793  0.74958166  0.12359914  1
  Fe  Fe185  1  0.85694697  0.74946093  0.25120842  1
  Fe  Fe186  1  0.89170900  0.91727876  0.87651745  1
  Fe  Fe187  1  0.89314270  0.58286960  0.12726906  1
  Fe  Fe188  1  0.35818828  0.74969776  0.00157937  1
  Fe  Fe189  1  0.64334920  0.58346539  0.24800641  1
  Fe  Fe190  1  0.60877665  0.08266990  0.87360625  1
  Fe  Fe191  1  0.60718275  0.41655178  0.37297326  1
  P  P192  1  0.05379859  0.25021956  0.11091056  1
  P  P193  1  0.05375343  0.24973460  0.35965773  1
  P  P194  1  0.05385353  0.24991742  0.61093935  1
  P  P195  1  0.05299249  0.24895659  0.86035259  1
  P  P196  1  0.05382816  0.58310029  0.11088405  1
  P  P197  1  0.05403552  0.58347444  0.36009426  1
  P  P198  1  0.05388251  0.58450253  0.60905965  1
  P  P199  1  0.05415854  0.58397575  0.86130268  1
  P  P200  1  0.05296319  0.91697642  0.10965050  1
  P  P201  1  0.05235108  0.91661763  0.35992063  1
  P  P202  1  0.05062259  0.91570315  0.60991627  1
  P  P203  1  0.05098028  0.91749577  0.85961650  1
  P  P204  1  0.55326295  0.25037646  0.10963742  1
  P  P205  1  0.55515966  0.25000337  0.36118553  1
  P  P206  1  0.55626909  0.24985419  0.61096940  1
  P  P207  1  0.55477830  0.24910168  0.85960178  1
  P  P208  1  0.55342859  0.58404278  0.11149269  1
  P  P209  1  0.55461025  0.58252128  0.36010980  1
  P  P210  1  0.55451748  0.58279179  0.60899539  1
  P  P211  1  0.55361919  0.58440010  0.86047980  1
  P  P212  1  0.55376827  0.91542118  0.11036927  1
  P  P213  1  0.55537025  0.91749709  0.36140622  1
  P  P214  1  0.55523788  0.91711713  0.61048339  1
  P  P215  1  0.55398360  0.91639935  0.85971577  1
  P  P216  1  0.44704584  0.08348398  0.14027002  1
  P  P217  1  0.44765920  0.08391978  0.39086778  1
  P  P218  1  0.44762320  0.08255809  0.63900913  1
  P  P219  1  0.44892411  0.08238177  0.88976450  1
  P  P220  1  0.44659843  0.41724826  0.14020184  1
  P  P221  1  0.44720222  0.41725706  0.39023812  1
  P  P222  1  0.44668761  0.41669303  0.63930131  1
  P  P223  1  0.44573025  0.41639108  0.88911155  1
  P  P224  1  0.44588469  0.74920042  0.13988835  1
  P  P225  1  0.44549193  0.74895832  0.38877674  1
  P  P226  1  0.44750022  0.75094503  0.63960050  1
  P  P227  1  0.44775516  0.75125789  0.89033615  1
  P  P228  1  0.94596956  0.08426903  0.13924122  1
  P  P229  1  0.94447277  0.08346884  0.39023192  1
  P  P230  1  0.94305483  0.08252643  0.63924038  1
  P  P231  1  0.94487431  0.08358867  0.88872475  1
  P  P232  1  0.94602181  0.41694933  0.13960791  1
  P  P233  1  0.94555795  0.41775198  0.38929267  1
  P  P234  1  0.94707130  0.41699692  0.63996628  1
  P  P235  1  0.94578778  0.41560082  0.89058942  1
  P  P236  1  0.94478852  0.74897100  0.13948939  1
  P  P237  1  0.94393767  0.74861727  0.38927184  1
  P  P238  1  0.94489639  0.75026505  0.63923190  1
  P  P239  1  0.94412537  0.75094036  0.88960382  1
  P  P240  1  0.19523065  0.08358730  0.23412986  1
  P  P241  1  0.19839528  0.08294565  0.48573717  1
  P  P242  1  0.19468647  0.08407718  0.73653366  1
  P  P243  1  0.19340878  0.08367797  0.98489967  1
  P  P244  1  0.19515116  0.41703911  0.23445496  1
  P  P245  1  0.19837735  0.41745400  0.48490057  1
  P  P246  1  0.19800404  0.41560782  0.73521899  1
  P  P247  1  0.19394394  0.41735504  0.98684897  1
  P  P248  1  0.19784450  0.74918562  0.23512730  1
  P  P249  1  0.19487205  0.74974958  0.48651992  1
  P  P250  1  0.19574890  0.75033995  0.73400811  1
  P  P251  1  0.19813589  0.74895212  0.98471658  1
  P  P252  1  0.69772258  0.08338329  0.23588619  1
  P  P253  1  0.69570928  0.08298166  0.48576968  1
  P  P254  1  0.69565579  0.08302727  0.73618644  1
  P  P255  1  0.69834754  0.08355338  0.98457699  1
  P  P256  1  0.69715369  0.41783055  0.23623026  1
  P  P257  1  0.69423812  0.41670133  0.48513978  1
  P  P258  1  0.69598040  0.41571762  0.73432631  1
  P  P259  1  0.69930061  0.41681827  0.98556788  1
  P  P260  1  0.69733151  0.74867495  0.23424466  1
  P  P261  1  0.69790335  0.75029900  0.48481144  1
  P  P262  1  0.69671129  0.75096891  0.73680728  1
  P  P263  1  0.69624787  0.74963197  0.98595124  1
  P  P264  1  0.30091054  0.24957325  0.01474230  1
  P  P265  1  0.30107962  0.24995117  0.26470911  1
  P  P266  1  0.30439414  0.24986301  0.51514099  1
  P  P267  1  0.30230694  0.25069504  0.76552447  1
  P  P268  1  0.30311923  0.58415319  0.01563170  1
  P  P269  1  0.30425952  0.58397615  0.26444014  1
  P  P270  1  0.30391030  0.58233926  0.51358640  1
  P  P271  1  0.30350681  0.58240137  0.76479645  1
  P  P272  1  0.30495449  0.91607826  0.01294100  1
  P  P273  1  0.30320507  0.91580034  0.26513456  1
  P  P274  1  0.30441475  0.91794846  0.51647147  1
  P  P275  1  0.30553027  0.91703143  0.76462074  1
  P  P276  1  0.80639347  0.24989972  0.01462183  1
  P  P277  1  0.80562152  0.25046251  0.26367986  1
  P  P278  1  0.80119465  0.24939858  0.51466919  1
  P  P279  1  0.80250336  0.24928748  0.76529437  1
  P  P280  1  0.80453142  0.58311022  0.01601956  1
  P  P281  1  0.80467637  0.58324257  0.26432771  1
  P  P282  1  0.80271136  0.58390086  0.51345134  1
  P  P283  1  0.80333994  0.58383329  0.76486190  1
  P  P284  1  0.80497568  0.91698061  0.01346929  1
  P  P285  1  0.80358491  0.91628260  0.26463043  1
  P  P286  1  0.80230534  0.91649872  0.51550580  1
  P  P287  1  0.80391861  0.91684065  0.76428524  1
  O  O288  1  0.05791595  0.25008816  0.18764542  1
  O  O289  1  0.05704534  0.24971139  0.43649687  1
  O  O290  1  0.05816900  0.25024873  0.68770601  1
  O  O291  1  0.05730640  0.24994748  0.93714208  1
  O  O292  1  0.05861824  0.58418936  0.18758107  1
  O  O293  1  0.05918707  0.58330749  0.43676425  1
  O  O294  1  0.05650267  0.58338048  0.68593524  1
  O  O295  1  0.05844463  0.58419536  0.93804899  1
  O  O296  1  0.05596242  0.91601051  0.18642384  1
  O  O297  1  0.05582030  0.91642448  0.43668390  1
  O  O298  1  0.05473652  0.91653708  0.68657519  1
  O  O299  1  0.05514869  0.91654076  0.93629719  1
  O  O300  1  0.55678325  0.25057074  0.18646737  1
  O  O301  1  0.55881740  0.24981543  0.43802114  1
  O  O302  1  0.56003306  0.24967114  0.68773538  1
  O  O303  1  0.55790541  0.24982841  0.93639583  1
  O  O304  1  0.55856144  0.58320157  0.18813052  1
  O  O305  1  0.55949667  0.58381468  0.43682453  1
  O  O306  1  0.55728739  0.58374916  0.68582424  1
  O  O307  1  0.55662865  0.58364127  0.93727355  1
  O  O308  1  0.55681865  0.91607529  0.18717628  1
  O  O309  1  0.55972249  0.91650486  0.43815747  1
  O  O310  1  0.55985025  0.91640831  0.68718862  1
  O  O311  1  0.55715751  0.91646164  0.93648596  1
  O  O312  1  0.44333134  0.08347257  0.06350368  1
  O  O313  1  0.44309665  0.08376169  0.31418960  1
  O  O314  1  0.44266347  0.08351357  0.56239763  1
  O  O315  1  0.44511508  0.08342175  0.81305712  1
  O  O316  1  0.44310628  0.41665374  0.06339667  1
  O  O317  1  0.44288421  0.41672255  0.31357321  1
  O  O318  1  0.44183670  0.41653516  0.56260215  1
  O  O319  1  0.44163250  0.41611237  0.81229073  1
  O  O320  1  0.44151516  0.74967429  0.06315111  1
  O  O321  1  0.44137708  0.74946639  0.31201646  1
  O  O322  1  0.44415963  0.75020546  0.56283249  1
  O  O323  1  0.44412575  0.75008126  0.81363033  1
  O  O324  1  0.94164609  0.08345504  0.06251381  1
  O  O325  1  0.94075666  0.08335591  0.31336120  1
  O  O326  1  0.93867685  0.08353492  0.56244789  1
  O  O327  1  0.94035787  0.08366472  0.81199955  1
  O  O328  1  0.94208512  0.41716736  0.06285656  1
  O  O329  1  0.94164651  0.41732447  0.31248800  1
  O  O330  1  0.94327190  0.41672666  0.56318076  1
  O  O331  1  0.94258896  0.41646915  0.81380588  1
  O  O332  1  0.94072670  0.74958622  0.06271096  1
  O  O333  1  0.93987966  0.74947730  0.31250539  1
  O  O334  1  0.94025467  0.74973801  0.56245793  1
  O  O335  1  0.94027417  0.74995202  0.81274769  1
  O  O336  1  0.18912807  0.08296895  0.06168938  1
  O  O337  1  0.19286771  0.08279996  0.31097668  1
  O  O338  1  0.19387798  0.08256047  0.56242252  1
  O  O339  1  0.18967340  0.08270278  0.81321932  1
  O  O340  1  0.18975600  0.41702186  0.06357040  1
  O  O341  1  0.19326466  0.41706913  0.31129260  1
  O  O342  1  0.19486554  0.41717690  0.56161185  1
  O  O343  1  0.19385803  0.41630256  0.81194116  1
  O  O344  1  0.19411229  0.74998051  0.06139624  1
  O  O345  1  0.19390306  0.74971699  0.31183724  1
  O  O346  1  0.19036544  0.75079069  0.56318582  1
  O  O347  1  0.19259547  0.75080791  0.81083143  1
  O  O348  1  0.69462550  0.08336011  0.06131702  1
  O  O349  1  0.69244924  0.08358050  0.31251243  1
  O  O350  1  0.69181166  0.08310437  0.56259100  1
  O  O351  1  0.69171921  0.08283102  0.81292678  1
  O  O352  1  0.69517504  0.41693928  0.06226817  1
  O  O353  1  0.69175589  0.41712047  0.31281689  1
  O  O354  1  0.69068107  0.41678122  0.56195757  1
  O  O355  1  0.69398388  0.41663740  0.81117630  1
  O  O356  1  0.69124136  0.74968754  0.06260314  1
  O  O357  1  0.69374168  0.74926919  0.31090694  1
  O  O358  1  0.69463511  0.75001815  0.56159717  1
  O  O359  1  0.69204324  0.75050213  0.81343807  1
  O  O360  1  0.30467439  0.24996668  0.18801952  1
  O  O361  1  0.30677492  0.24954470  0.43831739  1
  O  O362  1  0.30689867  0.24961605  0.68884513  1
  O  O363  1  0.30590351  0.24932125  0.93813302  1
  O  O364  1  0.30885980  0.58329632  0.18772895  1
  O  O365  1  0.30874114  0.58292518  0.43689994  1
  O  O366  1  0.30671947  0.58343713  0.68801582  1
  O  O367  1  0.30664748  0.58352727  0.93887456  1
  O  O368  1  0.30583936  0.91649760  0.18830541  1
  O  O369  1  0.30729263  0.91714961  0.43958014  1
  O  O370  1  0.31041517  0.91729135  0.68793579  1
  O  O371  1  0.30972142  0.91697839  0.93624573  1
  O  O372  1  0.80997095  0.25050833  0.18690907  1
  O  O373  1  0.80531146  0.25019690  0.43801076  1
  O  O374  1  0.80538622  0.24990565  0.68855209  1
  O  O375  1  0.80933827  0.24989143  0.93777008  1
  O  O376  1  0.80926841  0.58275553  0.18763266  1
  O  O377  1  0.80749426  0.58306581  0.43686365  1
  O  O378  1  0.80597138  0.58344532  0.68805468  1
  O  O379  1  0.80674203  0.58299603  0.93923245  1
  O  O380  1  0.80622786  0.91658564  0.18780417  1
  O  O381  1  0.80540615  0.91643235  0.43879287  1
  O  O382  1  0.80769185  0.91644575  0.68753247  1
  O  O383  1  0.80813846  0.91727815  0.93668166  1
  O  O384  1  0.23047569  0.24983850  0.03804839  1
  O  O385  1  0.23105592  0.25015786  0.28932497  1
  O  O386  1  0.23489166  0.25014380  0.54095510  1
  O  O387  1  0.23219067  0.25028320  0.78978582  1
  O  O388  1  0.23304023  0.58378298  0.04018487  1
  O  O389  1  0.23379432  0.58310676  0.28794122  1
  O  O390  1  0.23362109  0.58297543  0.53744489  1
  O  O391  1  0.23382820  0.58283373  0.78998289  1
  O  O392  1  0.23478969  0.91604646  0.03679103  1
  O  O393  1  0.23373270  0.91615938  0.29094934  1
  O  O394  1  0.23469665  0.91730727  0.54163455  1
  O  O395  1  0.23518890  0.91661984  0.78801196  1
  O  O396  1  0.73660381  0.25003159  0.03984752  1
  O  O397  1  0.73559080  0.25033248  0.28781009  1
  O  O398  1  0.73103526  0.24937114  0.53882460  1
  O  O399  1  0.73258754  0.24957185  0.79030345  1
  O  O400  1  0.73496443  0.58304170  0.04168925  1
  O  O401  1  0.73426013  0.58352964  0.28802207  1
  O  O402  1  0.73236653  0.58374684  0.53726932  1
  O  O403  1  0.73385078  0.58335135  0.79060380  1
  O  O404  1  0.73523438  0.91670176  0.03862330  1
  O  O405  1  0.73409432  0.91610565  0.29030911  1
  O  O406  1  0.73233740  0.91670423  0.54053698  1
  O  O407  1  0.73369120  0.91710139  0.78860693  1
  O  O408  1  0.26477809  0.08307618  0.20834265  1
  O  O409  1  0.26848026  0.08344442  0.46139789  1
  O  O410  1  0.26498103  0.08396748  0.71313125  1
  O  O411  1  0.26359380  0.08326488  0.96096851  1
  O  O412  1  0.26466706  0.41688552  0.20860770  1
  O  O413  1  0.26825746  0.41655762  0.45980435  1
  O  O414  1  0.26801753  0.41625581  0.71062287  1
  O  O415  1  0.26397794  0.41710701  0.96258956  1
  O  O416  1  0.26786729  0.74947853  0.21056057  1
  O  O417  1  0.26502953  0.74977885  0.46263907  1
  O  O418  1  0.26561230  0.74999571  0.70932273  1
  O  O419  1  0.26817687  0.74932315  0.96010568  1
  O  O420  1  0.76815435  0.08337607  0.21243714  1
  O  O421  1  0.76603343  0.08305389  0.46165509  1
  O  O422  1  0.76601225  0.08314234  0.71226164  1
  O  O423  1  0.76844743  0.08366125  0.96032475  1
  O  O424  1  0.76768411  0.41755663  0.21311490  1
  O  O425  1  0.76422634  0.41682187  0.46061356  1
  O  O426  1  0.76540330  0.41642878  0.70822763  1
  O  O427  1  0.76941284  0.41664845  0.96139826  1
  O  O428  1  0.76750221  0.74921535  0.20999017  1
  O  O429  1  0.76784132  0.75023728  0.45988667  1
  O  O430  1  0.76699091  0.75068334  0.71279283  1
  O  O431  1  0.76676366  0.74968587  0.96279783  1
  O  O432  1  0.01635803  0.08381161  0.16292988  1
  O  O433  1  0.01440199  0.08313690  0.41469570  1
  O  O434  1  0.01321262  0.08286155  0.66304627  1
  O  O435  1  0.01517137  0.08389031  0.91273085  1
  O  O436  1  0.01638416  0.41686378  0.16356290  1
  O  O437  1  0.01552525  0.41702689  0.41361634  1
  O  O438  1  0.01671749  0.41713684  0.66504241  1
  O  O439  1  0.01554558  0.41618416  0.91547546  1
  O  O440  1  0.01480287  0.74953952  0.16373527  1
  O  O441  1  0.01404629  0.74967653  0.41314677  1
  O  O442  1  0.01520112  0.74997716  0.66309888  1
  O  O443  1  0.01411632  0.75054912  0.91403357  1
  O  O444  1  0.51682689  0.08330247  0.16516163  1
  O  O445  1  0.51794211  0.08385308  0.41467342  1
  O  O446  1  0.51816902  0.08295488  0.66222061  1
  O  O447  1  0.51904398  0.08250731  0.91429768  1
  O  O448  1  0.51629379  0.41718764  0.16529483  1
  O  O449  1  0.51747057  0.41674169  0.41410647  1
  O  O450  1  0.51721482  0.41646229  0.66251572  1
  O  O451  1  0.51577219  0.41676577  0.91342637  1
  O  O452  1  0.51615632  0.74957482  0.16403677  1
  O  O453  1  0.51556631  0.74967656  0.41290735  1
  O  O454  1  0.51724494  0.75046439  0.66452564  1
  O  O455  1  0.51783464  0.75081958  0.91499364  1
  O  O456  1  0.48366218  0.25008188  0.08440277  1
  O  O457  1  0.48523220  0.25023411  0.33650959  1
  O  O458  1  0.48618932  0.24992831  0.58673569  1
  O  O459  1  0.48513119  0.24943006  0.83417603  1
  O  O460  1  0.48309942  0.58395038  0.08775907  1
  O  O461  1  0.48408746  0.58281642  0.33692749  1
  O  O462  1  0.48485245  0.58331274  0.58377909  1
  O  O463  1  0.48405853  0.58394004  0.83493681  1
  O  O464  1  0.48416108  0.91611109  0.08521328  1
  O  O465  1  0.48528996  0.91701527  0.33733096  1
  O  O466  1  0.48496981  0.91697514  0.58655756  1
  O  O467  1  0.48405129  0.91671249  0.83466327  1
  O  O468  1  0.98337516  0.25035802  0.08708375  1
  O  O469  1  0.98397947  0.25009359  0.33493416  1
  O  O470  1  0.98380613  0.24963235  0.58673623  1
  O  O471  1  0.98259842  0.24927980  0.83662897  1
  O  O472  1  0.98333150  0.58323433  0.08749361  1
  O  O473  1  0.98359086  0.58341920  0.33682122  1
  O  O474  1  0.98422412  0.58384008  0.58372704  1
  O  O475  1  0.98410258  0.58379597  0.83714951  1
  O  O476  1  0.98324668  0.91721057  0.08455871  1
  O  O477  1  0.98260323  0.91676023  0.33506980  1
  O  O478  1  0.98048081  0.91600798  0.58556188  1
  O  O479  1  0.98084573  0.91699835  0.83536569  1
  O  O480  1  0.08698772  0.31541464  0.07767893  1
  O  O481  1  0.08802993  0.31468739  0.32713700  1
  O  O482  1  0.08733694  0.31500236  0.57778251  1
  O  O483  1  0.08668695  0.31383981  0.82687594  1
  O  O484  1  0.08723429  0.64786826  0.07687855  1
  O  O485  1  0.08733485  0.64846540  0.32650135  1
  O  O486  1  0.08770020  0.64995619  0.57721121  1
  O  O487  1  0.08750960  0.64895744  0.82807862  1
  O  O488  1  0.08703394  0.98207985  0.07760257  1
  O  O489  1  0.08646463  0.98169728  0.32770832  1
  O  O490  1  0.08437811  0.98073682  0.57680781  1
  O  O491  1  0.08432672  0.98274694  0.82690340  1
  O  O492  1  0.58736341  0.31550227  0.07720593  1
  O  O493  1  0.58887654  0.31521307  0.32846038  1
  O  O494  1  0.58980887  0.31495727  0.57790755  1
  O  O495  1  0.58932946  0.31400060  0.82710623  1
  O  O496  1  0.58672828  0.64931651  0.07856216  1
  O  O497  1  0.58812320  0.64727916  0.32624305  1
  O  O498  1  0.58909421  0.64761065  0.57624148  1
  O  O499  1  0.58752316  0.64979147  0.82846189  1
  O  O500  1  0.58837701  0.98020990  0.07783004  1
  O  O501  1  0.58857759  0.98296572  0.32877375  1
  O  O502  1  0.58879745  0.98223644  0.57756338  1
  O  O503  1  0.58838770  0.98126156  0.82712522  1
  O  O504  1  0.41311500  0.01833048  0.17280243  1
  O  O505  1  0.41395013  0.01898068  0.42409174  1
  O  O506  1  0.41466985  0.01737873  0.67220139  1
  O  O507  1  0.41508080  0.01719137  0.92200576  1
  O  O508  1  0.41250662  0.35220667  0.17284866  1
  O  O509  1  0.41333547  0.35236582  0.42342880  1
  O  O510  1  0.41333019  0.35178677  0.67298841  1
  O  O511  1  0.41224901  0.35127781  0.92222164  1
  O  O512  1  0.41234661  0.68410182  0.17291465  1
  O  O513  1  0.41240632  0.68351516  0.42159815  1
  O  O514  1  0.41338921  0.68593064  0.67226110  1
  O  O515  1  0.41353142  0.68655117  0.92366374  1
  O  O516  1  0.91236504  0.01945446  0.17292490  1
  O  O517  1  0.91017833  0.01864413  0.42298802  1
  O  O518  1  0.90964446  0.01720236  0.67191107  1
  O  O519  1  0.91168436  0.01843674  0.92207114  1
  O  O520  1  0.91252624  0.35190025  0.17266843  1
  O  O521  1  0.91164608  0.35291197  0.42244980  1
  O  O522  1  0.91292972  0.35193950  0.67244158  1
  O  O523  1  0.91206958  0.35020371  0.92270005  1
  O  O524  1  0.91134403  0.68379445  0.17244793  1
  O  O525  1  0.91101499  0.68313999  0.42223070  1
  O  O526  1  0.91139543  0.68532174  0.67269697  1
  O  O527  1  0.91019413  0.68616908  0.92300521  1
  O  O528  1  0.16045792  0.01887590  0.20155457  1
  O  O529  1  0.16474332  0.01790872  0.45266105  1
  O  O530  1  0.16146793  0.01912425  0.70258069  1
  O  O531  1  0.15960548  0.01881542  0.95142286  1
  O  O532  1  0.16037183  0.35208940  0.20253678  1
  O  O533  1  0.16387076  0.35250398  0.45259920  1
  O  O534  1  0.16435640  0.35040869  0.70263664  1
  O  O535  1  0.16030361  0.35233360  0.95358484  1
  O  O536  1  0.16414545  0.68396276  0.20251799  1
  O  O537  1  0.16158796  0.68445013  0.45354919  1
  O  O538  1  0.16134325  0.68536854  0.70181418  1
  O  O539  1  0.16429465  0.68364493  0.95262418  1
  O  O540  1  0.66463749  0.01822512  0.20252963  1
  O  O541  1  0.66246887  0.01774081  0.45285141  1
  O  O542  1  0.66236657  0.01793502  0.70279829  1
  O  O543  1  0.66450824  0.01855874  0.95162449  1
  O  O544  1  0.66415617  0.35294039  0.20224589  1
  O  O545  1  0.66064573  0.35149767  0.45227309  1
  O  O546  1  0.66188183  0.35026490  0.70279359  1
  O  O547  1  0.66547785  0.35184268  0.95279758  1
  O  O548  1  0.66365964  0.68344273  0.20166102  1
  O  O549  1  0.66386779  0.68545056  0.45192257  1
  O  O550  1  0.66336116  0.68606560  0.70315799  1
  O  O551  1  0.66300588  0.68465980  0.95250687  1
  O  O552  1  0.33433765  0.31464305  0.04790262  1
  O  O553  1  0.33514785  0.31496477  0.29736719  1
  O  O554  1  0.33882135  0.31516051  0.54685903  1
  O  O555  1  0.33597193  0.31589697  0.79792457  1
  O  O556  1  0.33716887  0.64932258  0.04791165  1
  O  O557  1  0.33738986  0.64911851  0.29769422  1
  O  O558  1  0.33740336  0.64721677  0.54723360  1
  O  O559  1  0.33761487  0.64755583  0.79739255  1
  O  O560  1  0.33810285  0.98111752  0.04664482  1
  O  O561  1  0.33769954  0.98084931  0.29740685  1
  O  O562  1  0.33861780  0.98314105  0.54849242  1
  O  O563  1  0.33887201  0.98201456  0.79823826  1
  O  O564  1  0.84052748  0.31488576  0.04735815  1
  O  O565  1  0.83883115  0.31576446  0.29682481  1
  O  O566  1  0.83470080  0.31446494  0.54788199  1
  O  O567  1  0.83696568  0.31407375  0.79789641  1
  O  O568  1  0.83880250  0.64832875  0.04806713  1
  O  O569  1  0.83806645  0.64845639  0.29722923  1
  O  O570  1  0.83595202  0.64909564  0.54653434  1
  O  O571  1  0.83737462  0.64894874  0.79711116  1
  O  O572  1  0.83861857  0.98220578  0.04623915  1
  O  O573  1  0.83771542  0.98128898  0.29706775  1
  O  O574  1  0.83635112  0.98150052  0.54804819  1
  O  O575  1  0.83756402  0.98205605  0.79708368  1
  O  O576  1  0.41308691  0.14858419  0.17284229  1
  O  O577  1  0.41402051  0.14901823  0.42383200  1
  O  O578  1  0.41444619  0.14744155  0.67301506  1
  O  O579  1  0.41493407  0.14726839  0.92285294  1
  O  O580  1  0.41253896  0.48247618  0.17236088  1
  O  O581  1  0.41376283  0.48249384  0.42313234  1
  O  O582  1  0.41355868  0.48181628  0.67260649  1
  O  O583  1  0.41190523  0.48145543  0.92189759  1
  O  O584  1  0.41212704  0.81411121  0.17320816  1
  O  O585  1  0.41165215  0.81382748  0.42192482  1
  O  O586  1  0.41376543  0.81617871  0.67186627  1
  O  O587  1  0.41402545  0.81658183  0.92255490  1
  O  O588  1  0.91284196  0.14945590  0.17233773  1
  O  O589  1  0.91075762  0.14851019  0.42320353  1
  O  O590  1  0.90932486  0.14727892  0.67292984  1
  O  O591  1  0.91146868  0.14856424  0.92212267  1
  O  O592  1  0.91265506  0.48197803  0.17301029  1
  O  O593  1  0.91222543  0.48307352  0.42202163  1
  O  O594  1  0.91296913  0.48211111  0.67225934  1
  O  O595  1  0.91144069  0.48037165  0.92360072  1
  O  O596  1  0.91066141  0.81378566  0.17259556  1
  O  O597  1  0.90969024  0.81317325  0.42280389  1
  O  O598  1  0.91134673  0.81537044  0.67227663  1
  O  O599  1  0.91046849  0.81623050  0.92195993  1
  O  O600  1  0.08689846  0.18519820  0.07733746  1
  O  O601  1  0.08766967  0.18462868  0.32715421  1
  O  O602  1  0.08745158  0.18476297  0.57808318  1
  O  O603  1  0.08634105  0.18390711  0.82735260  1
  O  O604  1  0.08699846  0.51785524  0.07794727  1
  O  O605  1  0.08752455  0.51857298  0.32665714  1
  O  O606  1  0.08873597  0.51983277  0.57635110  1
  O  O607  1  0.08751096  0.51871979  0.82826897  1
  O  O608  1  0.08674818  0.85181082  0.07679667  1
  O  O609  1  0.08613206  0.85153955  0.32707080  1
  O  O610  1  0.08435323  0.85059580  0.57737956  1
  O  O611  1  0.08493403  0.85262886  0.82662492  1
  O  O612  1  0.58784480  0.18534874  0.07766129  1
  O  O613  1  0.58883029  0.18481224  0.32839641  1
  O  O614  1  0.58987882  0.18472429  0.57787030  1
  O  O615  1  0.58896700  0.18386899  0.82750596  1
  O  O616  1  0.58675425  0.51918652  0.07759867  1
  O  O617  1  0.58778190  0.51723449  0.32712568  1
  O  O618  1  0.58847207  0.51748851  0.57706307  1
  O  O619  1  0.58802624  0.51944474  0.82806453  1
  O  O620  1  0.58749944  0.84998819  0.07826973  1
  O  O621  1  0.58890732  0.85253404  0.32800278  1
  O  O622  1  0.58879257  0.85225048  0.57681533  1
  O  O623  1  0.58792857  0.85119011  0.82719767  1
  O  O624  1  0.33419039  0.18447830  0.04791634  1
  O  O625  1  0.33506310  0.18499809  0.29742356  1
  O  O626  1  0.33856884  0.18481156  0.54770771  1
  O  O627  1  0.33611697  0.18567567  0.79875183  1
  O  O628  1  0.33717329  0.51928756  0.04870694  1
  O  O629  1  0.33809340  0.51909516  0.29783114  1
  O  O630  1  0.33707634  0.51706582  0.54658172  1
  O  O631  1  0.33741445  0.51721438  0.79692362  1
  O  O632  1  0.33834871  0.85074299  0.04577187  1
  O  O633  1  0.33746276  0.85062499  0.29711788  1
  O  O634  1  0.33912601  0.85305076  0.54881724  1
  O  O635  1  0.33933112  0.85202318  0.79760592  1
  O  O636  1  0.84026013  0.18465031  0.04714543  1
  O  O637  1  0.83903247  0.18529848  0.29665998  1
  O  O638  1  0.83483223  0.18437321  0.54736600  1
  O  O639  1  0.83652229  0.18417050  0.79770635  1
  O  O640  1  0.83913435  0.51821209  0.04834561  1
  O  O641  1  0.83806688  0.51838992  0.29814394  1
  O  O642  1  0.83593267  0.51899104  0.54724801  1
  O  O643  1  0.83784440  0.51881641  0.79698035  1
  O  O644  1  0.83889311  0.85183327  0.04595896  1
  O  O645  1  0.83762176  0.85088905  0.29645868  1
  O  O646  1  0.83625276  0.85136583  0.54810435  1
  O  O647  1  0.83760055  0.85203265  0.79758169  1
  O  O648  1  0.16103306  0.14901584  0.20235015  1
  O  O649  1  0.16429211  0.14792975  0.45313017  1
  O  O650  1  0.16140973  0.14941855  0.70385276  1
  O  O651  1  0.15978015  0.14891868  0.95227591  1
  O  O652  1  0.16076032  0.48226528  0.20250509  1
  O  O653  1  0.16457479  0.48256581  0.45224329  1
  O  O654  1  0.16395028  0.48055035  0.70229324  1
  O  O655  1  0.16084610  0.48283789  0.95405247  1
  O  O656  1  0.16391205  0.81405172  0.20201494  1
  O  O657  1  0.16158316  0.81478337  0.45292580  1
  O  O658  1  0.16157214  0.81532242  0.70131646  1
  O  O659  1  0.16405372  0.81376674  0.95140528  1
  O  O660  1  0.66466748  0.14835014  0.20216527  1
  O  O661  1  0.66217240  0.14790424  0.45238603  1
  O  O662  1  0.66222895  0.14806902  0.70304027  1
  O  O663  1  0.66431987  0.14845799  0.95195846  1
  O  O664  1  0.66421249  0.48310923  0.20291524  1
  O  O665  1  0.66046729  0.48174640  0.45217999  1
  O  O666  1  0.66094790  0.48036317  0.70192465  1
  O  O667  1  0.66551093  0.48179203  0.95269695  1
  O  O668  1  0.66321023  0.81345657  0.20122429  1
  O  O669  1  0.66414692  0.81556116  0.45251967  1
  O  O670  1  0.66361302  0.81616449  0.70353139  1
  O  O671  1  0.66308695  0.81461699  0.95222032  1
