# generated using pymatgen
data_Na2MnFe(PO4)2
_symmetry_space_group_name_H-M   'P 1'
_cell_length_a   21.08662423
_cell_length_b   18.93884299
_cell_length_c   20.04574494
_cell_angle_alpha   89.99964194
_cell_angle_beta   90.00157259
_cell_angle_gamma   89.99976017
_symmetry_Int_Tables_number   1
_chemical_formula_structural   Na2MnFe(PO4)2
_chemical_formula_sum   'Na96 Mn48 Fe48 P96 O384'
_cell_volume   8005.39383555
_cell_formula_units_Z   48
loop_
 _symmetry_equiv_pos_site_id
 _symmetry_equiv_pos_as_xyz
  1  'x, y, z'
loop_
 _atom_site_type_symbol
 _atom_site_label
 _atom_site_symmetry_multiplicity
 _atom_site_fract_x
 _atom_site_fract_y
 _atom_site_fract_z
 _atom_site_occupancy
  Na  Na0  1  -0.00073063  -0.00024116  0.00051589  1
  Na  Na1  1  -0.00010176  -0.00020264  0.25110845  1
  Na  Na2  1  0.00099612  0.00086369  0.49909569  1
  Na  Na3  1  -0.00056096  0.00040669  0.74906422  1
  Na  Na4  1  -0.00013043  0.33326107  0.00042167  1
  Na  Na5  1  -0.00043917  0.33296936  0.24957015  1
  Na  Na6  1  -0.00208532  0.33237455  0.50025001  1
  Na  Na7  1  -0.00217748  0.33264668  0.74964091  1
  Na  Na8  1  -0.00051945  0.66645550  0.00045595  1
  Na  Na9  1  0.00167522  0.66701591  0.25026506  1
  Na  Na10  1  0.00258563  0.66670425  0.50007536  1
  Na  Na11  1  0.00257963  0.66742302  0.74993924  1
  Na  Na12  1  0.49840627  -0.00050267  -0.00072688  1
  Na  Na13  1  0.49932485  -0.00011597  0.25026254  1
  Na  Na14  1  0.50086145  0.00029547  0.49969493  1
  Na  Na15  1  0.49840777  -0.00091023  0.75055336  1
  Na  Na16  1  0.49829401  0.33323878  -0.00059609  1
  Na  Na17  1  0.49935429  0.33332243  0.25146024  1
  Na  Na18  1  0.49981589  0.33344349  0.49955360  1
  Na  Na19  1  0.49803613  0.33290788  0.74923087  1
  Na  Na20  1  0.50000143  0.66682318  0.00011389  1
  Na  Na21  1  0.49822721  0.66637884  0.24999070  1
  Na  Na22  1  0.49751300  0.66601649  0.50039350  1
  Na  Na23  1  0.50019261  0.66743780  0.74986272  1
  Na  Na24  1  0.25324439  0.00129260  0.12425260  1
  Na  Na25  1  0.24788552  -0.00109534  0.37549834  1
  Na  Na26  1  0.25045871  0.00036973  0.62508639  1
  Na  Na27  1  0.25312729  0.00032718  0.87468232  1
  Na  Na28  1  0.25107740  0.33252727  0.12467974  1
  Na  Na29  1  0.25307389  0.33401143  0.37568761  1
  Na  Na30  1  0.25176865  0.33354471  0.62443031  1
  Na  Na31  1  0.25233756  0.33339827  0.87423171  1
  Na  Na32  1  0.25025537  0.66733129  0.12591870  1
  Na  Na33  1  0.24887196  0.66623439  0.37474566  1
  Na  Na34  1  0.25072520  0.66740831  0.62488545  1
  Na  Na35  1  0.24951903  0.66610152  0.87491362  1
  Na  Na36  1  0.74926516  -0.00044558  0.12499894  1
  Na  Na37  1  0.75031963  0.00071441  0.37490108  1
  Na  Na38  1  0.75074616  0.00081822  0.62498387  1
  Na  Na39  1  0.74938932  -0.00068617  0.87545665  1
  Na  Na40  1  0.74889749  0.33350891  0.12500449  1
  Na  Na41  1  0.74954868  0.33353868  0.37541118  1
  Na  Na42  1  0.75018648  0.33298740  0.62409011  1
  Na  Na43  1  0.75129635  0.33402832  0.87524156  1
  Na  Na44  1  0.75083326  0.66717153  0.12505519  1
  Na  Na45  1  0.75043122  0.66670332  0.37496330  1
  Na  Na46  1  0.75041385  0.66731433  0.62566336  1
  Na  Na47  1  0.74771713  0.66555532  0.87478454  1
  Na  Na48  1  -0.00155716  0.16709095  0.00050389  1
  Na  Na49  1  -0.00108321  0.16726700  0.24990563  1
  Na  Na50  1  -0.00162323  0.16685237  0.49951188  1
  Na  Na51  1  -0.00195446  0.16677482  0.74932376  1
  Na  Na52  1  -0.00058383  0.50061513  -0.00036900  1
  Na  Na53  1  -0.00001611  0.50005438  0.25045843  1
  Na  Na54  1  -0.00021959  0.49968136  0.50092664  1
  Na  Na55  1  0.00050425  0.49905363  0.74948465  1
  Na  Na56  1  -0.00001318  0.83351124  0.00125307  1
  Na  Na57  1  0.00223565  0.83309409  0.25045945  1
  Na  Na58  1  0.00388791  0.83241753  0.49918301  1
  Na  Na59  1  0.00097902  0.83374103  0.74971820  1
  Na  Na60  1  0.49673491  0.16705280  -0.00016958  1
  Na  Na61  1  0.49723371  0.16750301  0.25042847  1
  Na  Na62  1  0.49984747  0.16674346  0.49983483  1
  Na  Na63  1  0.49707112  0.16767798  0.74959600  1
  Na  Na64  1  0.50025948  0.49955342  -0.00100558  1
  Na  Na65  1  0.50011007  0.49949152  0.25052237  1
  Na  Na66  1  0.49950509  0.49927073  0.49933270  1
  Na  Na67  1  0.49896908  0.50013277  0.75051694  1
  Na  Na68  1  0.49948429  0.83400669  0.00012084  1
  Na  Na69  1  0.49943070  0.83378210  0.25059304  1
  Na  Na70  1  0.49946540  0.83406348  0.50072724  1
  Na  Na71  1  0.49975429  0.83385180  0.74928546  1
  Na  Na72  1  0.25226749  0.16673465  0.12479215  1
  Na  Na73  1  0.25159277  0.16633509  0.37591065  1
  Na  Na74  1  0.25133583  0.16694883  0.62445746  1
  Na  Na75  1  0.25378684  0.16575477  0.87402256  1
  Na  Na76  1  0.25182397  0.49923000  0.12520986  1
  Na  Na77  1  0.25030938  0.49977025  0.37514863  1
  Na  Na78  1  0.24984692  0.49980328  0.62472356  1
  Na  Na79  1  0.24974120  0.50008205  0.87444284  1
  Na  Na80  1  0.24916016  0.83419088  0.12521525  1
  Na  Na81  1  0.24892262  0.83343957  0.37444013  1
  Na  Na82  1  0.24913886  0.83406159  0.62585455  1
  Na  Na83  1  0.25268298  0.83256582  0.87509007  1
  Na  Na84  1  0.75125416  0.16599843  0.12509927  1
  Na  Na85  1  0.75081810  0.16653357  0.37531098  1
  Na  Na86  1  0.75168718  0.16658380  0.62477874  1
  Na  Na87  1  0.75218611  0.16603375  0.87459475  1
  Na  Na88  1  0.74816064  0.50045869  0.12603258  1
  Na  Na89  1  0.74953494  0.49932870  0.37469795  1
  Na  Na90  1  0.75058952  0.49872816  0.62442702  1
  Na  Na91  1  0.74949116  0.49955473  0.87574084  1
  Na  Na92  1  0.74968737  0.83330311  0.12418500  1
  Na  Na93  1  0.74964824  0.83359494  0.37517334  1
  Na  Na94  1  0.74784720  0.83489292  0.62579576  1
  Na  Na95  1  0.74864396  0.83355390  0.87474160  1
  Mn  Mn96  1  0.64246223  0.91638081  0.24790416  1
  Mn  Mn97  1  0.10767103  0.41587540  0.87244971  1
  Mn  Mn98  1  0.85701674  0.74951396  0.00165993  1
  Mn  Mn99  1  0.89291313  0.58288627  0.37751233  1
  Mn  Mn100  1  0.89209041  0.25042133  0.12753724  1
  Mn  Mn101  1  0.89220047  0.58379841  0.87699404  1
  Mn  Mn102  1  0.85800706  0.75015989  0.75227492  1
  Mn  Mn103  1  0.39170914  0.91704378  0.37764629  1
  Mn  Mn104  1  0.60733354  0.41633192  0.87203586  1
  Mn  Mn105  1  0.14252840  0.25004250  0.49784640  1
  Mn  Mn106  1  0.60702657  0.74933682  0.62235468  1
  Mn  Mn107  1  0.64105539  0.24967256  0.99777809  1
  Mn  Mn108  1  0.64182173  0.58284560  0.74702782  1
  Mn  Mn109  1  0.60658989  0.08401218  0.12309465  1
  Mn  Mn110  1  0.60740257  0.74965163  0.12286093  1
  Mn  Mn111  1  0.64184577  0.58341309  0.49802318  1
  Mn  Mn112  1  0.64259632  0.24947444  0.74793332  1
  Mn  Mn113  1  0.60678593  0.08334910  0.87244594  1
  Mn  Mn114  1  0.14265465  0.91705896  0.74826709  1
  Mn  Mn115  1  0.10850308  0.08318637  0.12302870  1
  Mn  Mn116  1  0.14324707  0.24940328  0.99725551  1
  Mn  Mn117  1  0.35810130  0.08255959  0.50273469  1
  Mn  Mn118  1  0.64193035  0.58413649  0.24771652  1
  Mn  Mn119  1  0.10804708  0.08355603  0.87281692  1
  Mn  Mn120  1  0.10760191  0.08415826  0.37226978  1
  Mn  Mn121  1  0.14313232  0.58336620  0.49802902  1
  Mn  Mn122  1  0.14261914  0.58324693  0.99829053  1
  Mn  Mn123  1  0.85740130  0.08280257  0.00226511  1
  Mn  Mn124  1  0.10812377  0.41605110  0.37310366  1
  Mn  Mn125  1  0.64175615  0.24949106  0.24786852  1
  Mn  Mn126  1  0.39149770  0.58325588  0.37725650  1
  Mn  Mn127  1  0.89298120  0.58336115  0.62739329  1
  Mn  Mn128  1  0.35774948  0.74991677  0.75249580  1
  Mn  Mn129  1  0.89219759  0.91587974  0.12747506  1
  Mn  Mn130  1  0.35679898  0.75021908  0.25226064  1
  Mn  Mn131  1  0.60770854  0.08419878  0.62334362  1
  Mn  Mn132  1  0.85733081  0.41666918  0.25237441  1
  Mn  Mn133  1  0.10830327  0.75061339  0.87359300  1
  Mn  Mn134  1  0.10852214  0.41718894  0.12309501  1
  Mn  Mn135  1  0.89312144  0.91653318  0.37763757  1
  Mn  Mn136  1  0.39197831  0.58399150  0.87736877  1
  Mn  Mn137  1  0.14251852  0.25010845  0.74764705  1
  Mn  Mn138  1  0.35840418  0.41710232  0.00279115  1
  Mn  Mn139  1  0.60759592  0.74989516  0.37310644  1
  Mn  Mn140  1  0.85709281  0.41741696  0.00248040  1
  Mn  Mn141  1  0.89274954  0.91643840  0.62655542  1
  Mn  Mn142  1  0.85855243  0.75040757  0.50245329  1
  Mn  Mn143  1  0.14339652  0.91727277  0.99748228  1
  Fe  Fe144  1  0.35718931  0.08353427  0.25227057  1
  Fe  Fe145  1  0.39244266  0.91675397  0.62671983  1
  Fe  Fe146  1  0.10720671  0.74980131  0.12323495  1
  Fe  Fe147  1  0.14283846  0.58267874  0.74821209  1
  Fe  Fe148  1  0.14295694  0.58249859  0.24756352  1
  Fe  Fe149  1  0.85667347  0.41637799  0.50183268  1
  Fe  Fe150  1  0.39317296  0.25004424  0.62633662  1
  Fe  Fe151  1  0.39306928  0.24981540  0.37696532  1
  Fe  Fe152  1  0.35824723  0.41733531  0.50277152  1
  Fe  Fe153  1  0.39221442  0.25051689  0.12779234  1
  Fe  Fe154  1  0.64284177  0.24950480  0.49842869  1
  Fe  Fe155  1  0.60655812  0.41628841  0.37360287  1
  Fe  Fe156  1  0.35713104  0.41664364  0.75059669  1
  Fe  Fe157  1  0.35825486  0.75001508  0.00253106  1
  Fe  Fe158  1  0.10835997  0.74955461  0.37281601  1
  Fe  Fe159  1  0.39224449  0.24979346  0.87647980  1
  Fe  Fe160  1  0.85834053  0.75033293  0.25202563  1
  Fe  Fe161  1  0.39274607  0.91646439  0.12704043  1
  Fe  Fe162  1  0.35770891  0.41640194  0.25157282  1
  Fe  Fe163  1  0.39271593  0.58326881  0.12662084  1
  Fe  Fe164  1  0.14308910  0.91701946  0.49908799  1
  Fe  Fe165  1  0.89198615  0.91684441  0.87654390  1
  Fe  Fe166  1  0.89223549  0.25004253  0.62638181  1
  Fe  Fe167  1  0.60689423  0.41646252  0.62340954  1
  Fe  Fe168  1  0.10716187  0.08369099  0.62333882  1
  Fe  Fe169  1  0.85743604  0.08291392  0.25204183  1
  Fe  Fe170  1  0.10715140  0.41558993  0.62321396  1
  Fe  Fe171  1  0.39331710  0.91642337  0.87699937  1
  Fe  Fe172  1  0.89233257  0.24971203  0.87685997  1
  Fe  Fe173  1  0.35826259  0.08265702  0.00224014  1
  Fe  Fe174  1  0.60600800  0.41650720  0.12390975  1
  Fe  Fe175  1  0.64158643  0.91625669  0.99797934  1
  Fe  Fe176  1  0.14321560  0.91750553  0.24763045  1
  Fe  Fe177  1  0.39218683  0.58299651  0.62703555  1
  Fe  Fe178  1  0.85784374  0.08308327  0.75186269  1
  Fe  Fe179  1  0.85681250  0.08335005  0.50146475  1
  Fe  Fe180  1  0.64221401  0.91745620  0.49872461  1
  Fe  Fe181  1  0.85738592  0.41658481  0.75143379  1
  Fe  Fe182  1  0.64175238  0.58380366  0.99892762  1
  Fe  Fe183  1  0.35662954  0.75000831  0.50161413  1
  Fe  Fe184  1  0.60756047  0.08377671  0.37330085  1
  Fe  Fe185  1  0.64261443  0.91724658  0.74850583  1
  Fe  Fe186  1  0.89210393  0.25036852  0.37653920  1
  Fe  Fe187  1  0.14367227  0.24995081  0.24872001  1
  Fe  Fe188  1  0.35758625  0.08372392  0.75103038  1
  Fe  Fe189  1  0.10855626  0.75002954  0.62313565  1
  Fe  Fe190  1  0.60677718  0.75025178  0.87374876  1
  Fe  Fe191  1  0.89233384  0.58374831  0.12706966  1
  P  P192  1  0.05513411  0.24992852  0.11099118  1
  P  P193  1  0.05253224  0.25020912  0.35940942  1
  P  P194  1  0.05223051  0.24980803  0.61006982  1
  P  P195  1  0.05186325  0.24948733  0.85970446  1
  P  P196  1  0.05344321  0.58400004  0.11121896  1
  P  P197  1  0.05506906  0.58311769  0.35960945  1
  P  P198  1  0.05554743  0.58259054  0.61143721  1
  P  P199  1  0.05427804  0.58320485  0.85934781  1
  P  P200  1  0.05510591  0.91631095  0.11120956  1
  P  P201  1  0.05623939  0.91632201  0.36069498  1
  P  P202  1  0.05454153  0.91728163  0.60943693  1
  P  P203  1  0.05201618  0.91724248  0.86013648  1
  P  P204  1  0.55100231  0.25062107  0.11044551  1
  P  P205  1  0.55374390  0.24961756  0.36170297  1
  P  P206  1  0.55294454  0.25074161  0.60954891  1
  P  P207  1  0.55135529  0.24963654  0.85948107  1
  P  P208  1  0.55214097  0.58250202  0.10989024  1
  P  P209  1  0.55289928  0.58276921  0.36020564  1
  P  P210  1  0.55139133  0.58220275  0.61000019  1
  P  P211  1  0.55412836  0.58441951  0.86094031  1
  P  P212  1  0.55243437  0.91702013  0.10975534  1
  P  P213  1  0.55458960  0.91766005  0.36131261  1
  P  P214  1  0.55365729  0.91731096  0.61088350  1
  P  P215  1  0.55381279  0.91587985  0.86053167  1
  P  P216  1  0.44440644  0.08300257  0.13981465  1
  P  P217  1  0.44645371  0.08389164  0.38913841  1
  P  P218  1  0.44619518  0.08320686  0.64009952  1
  P  P219  1  0.44433142  0.08308556  0.88878084  1
  P  P220  1  0.44679825  0.41698610  0.14071160  1
  P  P221  1  0.44532180  0.41581301  0.38939313  1
  P  P222  1  0.44603289  0.41669012  0.63910444  1
  P  P223  1  0.44486503  0.41616055  0.88828399  1
  P  P224  1  0.44544168  0.75017015  0.13923000  1
  P  P225  1  0.44548987  0.75043343  0.39098956  1
  P  P226  1  0.44470198  0.75010191  0.63861605  1
  P  P227  1  0.44698177  0.75088091  0.89049553  1
  P  P228  1  0.94612645  0.08292595  0.14105088  1
  P  P229  1  0.94459826  0.08425896  0.38938178  1
  P  P230  1  0.94555820  0.08384324  0.63858227  1
  P  P231  1  0.94519134  0.08306307  0.88890336  1
  P  P232  1  0.94663644  0.41777736  0.14015070  1
  P  P233  1  0.94596851  0.41578246  0.39084706  1
  P  P234  1  0.94574609  0.41570587  0.63903484  1
  P  P235  1  0.94521656  0.41597918  0.88897521  1
  P  P236  1  0.94706252  0.74937720  0.14074243  1
  P  P237  1  0.94801596  0.74980465  0.38920855  1
  P  P238  1  0.94891709  0.75019869  0.63978994  1
  P  P239  1  0.94692276  0.75112452  0.89021946  1
  P  P240  1  0.19828201  0.08409564  0.23521613  1
  P  P241  1  0.19550184  0.08306745  0.48634947  1
  P  P242  1  0.19770431  0.08373430  0.73437609  1
  P  P243  1  0.19913353  0.08331064  0.98454787  1
  P  P244  1  0.19840495  0.41577081  0.23547243  1
  P  P245  1  0.19743363  0.41626595  0.48626935  1
  P  P246  1  0.19721138  0.41655610  0.73417268  1
  P  P247  1  0.19740720  0.41648665  0.98462253  1
  P  P248  1  0.19434630  0.75001071  0.23556457  1
  P  P249  1  0.19617945  0.75090054  0.48568917  1
  P  P250  1  0.19614606  0.74950271  0.73493216  1
  P  P251  1  0.19766745  0.75019216  0.98638307  1
  P  P252  1  0.69668672  0.08340420  0.23602185  1
  P  P253  1  0.69665864  0.08401736  0.48498585  1
  P  P254  1  0.69809202  0.08286654  0.73536273  1
  P  P255  1  0.69564864  0.08277842  0.98495620  1
  P  P256  1  0.69403909  0.41644281  0.23572398  1
  P  P257  1  0.69522305  0.41556399  0.48583757  1
  P  P258  1  0.69722368  0.41591260  0.73409320  1
  P  P259  1  0.69410347  0.41741586  0.98651137  1
  P  P260  1  0.69821110  0.75022623  0.23483017  1
  P  P261  1  0.69678040  0.75073805  0.48519667  1
  P  P262  1  0.69498525  0.75099704  0.73626125  1
  P  P263  1  0.69514543  0.74971889  0.98449406  1
  P  P264  1  0.30591318  0.24911774  0.01446551  1
  P  P265  1  0.30470653  0.24997325  0.26486889  1
  P  P266  1  0.30588973  0.25052118  0.51443595  1
  P  P267  1  0.30567244  0.25024649  0.76336071  1
  P  P268  1  0.30429369  0.58441208  0.01599422  1
  P  P269  1  0.30326027  0.58265939  0.26368572  1
  P  P270  1  0.30426779  0.58349248  0.51551628  1
  P  P271  1  0.30332698  0.58238789  0.76357907  1
  P  P272  1  0.30607950  0.91619265  0.01436175  1
  P  P273  1  0.30328347  0.91747510  0.26389331  1
  P  P274  1  0.30262752  0.91577431  0.51564174  1
  P  P275  1  0.30558236  0.91761654  0.76439630  1
  P  P276  1  0.80379104  0.25016540  0.01426754  1
  P  P277  1  0.80362687  0.24956924  0.26578534  1
  P  P278  1  0.80403071  0.25002156  0.51389513  1
  P  P279  1  0.80545237  0.25019945  0.76394482  1
  P  P280  1  0.80206583  0.58342133  0.01580036  1
  P  P281  1  0.80465224  0.58427676  0.26421120  1
  P  P282  1  0.80339952  0.58253340  0.51505825  1
  P  P283  1  0.80321924  0.58229510  0.76482461  1
  P  P284  1  0.80259809  0.91615695  0.01387753  1
  P  P285  1  0.80397210  0.91623044  0.26511037  1
  P  P286  1  0.80214954  0.91753749  0.51483238  1
  P  P287  1  0.80302092  0.91736613  0.76526337  1
  O  O288  1  0.06007982  0.24980400  0.18771096  1
  O  O289  1  0.05678444  0.24995710  0.43610771  1
  O  O290  1  0.05601707  0.24985637  0.68670106  1
  O  O291  1  0.05629105  0.24945901  0.93639668  1
  O  O292  1  0.05876326  0.58265075  0.18785307  1
  O  O293  1  0.05816572  0.58241140  0.43643982  1
  O  O294  1  0.05933815  0.58254205  0.68818024  1
  O  O295  1  0.05716985  0.58314986  0.93620138  1
  O  O296  1  0.05954430  0.91771635  0.18795999  1
  O  O297  1  0.06027010  0.91713089  0.43746645  1
  O  O298  1  0.05702863  0.91756904  0.68620029  1
  O  O299  1  0.05629536  0.91731631  0.93685942  1
  O  O300  1  0.55499333  0.24973853  0.18714402  1
  O  O301  1  0.55846587  0.24937247  0.43832123  1
  O  O302  1  0.55666968  0.25005775  0.68624292  1
  O  O303  1  0.55515983  0.24954301  0.93616073  1
  O  O304  1  0.55574963  0.58360695  0.18662850  1
  O  O305  1  0.55598395  0.58342339  0.43694767  1
  O  O306  1  0.55529547  0.58288285  0.68672682  1
  O  O307  1  0.55803571  0.58363053  0.93765330  1
  O  O308  1  0.55651305  0.91688123  0.18651063  1
  O  O309  1  0.55894536  0.91715578  0.43808071  1
  O  O310  1  0.55862086  0.91753731  0.68757789  1
  O  O311  1  0.55826386  0.91678934  0.93724431  1
  O  O312  1  0.44135888  0.08279899  0.06296166  1
  O  O313  1  0.44133916  0.08303299  0.31234511  1
  O  O314  1  0.44404160  0.08281670  0.56338721  1
  O  O315  1  0.44098977  0.08317811  0.81198634  1
  O  O316  1  0.44381789  0.41703930  0.06396835  1
  O  O317  1  0.44064319  0.41667562  0.31270130  1
  O  O318  1  0.44211494  0.41701682  0.56231911  1
  O  O319  1  0.44077728  0.41699425  0.81154839  1
  O  O320  1  0.44227457  0.75018886  0.06248314  1
  O  O321  1  0.44210054  0.75063941  0.31416455  1
  O  O322  1  0.44064366  0.75036771  0.56193404  1
  O  O323  1  0.44343345  0.75007970  0.81370764  1
  O  O324  1  0.94268846  0.08284345  0.06422116  1
  O  O325  1  0.94051624  0.08326322  0.31265338  1
  O  O326  1  0.94073878  0.08306589  0.56187130  1
  O  O327  1  0.94152684  0.08279138  0.81207808  1
  O  O328  1  0.94335737  0.41734442  0.06337317  1
  O  O329  1  0.94298549  0.41652811  0.31409190  1
  O  O330  1  0.94078572  0.41650083  0.56237484  1
  O  O331  1  0.94133970  0.41671373  0.81221190  1
  O  O332  1  0.94272292  0.74996997  0.06404258  1
  O  O333  1  0.94284829  0.75023310  0.31262293  1
  O  O334  1  0.94490709  0.75009545  0.56306071  1
  O  O335  1  0.94404583  0.75048566  0.81344665  1
  O  O336  1  0.19468624  0.08350421  0.06117764  1
  O  O337  1  0.19441458  0.08394510  0.31193051  1
  O  O338  1  0.19112380  0.08426583  0.56314314  1
  O  O339  1  0.19408557  0.08369282  0.81110401  1
  O  O340  1  0.19412201  0.41628146  0.06141001  1
  O  O341  1  0.19492442  0.41601369  0.31216416  1
  O  O342  1  0.19168295  0.41555846  0.56281800  1
  O  O343  1  0.19363209  0.41570326  0.81089743  1
  O  O344  1  0.19223271  0.75025850  0.06299122  1
  O  O345  1  0.19116718  0.74968003  0.31248320  1
  O  O346  1  0.19185750  0.75018566  0.56243730  1
  O  O347  1  0.19355498  0.75018439  0.81177157  1
  O  O348  1  0.69245428  0.08348888  0.06177087  1
  O  O349  1  0.69158387  0.08393234  0.31266110  1
  O  O350  1  0.69320117  0.08421561  0.56171526  1
  O  O351  1  0.69372433  0.08360249  0.81196821  1
  O  O352  1  0.68959051  0.41648225  0.06326875  1
  O  O353  1  0.68967266  0.41629976  0.31251777  1
  O  O354  1  0.69034420  0.41626036  0.56253158  1
  O  O355  1  0.69316815  0.41600213  0.81085260  1
  O  O356  1  0.69266884  0.74996151  0.06133323  1
  O  O357  1  0.69387127  0.74992906  0.31147221  1
  O  O358  1  0.69323079  0.75001154  0.56199720  1
  O  O359  1  0.69071180  0.75008633  0.81293977  1
  O  O360  1  0.30888050  0.25025865  0.18808074  1
  O  O361  1  0.30982945  0.24976623  0.43762441  1
  O  O362  1  0.30945288  0.25022142  0.68657756  1
  O  O363  1  0.30953122  0.25004229  0.93764040  1
  O  O364  1  0.30849549  0.58316627  0.18710784  1
  O  O365  1  0.30644783  0.58319005  0.43865776  1
  O  O366  1  0.30812537  0.58308278  0.68694101  1
  O  O367  1  0.30688403  0.58382500  0.93913276  1
  O  O368  1  0.30824639  0.91683013  0.18728796  1
  O  O369  1  0.30581523  0.91651635  0.43885080  1
  O  O370  1  0.30920192  0.91683344  0.68762026  1
  O  O371  1  0.30977120  0.91582345  0.93754601  1
  O  O372  1  0.80650207  0.25038325  0.18896065  1
  O  O373  1  0.80821267  0.25036301  0.43724532  1
  O  O374  1  0.80892833  0.25011842  0.68708621  1
  O  O375  1  0.80825980  0.25027606  0.93750373  1
  O  O376  1  0.80872745  0.58364195  0.18744904  1
  O  O377  1  0.80652381  0.58297905  0.43827439  1
  O  O378  1  0.80679380  0.58314434  0.68806084  1
  O  O379  1  0.80626952  0.58315141  0.93909476  1
  O  O380  1  0.80638807  0.91618422  0.18828820  1
  O  O381  1  0.80646055  0.91664708  0.43821806  1
  O  O382  1  0.80696182  0.91684246  0.68856009  1
  O  O383  1  0.80772546  0.91623611  0.93727796  1
  O  O384  1  0.23597615  0.24973279  0.03888887  1
  O  O385  1  0.23451244  0.24988218  0.28922380  1
  O  O386  1  0.23580126  0.25003142  0.53848994  1
  O  O387  1  0.23572275  0.24976411  0.78800411  1
  O  O388  1  0.23471920  0.58360471  0.04138101  1
  O  O389  1  0.23289805  0.58307022  0.28734292  1
  O  O390  1  0.23465396  0.58342160  0.54084534  1
  O  O391  1  0.23308557  0.58272073  0.78755723  1
  O  O392  1  0.23613470  0.91716907  0.03885571  1
  O  O393  1  0.23292440  0.91667998  0.28747103  1
  O  O394  1  0.23264380  0.91701956  0.54037739  1
  O  O395  1  0.23563053  0.91656909  0.78898498  1
  O  O396  1  0.73380154  0.24979279  0.03849592  1
  O  O397  1  0.73390794  0.25013497  0.29081761  1
  O  O398  1  0.73366189  0.24979753  0.53793636  1
  O  O399  1  0.73551495  0.25002614  0.78876028  1
  O  O400  1  0.73186366  0.58396687  0.03989277  1
  O  O401  1  0.73466282  0.58341855  0.28855297  1
  O  O402  1  0.73371747  0.58296213  0.54031084  1
  O  O403  1  0.73345800  0.58227988  0.78965610  1
  O  O404  1  0.73218593  0.91610960  0.03741918  1
  O  O405  1  0.73443207  0.91670580  0.29071575  1
  O  O406  1  0.73201312  0.91790172  0.53920610  1
  O  O407  1  0.73281475  0.91676179  0.78948561  1
  O  O408  1  0.26835020  0.08420836  0.21067870  1
  O  O409  1  0.26550331  0.08276579  0.46231538  1
  O  O410  1  0.26787290  0.08389128  0.71011085  1
  O  O411  1  0.26934446  0.08278767  0.96073534  1
  O  O412  1  0.26842486  0.41569935  0.21057361  1
  O  O413  1  0.26796199  0.41687177  0.46328890  1
  O  O414  1  0.26736505  0.41629986  0.70979985  1
  O  O415  1  0.26713277  0.41683419  0.95981721  1
  O  O416  1  0.26437617  0.75054462  0.21125754  1
  O  O417  1  0.26642613  0.74976425  0.46157533  1
  O  O418  1  0.26591937  0.75044778  0.71000174  1
  O  O419  1  0.26797884  0.74985223  0.96273036  1
  O  O420  1  0.76703393  0.08297886  0.21247429  1
  O  O421  1  0.76684916  0.08388312  0.46064334  1
  O  O422  1  0.76820181  0.08341056  0.71105939  1
  O  O423  1  0.76535824  0.08291246  0.96002079  1
  O  O424  1  0.76419700  0.41650945  0.21203007  1
  O  O425  1  0.76571612  0.41595428  0.46241101  1
  O  O426  1  0.76739638  0.41590935  0.71009903  1
  O  O427  1  0.76414438  0.41704656  0.96242343  1
  O  O428  1  0.76818815  0.75040761  0.21033505  1
  O  O429  1  0.76652639  0.75030962  0.46024476  1
  O  O430  1  0.76501230  0.75104148  0.71190184  1
  O  O431  1  0.76474962  0.74955855  0.95899096  1
  O  O432  1  0.01596481  0.08328351  0.16569765  1
  O  O433  1  0.01480379  0.08389062  0.41310223  1
  O  O434  1  0.01601704  0.08357382  0.66217931  1
  O  O435  1  0.01496153  0.08343505  0.91404242  1
  O  O436  1  0.01632299  0.41691835  0.16527364  1
  O  O437  1  0.01572728  0.41619264  0.41591562  1
  O  O438  1  0.01621332  0.41580487  0.66255403  1
  O  O439  1  0.01510863  0.41654502  0.91367423  1
  O  O440  1  0.01729164  0.75000911  0.16467333  1
  O  O441  1  0.01851232  0.74951733  0.41249320  1
  O  O442  1  0.01907173  0.75046040  0.66391242  1
  O  O443  1  0.01645961  0.75042829  0.91586841  1
  O  O444  1  0.51423762  0.08337285  0.16483020  1
  O  O445  1  0.51669823  0.08393453  0.41286605  1
  O  O446  1  0.51573065  0.08347869  0.66600077  1
  O  O447  1  0.51418897  0.08304246  0.91365836  1
  O  O448  1  0.51673591  0.41667512  0.16577491  1
  O  O449  1  0.51580076  0.41615928  0.41279829  1
  O  O450  1  0.51626855  0.41636606  0.66344865  1
  O  O451  1  0.51477437  0.41639331  0.91269539  1
  O  O452  1  0.51520181  0.75006335  0.16447784  1
  O  O453  1  0.51521245  0.75018129  0.41581733  1
  O  O454  1  0.51463750  0.75029588  0.66318610  1
  O  O455  1  0.51696268  0.75057310  0.91506567  1
  O  O456  1  0.48087024  0.25036620  0.08616774  1
  O  O457  1  0.48338842  0.25000566  0.33783735  1
  O  O458  1  0.48276328  0.25016396  0.58533407  1
  O  O459  1  0.48130702  0.24977696  0.83514646  1
  O  O460  1  0.48209173  0.58304023  0.08529467  1
  O  O461  1  0.48316927  0.58287619  0.33514795  1
  O  O462  1  0.48136560  0.58234207  0.58552922  1
  O  O463  1  0.48414998  0.58408598  0.83646735  1
  O  O464  1  0.48223405  0.91686398  0.08585368  1
  O  O465  1  0.48452843  0.91702473  0.33722747  1
  O  O466  1  0.48313207  0.91714487  0.58759061  1
  O  O467  1  0.48336831  0.91649354  0.83700148  1
  O  O468  1  0.98491597  0.25007760  0.08746358  1
  O  O469  1  0.98227771  0.25012802  0.33561613  1
  O  O470  1  0.98212739  0.24975040  0.58553659  1
  O  O471  1  0.98179661  0.24945986  0.83551819  1
  O  O472  1  0.98310558  0.58403496  0.08752123  1
  O  O473  1  0.98526151  0.58297467  0.33492708  1
  O  O474  1  0.98567233  0.58293399  0.58665362  1
  O  O475  1  0.98456808  0.58340845  0.83426377  1
  O  O476  1  0.98500836  0.91629826  0.08725506  1
  O  O477  1  0.98606991  0.91691636  0.33688118  1
  O  O478  1  0.98496783  0.91677515  0.58364648  1
  O  O479  1  0.98209002  0.91708251  0.83542885  1
  O  O480  1  0.08848857  0.31501338  0.07777922  1
  O  O481  1  0.08636000  0.31523140  0.32664394  1
  O  O482  1  0.08602317  0.31490653  0.57718107  1
  O  O483  1  0.08551937  0.31455095  0.82674445  1
  O  O484  1  0.08670629  0.64936640  0.07834177  1
  O  O485  1  0.08923303  0.64814685  0.32741462  1
  O  O486  1  0.08931172  0.64775601  0.57871088  1
  O  O487  1  0.08887321  0.64815341  0.82730128  1
  O  O488  1  0.08849362  0.98121619  0.07755537  1
  O  O489  1  0.09000471  0.98119276  0.32718916  1
  O  O490  1  0.08856239  0.98256022  0.57712532  1
  O  O491  1  0.08588530  0.98218787  0.82720110  1
  O  O492  1  0.58460270  0.31576560  0.07791382  1
  O  O493  1  0.58697397  0.31477814  0.32859132  1
  O  O494  1  0.58657739  0.31582025  0.57682368  1
  O  O495  1  0.58524402  0.31453133  0.82664684  1
  O  O496  1  0.58644147  0.64727266  0.07694629  1
  O  O497  1  0.58677627  0.64786188  0.32745402  1
  O  O498  1  0.58512628  0.64727360  0.57712723  1
  O  O499  1  0.58739724  0.64978656  0.82828254  1
  O  O500  1  0.58602418  0.98204614  0.07680969  1
  O  O501  1  0.58773898  0.98302509  0.32843598  1
  O  O502  1  0.58689750  0.98237244  0.57746808  1
  O  O503  1  0.58737646  0.98067433  0.82673984  1
  O  O504  1  0.41071447  0.01783648  0.17267358  1
  O  O505  1  0.41318074  0.01894776  0.42271269  1
  O  O506  1  0.41166989  0.01834323  0.67243312  1
  O  O507  1  0.41066316  0.01786057  0.92156964  1
  O  O508  1  0.41261348  0.35200214  0.17331972  1
  O  O509  1  0.41224183  0.35069444  0.42257077  1
  O  O510  1  0.41232016  0.35148581  0.67169968  1
  O  O511  1  0.41146656  0.35088763  0.92096181  1
  O  O512  1  0.41150046  0.68503434  0.17178353  1
  O  O513  1  0.41101209  0.68542664  0.42307676  1
  O  O514  1  0.41143809  0.68473123  0.67161685  1
  O  O515  1  0.41273836  0.68612160  0.92342659  1
  O  O516  1  0.91218254  0.01780640  0.17354684  1
  O  O517  1  0.91094887  0.01947484  0.42308299  1
  O  O518  1  0.91216298  0.01894875  0.67228188  1
  O  O519  1  0.91159382  0.01777830  0.92173716  1
  O  O520  1  0.91213914  0.35291230  0.17260479  1
  O  O521  1  0.91181227  0.35054956  0.42293121  1
  O  O522  1  0.91235761  0.35049162  0.67190182  1
  O  O523  1  0.91177675  0.35060683  0.92157800  1
  O  O524  1  0.91351519  0.68427124  0.17360633  1
  O  O525  1  0.91480623  0.68478219  0.42257482  1
  O  O526  1  0.91520595  0.68525332  0.67276761  1
  O  O527  1  0.91250094  0.68607196  0.92253323  1
  O  O528  1  0.16471999  0.01901029  0.20220697  1
  O  O529  1  0.16185663  0.01792119  0.45383628  1
  O  O530  1  0.16380680  0.01865170  0.70184977  1
  O  O531  1  0.16533876  0.01837956  0.95158420  1
  O  O532  1  0.16466330  0.35060497  0.20298412  1
  O  O533  1  0.16470483  0.35128430  0.45220133  1
  O  O534  1  0.16329818  0.35163532  0.70098687  1
  O  O535  1  0.16365807  0.35141108  0.95183861  1
  O  O536  1  0.16095793  0.68481037  0.20257925  1
  O  O537  1  0.16213778  0.68618208  0.45230165  1
  O  O538  1  0.16254688  0.68424383  0.70254586  1
  O  O539  1  0.16411952  0.68523003  0.95321148  1
  O  O540  1  0.66312698  0.01846377  0.20289171  1
  O  O541  1  0.66261474  0.01910247  0.45226730  1
  O  O542  1  0.66449637  0.01767537  0.70276724  1
  O  O543  1  0.66166617  0.01750285  0.95288400  1
  O  O544  1  0.66046532  0.35148939  0.20242191  1
  O  O545  1  0.66210897  0.35023785  0.45275285  1
  O  O546  1  0.66334226  0.35090260  0.70132020  1
  O  O547  1  0.66060091  0.35254703  0.95282468  1
  O  O548  1  0.66428970  0.68525723  0.20192198  1
  O  O549  1  0.66266506  0.68568682  0.45258891  1
  O  O550  1  0.66150399  0.68599355  0.70272913  1
  O  O551  1  0.66070252  0.68458741  0.95256402  1
  O  O552  1  0.33991542  0.31387567  0.04789726  1
  O  O553  1  0.33846132  0.31494992  0.29789088  1
  O  O554  1  0.33941446  0.31571704  0.54718125  1
  O  O555  1  0.33908192  0.31550814  0.79624374  1
  O  O556  1  0.33845224  0.64948004  0.04819700  1
  O  O557  1  0.33644037  0.64770264  0.29729096  1
  O  O558  1  0.33837681  0.64866727  0.54757376  1
  O  O559  1  0.33666575  0.64739488  0.79716745  1
  O  O560  1  0.34030953  0.98114806  0.04699056  1
  O  O561  1  0.33607086  0.98276204  0.29737177  1
  O  O562  1  0.33739648  0.98031159  0.54835651  1
  O  O563  1  0.33884448  0.98309254  0.79678537  1
  O  O564  1  0.83715543  0.31525539  0.04748310  1
  O  O565  1  0.83809802  0.31435956  0.29852731  1
  O  O566  1  0.83745576  0.31501619  0.54739157  1
  O  O567  1  0.83906770  0.31540847  0.79670611  1
  O  O568  1  0.83630946  0.64840431  0.04832517  1
  O  O569  1  0.83792808  0.64966859  0.29696045  1
  O  O570  1  0.83781719  0.64744385  0.54754217  1
  O  O571  1  0.83701586  0.64748388  0.79752322  1
  O  O572  1  0.83592496  0.98104578  0.04743689  1
  O  O573  1  0.83837599  0.98124609  0.29723711  1
  O  O574  1  0.83599378  0.98271471  0.54720030  1
  O  O575  1  0.83652499  0.98261987  0.79795154  1
  O  O576  1  0.41034164  0.14809903  0.17235053  1
  O  O577  1  0.41296567  0.14888466  0.42200580  1
  O  O578  1  0.41172317  0.14846684  0.67184831  1
  O  O579  1  0.41046824  0.14808331  0.92160088  1
  O  O580  1  0.41286429  0.48209165  0.17330359  1
  O  O581  1  0.41182037  0.48064377  0.42303846  1
  O  O582  1  0.41231941  0.48154124  0.67247149  1
  O  O583  1  0.41135407  0.48108186  0.92170079  1
  O  O584  1  0.41173067  0.81538897  0.17199412  1
  O  O585  1  0.41130923  0.81532763  0.42365980  1
  O  O586  1  0.41122515  0.81523151  0.67165923  1
  O  O587  1  0.41310202  0.81601817  0.92283767  1
  O  O588  1  0.91163362  0.14779532  0.17341059  1
  O  O589  1  0.91119428  0.14951438  0.42212254  1
  O  O590  1  0.91217487  0.14897086  0.67156420  1
  O  O591  1  0.91115343  0.14823154  0.92135552  1
  O  O592  1  0.91290508  0.48300872  0.17250148  1
  O  O593  1  0.91152239  0.48055315  0.42364037  1
  O  O594  1  0.91241448  0.48052172  0.67292827  1
  O  O595  1  0.91131159  0.48096680  0.92203343  1
  O  O596  1  0.91321825  0.81428524  0.17398590  1
  O  O597  1  0.91510051  0.81488807  0.42297767  1
  O  O598  1  0.91498679  0.81522499  0.67235180  1
  O  O599  1  0.91295496  0.81638861  0.92231800  1
  O  O600  1  0.08819794  0.18473430  0.07750572  1
  O  O601  1  0.08649185  0.18538738  0.32629817  1
  O  O602  1  0.08600200  0.18474979  0.57725248  1
  O  O603  1  0.08563269  0.18456275  0.82671527  1
  O  O604  1  0.08673574  0.51914152  0.07741384  1
  O  O605  1  0.08920621  0.51808023  0.32688275  1
  O  O606  1  0.08887584  0.51722719  0.57856739  1
  O  O607  1  0.08847056  0.51817058  0.82683879  1
  O  O608  1  0.08854910  0.85088113  0.07874297  1
  O  O609  1  0.08954499  0.85108723  0.32797209  1
  O  O610  1  0.08932783  0.85231547  0.57745300  1
  O  O611  1  0.08619647  0.85224194  0.82770050  1
  O  O612  1  0.58462706  0.18564157  0.07726931  1
  O  O613  1  0.58666989  0.18454567  0.32791148  1
  O  O614  1  0.58707794  0.18587342  0.57660383  1
  O  O615  1  0.58498394  0.18457802  0.82656288  1
  O  O616  1  0.58579129  0.51723601  0.07756955  1
  O  O617  1  0.58691181  0.51756170  0.32826806  1
  O  O618  1  0.58529619  0.51716632  0.57759488  1
  O  O619  1  0.58775076  0.51946237  0.82758089  1
  O  O620  1  0.58634820  0.85204997  0.07690934  1
  O  O621  1  0.58816094  0.85262915  0.32808995  1
  O  O622  1  0.58710726  0.85247081  0.57737785  1
  O  O623  1  0.58683845  0.85063365  0.82751793  1
  O  O624  1  0.33937501  0.18380688  0.04701906  1
  O  O625  1  0.33846500  0.18486115  0.29781987  1
  O  O626  1  0.33981116  0.18575720  0.54762270  1
  O  O627  1  0.33972423  0.18528946  0.79617064  1
  O  O628  1  0.33903718  0.51957399  0.04836299  1
  O  O629  1  0.33635359  0.51751506  0.29697363  1
  O  O630  1  0.33868333  0.51855379  0.54789848  1
  O  O631  1  0.33660198  0.51723789  0.79650239  1
  O  O632  1  0.33926272  0.85103048  0.04774556  1
  O  O633  1  0.33677900  0.85265735  0.29748966  1
  O  O634  1  0.33601652  0.85042522  0.54807087  1
  O  O635  1  0.33997029  0.85303891  0.79768128  1
  O  O636  1  0.83767679  0.18517781  0.04708251  1
  O  O637  1  0.83765350  0.18434836  0.29785829  1
  O  O638  1  0.83762168  0.18493841  0.54699095  1
  O  O639  1  0.83940309  0.18511945  0.79662937  1
  O  O640  1  0.83564261  0.51848671  0.04903389  1
  O  O641  1  0.83844825  0.51933668  0.29733677  1
  O  O642  1  0.83724229  0.51711197  0.54706639  1
  O  O643  1  0.83709873  0.51700662  0.79692897  1
  O  O644  1  0.83595761  0.85110607  0.04718120  1
  O  O645  1  0.83804079  0.85098161  0.29740977  1
  O  O646  1  0.83569728  0.85252961  0.54813616  1
  O  O647  1  0.83715661  0.85258906  0.79834452  1
  O  O648  1  0.16470406  0.14930297  0.20258502  1
  O  O649  1  0.16228971  0.14805739  0.45265229  1
  O  O650  1  0.16367003  0.14859057  0.70147015  1
  O  O651  1  0.16587637  0.14841193  0.95130122  1
  O  O652  1  0.16455981  0.48081076  0.20257104  1
  O  O653  1  0.16415590  0.48128433  0.45298941  1
  O  O654  1  0.16332202  0.48160384  0.70174384  1
  O  O655  1  0.16327926  0.48162777  0.95253593  1
  O  O656  1  0.16045463  0.81502446  0.20291233  1
  O  O657  1  0.16322968  0.81630857  0.45288004  1
  O  O658  1  0.16153544  0.81432038  0.70248223  1
  O  O659  1  0.16472136  0.81533052  0.95269938  1
  O  O660  1  0.66358323  0.14845126  0.20236016  1
  O  O661  1  0.66294330  0.14914506  0.45206326  1
  O  O662  1  0.66430424  0.14778365  0.70215327  1
  O  O663  1  0.66160037  0.14772397  0.95213477  1
  O  O664  1  0.66037748  0.48140112  0.20262532  1
  O  O665  1  0.66167607  0.48035431  0.45213840  1
  O  O666  1  0.66315613  0.48078337  0.70116068  1
  O  O667  1  0.66097045  0.48294953  0.95388843  1
  O  O668  1  0.66416523  0.81518457  0.20213607  1
  O  O669  1  0.66289393  0.81604607  0.45316560  1
  O  O670  1  0.66129579  0.81625838  0.70376265  1
  O  O671  1  0.66078881  0.81475760  0.95220164  1
