# generated using pymatgen
data_Na2MnFe(PO4)2
_symmetry_space_group_name_H-M   'P 1'
_cell_length_a   21.08571933
_cell_length_b   18.93843930
_cell_length_c   20.04460300
_cell_angle_alpha   90.00037956
_cell_angle_beta   90.00067280
_cell_angle_gamma   89.99924245
_symmetry_Int_Tables_number   1
_chemical_formula_structural   Na2MnFe(PO4)2
_chemical_formula_sum   'Na96 Mn48 Fe48 P96 O384'
_cell_volume   8004.42365544
_cell_formula_units_Z   48
loop_
 _symmetry_equiv_pos_site_id
 _symmetry_equiv_pos_as_xyz
  1  'x, y, z'
loop_
 _atom_site_type_symbol
 _atom_site_label
 _atom_site_symmetry_multiplicity
 _atom_site_fract_x
 _atom_site_fract_y
 _atom_site_fract_z
 _atom_site_occupancy
  Na  Na0  1  -0.00059701  -0.00007353  0.00001849  1
  Na  Na1  1  -0.00071672  0.00020458  0.24956948  1
  Na  Na2  1  -0.00029671  0.00011848  0.50012395  1
  Na  Na3  1  0.00064343  0.00033673  0.75055309  1
  Na  Na4  1  0.00110271  0.33315532  0.00009054  1
  Na  Na5  1  0.00044030  0.33323780  0.25013021  1
  Na  Na6  1  0.00022972  0.33294186  0.50040216  1
  Na  Na7  1  0.00175945  0.33359780  0.74962406  1
  Na  Na8  1  0.00108298  0.66689296  -0.00043978  1
  Na  Na9  1  0.00007405  0.66576058  0.24986031  1
  Na  Na10  1  0.00091938  0.66664230  0.49953515  1
  Na  Na11  1  0.00038648  0.66693697  0.75119134  1
  Na  Na12  1  0.50031554  -0.00051061  0.00097808  1
  Na  Na13  1  0.50325614  0.00094395  0.24872092  1
  Na  Na14  1  0.50010543  -0.00017852  0.50003258  1
  Na  Na15  1  0.49751602  -0.00108519  0.75077256  1
  Na  Na16  1  0.50146524  0.33370862  0.00053429  1
  Na  Na17  1  0.50100392  0.33368929  0.24889731  1
  Na  Na18  1  0.49832461  0.33291219  0.50071708  1
  Na  Na19  1  0.50062651  0.33398362  0.74991298  1
  Na  Na20  1  0.49820315  0.66651221  -0.00053188  1
  Na  Na21  1  0.49812771  0.66612609  0.25047275  1
  Na  Na22  1  0.49976405  0.66719549  0.49878619  1
  Na  Na23  1  0.49792588  0.66623189  0.75065539  1
  Na  Na24  1  0.24909611  -0.00030532  0.12548015  1
  Na  Na25  1  0.24799281  -0.00020992  0.37558969  1
  Na  Na26  1  0.24957669  -0.00056716  0.62486006  1
  Na  Na27  1  0.25140308  0.00029369  0.87430352  1
  Na  Na28  1  0.24936970  0.33327778  0.12619333  1
  Na  Na29  1  0.24841667  0.33281630  0.37485050  1
  Na  Na30  1  0.25064384  0.33321584  0.62456846  1
  Na  Na31  1  0.24998231  0.33262104  0.87456094  1
  Na  Na32  1  0.24807188  0.66618465  0.12465241  1
  Na  Na33  1  0.24838553  0.66672044  0.37515194  1
  Na  Na34  1  0.24898923  0.66650896  0.62559100  1
  Na  Na35  1  0.24912604  0.66658646  0.87448279  1
  Na  Na36  1  0.74967207  0.00027158  0.12551638  1
  Na  Na37  1  0.75021830  0.00007388  0.37565920  1
  Na  Na38  1  0.75196582  0.00041813  0.62438530  1
  Na  Na39  1  0.74994918  -0.00053969  0.87462098  1
  Na  Na40  1  0.74890641  0.33308441  0.12489733  1
  Na  Na41  1  0.75212567  0.33414821  0.37635529  1
  Na  Na42  1  0.74854070  0.33322519  0.62476804  1
  Na  Na43  1  0.74668695  0.33273082  0.87403180  1
  Na  Na44  1  0.75260610  0.66746348  0.12569350  1
  Na  Na45  1  0.75186627  0.66631553  0.37586397  1
  Na  Na46  1  0.75134028  0.66698666  0.62374022  1
  Na  Na47  1  0.75088961  0.66684377  0.87390222  1
  Na  Na48  1  0.00081849  0.16697789  -0.00067001  1
  Na  Na49  1  -0.00021306  0.16737337  0.25026208  1
  Na  Na50  1  0.00250736  0.16605042  0.49988754  1
  Na  Na51  1  0.00215710  0.16668174  0.75053842  1
  Na  Na52  1  -0.00067625  0.50047670  0.00058446  1
  Na  Na53  1  -0.00068323  0.50028512  0.25044928  1
  Na  Na54  1  -0.00071760  0.50029998  0.49953896  1
  Na  Na55  1  -0.00087102  0.50088716  0.75039664  1
  Na  Na56  1  0.00160163  0.83258104  -0.00028016  1
  Na  Na57  1  0.00094907  0.83291878  0.24883815  1
  Na  Na58  1  -0.00092939  0.83425120  0.50065437  1
  Na  Na59  1  0.00021082  0.83312983  0.75029254  1
  Na  Na60  1  0.50146443  0.16651855  0.00066582  1
  Na  Na61  1  0.50364384  0.16558389  0.24883731  1
  Na  Na62  1  0.50067589  0.16709292  0.50030055  1
  Na  Na63  1  0.49945638  0.16713328  0.75076756  1
  Na  Na64  1  0.49931393  0.49959055  -0.00033470  1
  Na  Na65  1  0.49888676  0.49989765  0.24956348  1
  Na  Na66  1  0.49785833  0.50012154  0.50023143  1
  Na  Na67  1  0.49869542  0.49934182  0.74968189  1
  Na  Na68  1  0.49997391  0.83329055  0.00071163  1
  Na  Na69  1  0.50066376  0.83312685  0.24971775  1
  Na  Na70  1  0.49895619  0.83329012  0.49885467  1
  Na  Na71  1  0.49813040  0.83370036  0.75088631  1
  Na  Na72  1  0.24882144  0.16649004  0.12601919  1
  Na  Na73  1  0.24676345  0.16734685  0.37561448  1
  Na  Na74  1  0.24796151  0.16725597  0.62429694  1
  Na  Na75  1  0.24962003  0.16724512  0.87396515  1
  Na  Na76  1  0.24993886  0.49963172  0.12634740  1
  Na  Na77  1  0.24777678  0.50100042  0.37404070  1
  Na  Na78  1  0.25230661  0.49885963  0.62499329  1
  Na  Na79  1  0.25169137  0.49983615  0.87428031  1
  Na  Na80  1  0.24909582  0.83335840  0.12360062  1
  Na  Na81  1  0.24949070  0.83291556  0.37627825  1
  Na  Na82  1  0.25034883  0.83284160  0.62524038  1
  Na  Na83  1  0.24896827  0.83371186  0.87540939  1
  Na  Na84  1  0.74810798  0.16741005  0.12570974  1
  Na  Na85  1  0.75040562  0.16674845  0.37544619  1
  Na  Na86  1  0.75028987  0.16698073  0.62389645  1
  Na  Na87  1  0.74841817  0.16676123  0.87557549  1
  Na  Na88  1  0.75328530  0.49934547  0.12549545  1
  Na  Na89  1  0.75324229  0.49933392  0.37573702  1
  Na  Na90  1  0.75068178  0.49972443  0.62527672  1
  Na  Na91  1  0.74866662  0.50082706  0.87338391  1
  Na  Na92  1  0.74839910  0.83429948  0.12531417  1
  Na  Na93  1  0.75047156  0.83359439  0.37652682  1
  Na  Na94  1  0.75068214  0.83346532  0.62384130  1
  Na  Na95  1  0.75141163  0.83257911  0.87322172  1
  Mn  Mn96  1  0.60788240  0.74929389  0.12302401  1
  Mn  Mn97  1  0.14281464  0.58302653  0.74707534  1
  Mn  Mn98  1  0.89183540  0.91636069  0.12727342  1
  Mn  Mn99  1  0.89160855  0.25058345  0.12708257  1
  Mn  Mn100  1  0.64185398  0.58371306  0.74658883  1
  Mn  Mn101  1  0.85719438  0.41685368  0.00157752  1
  Mn  Mn102  1  0.60835916  0.41757255  0.12315512  1
  Mn  Mn103  1  0.35678811  0.74972284  0.00258017  1
  Mn  Mn104  1  0.60744435  0.08276736  0.62317224  1
  Mn  Mn105  1  0.35734309  0.08393387  0.50165215  1
  Mn  Mn106  1  0.10751609  0.08308909  0.12262986  1
  Mn  Mn107  1  0.64223748  0.91677081  0.74727542  1
  Mn  Mn108  1  0.64243445  0.58391706  0.99843393  1
  Mn  Mn109  1  0.85708188  0.41604531  0.75217340  1
  Mn  Mn110  1  0.64241611  0.58306428  0.49831522  1
  Mn  Mn111  1  0.60768135  0.75000150  0.37220795  1
  Mn  Mn112  1  0.89323645  0.24981013  0.62812154  1
  Mn  Mn113  1  0.14262614  0.91724397  0.99722135  1
  Mn  Mn114  1  0.85691469  0.08329047  0.00234593  1
  Mn  Mn115  1  0.60749951  0.08327821  0.87235596  1
  Mn  Mn116  1  0.35667779  0.41668888  0.25277056  1
  Mn  Mn117  1  0.64210941  0.25040771  0.49771540  1
  Mn  Mn118  1  0.14132878  0.91664399  0.49778718  1
  Mn  Mn119  1  0.89237001  0.58326322  0.87735291  1
  Mn  Mn120  1  0.39259568  0.91627938  0.12791393  1
  Mn  Mn121  1  0.39218785  0.24932683  0.37631767  1
  Mn  Mn122  1  0.89223532  0.25042471  0.87668246  1
  Mn  Mn123  1  0.10758358  0.41700846  0.12242277  1
  Mn  Mn124  1  0.60813157  0.41649753  0.37304872  1
  Mn  Mn125  1  0.39232790  0.24928232  0.87771556  1
  Mn  Mn126  1  0.39211715  0.91751414  0.37602333  1
  Mn  Mn127  1  0.35733395  0.74934177  0.50290289  1
  Mn  Mn128  1  0.85874588  0.74955101  0.50266281  1
  Mn  Mn129  1  0.85882514  0.08401570  0.50224837  1
  Mn  Mn130  1  0.89262236  0.91672104  0.87701595  1
  Mn  Mn131  1  0.35735834  0.08304385  0.75182627  1
  Mn  Mn132  1  0.10909176  0.41710492  0.87295651  1
  Mn  Mn133  1  0.10870113  0.08279073  0.87273331  1
  Mn  Mn134  1  0.10841258  0.41725777  0.62222247  1
  Mn  Mn135  1  0.85856548  0.75057806  0.25263922  1
  Mn  Mn136  1  0.10753794  0.75025004  0.37227316  1
  Mn  Mn137  1  0.35766616  0.08272283  0.25263654  1
  Mn  Mn138  1  0.64222773  0.91670403  0.49837711  1
  Mn  Mn139  1  0.60791172  0.74957222  0.87252694  1
  Mn  Mn140  1  0.64316023  0.58317230  0.24769697  1
  Mn  Mn141  1  0.39080805  0.58289096  0.37710255  1
  Mn  Mn142  1  0.39266804  0.24992038  0.12735487  1
  Mn  Mn143  1  0.39175885  0.58340838  0.87770959  1
  Fe  Fe144  1  0.10647459  0.08329739  0.37280051  1
  Fe  Fe145  1  0.39207307  0.24990159  0.62648305  1
  Fe  Fe146  1  0.60653880  0.74951647  0.62405845  1
  Fe  Fe147  1  0.39133724  0.58347248  0.12657022  1
  Fe  Fe148  1  0.14336398  0.24976632  0.74797520  1
  Fe  Fe149  1  0.85795590  0.08363986  0.75135147  1
  Fe  Fe150  1  0.35695050  0.75011796  0.75137251  1
  Fe  Fe151  1  0.35747855  0.41600282  0.00156268  1
  Fe  Fe152  1  0.60839371  0.08350687  0.37319906  1
  Fe  Fe153  1  0.14156505  0.91648658  0.24842013  1
  Fe  Fe154  1  0.14229402  0.58240328  0.49883887  1
  Fe  Fe155  1  0.89346393  0.91644344  0.62713219  1
  Fe  Fe156  1  0.64225224  0.25009939  0.99796201  1
  Fe  Fe157  1  0.64218545  0.24945567  0.74791629  1
  Fe  Fe158  1  0.35576850  0.75039787  0.25077680  1
  Fe  Fe159  1  0.35654686  0.41643921  0.50089609  1
  Fe  Fe160  1  0.85788920  0.75043455  0.75108347  1
  Fe  Fe161  1  0.14328215  0.25035480  0.99866062  1
  Fe  Fe162  1  0.64383176  0.25029200  0.24939089  1
  Fe  Fe163  1  0.10729324  0.74990523  0.12309422  1
  Fe  Fe164  1  0.10732249  0.75003123  0.87284138  1
  Fe  Fe165  1  0.89270675  0.91708409  0.37595311  1
  Fe  Fe166  1  0.85839776  0.41655546  0.50265632  1
  Fe  Fe167  1  0.89336426  0.58348143  0.12660999  1
  Fe  Fe168  1  0.35778682  0.41639033  0.75164462  1
  Fe  Fe169  1  0.89335747  0.25002913  0.37660148  1
  Fe  Fe170  1  0.14320402  0.91686726  0.74798065  1
  Fe  Fe171  1  0.60838536  0.08307746  0.12301794  1
  Fe  Fe172  1  0.10707769  0.75022885  0.62416204  1
  Fe  Fe173  1  0.10735232  0.08262560  0.62353499  1
  Fe  Fe174  1  0.85671458  0.08393737  0.25177950  1
  Fe  Fe175  1  0.39193988  0.58379290  0.62596625  1
  Fe  Fe176  1  0.14272517  0.25098203  0.49805168  1
  Fe  Fe177  1  0.10671709  0.41627287  0.37389509  1
  Fe  Fe178  1  0.14161188  0.24969154  0.24820121  1
  Fe  Fe179  1  0.14179107  0.58386761  0.24765689  1
  Fe  Fe180  1  0.89351454  0.58391648  0.62650937  1
  Fe  Fe181  1  0.60576874  0.41758511  0.62299037  1
  Fe  Fe182  1  0.85823346  0.41574208  0.25237038  1
  Fe  Fe183  1  0.85796126  0.75023973  0.00145525  1
  Fe  Fe184  1  0.64337450  0.91692145  0.24900192  1
  Fe  Fe185  1  0.39205545  0.91634857  0.62665058  1
  Fe  Fe186  1  0.14283950  0.58215139  0.99865024  1
  Fe  Fe187  1  0.35748259  0.08411103  0.00213683  1
  Fe  Fe188  1  0.39219040  0.91678525  0.87718271  1
  Fe  Fe189  1  0.89385524  0.58315721  0.37693224  1
  Fe  Fe190  1  0.64288214  0.91600137  0.99791302  1
  Fe  Fe191  1  0.60674075  0.41720411  0.87327913  1
  P  P192  1  0.05458674  0.24991228  0.11010847  1
  P  P193  1  0.05406334  0.25043668  0.36105971  1
  P  P194  1  0.05593320  0.24932030  0.61062698  1
  P  P195  1  0.05599380  0.25026455  0.86029070  1
  P  P196  1  0.05413743  0.58401858  0.11048361  1
  P  P197  1  0.05424958  0.58217929  0.36084945  1
  P  P198  1  0.05301711  0.58417886  0.60968977  1
  P  P199  1  0.05520652  0.58371544  0.86123571  1
  P  P200  1  0.05425551  0.91611443  0.11066749  1
  P  P201  1  0.05223825  0.91733472  0.35937886  1
  P  P202  1  0.05357928  0.91657907  0.61180216  1
  P  P203  1  0.05458716  0.91601045  0.85926428  1
  P  P204  1  0.55619095  0.24979462  0.11094547  1
  P  P205  1  0.55403985  0.24967021  0.35917508  1
  P  P206  1  0.55311363  0.25078995  0.61142692  1
  P  P207  1  0.55500723  0.25084890  0.86052915  1
  P  P208  1  0.55144935  0.58346326  0.10989052  1
  P  P209  1  0.55290138  0.58274757  0.35972173  1
  P  P210  1  0.55136187  0.58360893  0.61008995  1
  P  P211  1  0.55320263  0.58263837  0.85988470  1
  P  P212  1  0.55600637  0.91682469  0.11075354  1
  P  P213  1  0.55421851  0.91755220  0.35923193  1
  P  P214  1  0.55158664  0.91531311  0.61038820  1
  P  P215  1  0.55320651  0.91638754  0.86105618  1
  P  P216  1  0.44715879  0.08348818  0.13910287  1
  P  P217  1  0.44854779  0.08346254  0.38971780  1
  P  P218  1  0.44626139  0.08343021  0.63991338  1
  P  P219  1  0.44574027  0.08260781  0.89111801  1
  P  P220  1  0.44489938  0.41725153  0.13891273  1
  P  P221  1  0.44573777  0.41604452  0.39062077  1
  P  P222  1  0.44475293  0.41659084  0.63889682  1
  P  P223  1  0.44581983  0.41605695  0.88966237  1
  P  P224  1  0.44548733  0.74905969  0.14075482  1
  P  P225  1  0.44453675  0.75032451  0.38839888  1
  P  P226  1  0.44661295  0.74979961  0.64039928  1
  P  P227  1  0.44496888  0.75099193  0.88919948  1
  P  P228  1  0.94549644  0.08378850  0.14069184  1
  P  P229  1  0.94640499  0.08374912  0.38835308  1
  P  P230  1  0.94788096  0.08306710  0.64076524  1
  P  P231  1  0.94585925  0.08374893  0.88915579  1
  P  P232  1  0.94594235  0.41729921  0.14049142  1
  P  P233  1  0.94615966  0.41606653  0.38941911  1
  P  P234  1  0.94632717  0.41747640  0.63927766  1
  P  P235  1  0.94732915  0.41635765  0.89016486  1
  P  P236  1  0.94692977  0.74925211  0.13860468  1
  P  P237  1  0.94689987  0.75025738  0.38977878  1
  P  P238  1  0.94775223  0.74964877  0.64055562  1
  P  P239  1  0.94636824  0.75019844  0.88951132  1
  P  P240  1  0.19453616  0.08297937  0.23651910  1
  P  P241  1  0.19401892  0.08401017  0.48567175  1
  P  P242  1  0.19609659  0.08285362  0.73421327  1
  P  P243  1  0.19818617  0.08425154  0.98495508  1
  P  P244  1  0.19404475  0.41656468  0.23673547  1
  P  P245  1  0.19688829  0.41683122  0.48454210  1
  P  P246  1  0.19842726  0.41616193  0.73468878  1
  P  P247  1  0.19827338  0.41669353  0.98541290  1
  P  P248  1  0.19597223  0.75049984  0.23437656  1
  P  P249  1  0.19461279  0.74898289  0.48672729  1
  P  P250  1  0.19596976  0.75099168  0.73575532  1
  P  P251  1  0.19430303  0.74876439  0.98536920  1
  P  P252  1  0.69616189  0.08359587  0.23633244  1
  P  P253  1  0.69629777  0.08336627  0.48465517  1
  P  P254  1  0.69806069  0.08372026  0.73462673  1
  P  P255  1  0.69497967  0.08273123  0.98614681  1
  P  P256  1  0.69874422  0.41614449  0.23572114  1
  P  P257  1  0.69695577  0.41721160  0.48639862  1
  P  P258  1  0.69396702  0.41603520  0.73498446  1
  P  P259  1  0.69584759  0.41683118  0.98410411  1
  P  P260  1  0.69741227  0.75051940  0.23549092  1
  P  P261  1  0.69540868  0.74968948  0.48629703  1
  P  P262  1  0.69759947  0.75017501  0.73348323  1
  P  P263  1  0.69825765  0.75047427  0.98472696  1
  P  P264  1  0.30249403  0.24981138  0.01524000  1
  P  P265  1  0.30141708  0.24943387  0.26514490  1
  P  P266  1  0.30258451  0.25059061  0.51476663  1
  P  P267  1  0.30390570  0.25034234  0.76339469  1
  P  P268  1  0.30237611  0.58244879  0.01558364  1
  P  P269  1  0.30209941  0.58472256  0.26359935  1
  P  P270  1  0.30196358  0.58231591  0.51527180  1
  P  P271  1  0.30516347  0.58362464  0.76333535  1
  P  P272  1  0.30463297  0.91783369  0.01408108  1
  P  P273  1  0.30112057  0.91574207  0.26490956  1
  P  P274  1  0.30351392  0.91693602  0.51542630  1
  P  P275  1  0.30418862  0.91554592  0.76428876  1
  P  P276  1  0.80148282  0.25016424  0.01468056  1
  P  P277  1  0.80338233  0.24996342  0.26571409  1
  P  P278  1  0.80543453  0.25083319  0.51417331  1
  P  P279  1  0.80192660  0.24920323  0.76470903  1
  P  P280  1  0.80429156  0.58436782  0.01542645  1
  P  P281  1  0.80620435  0.58254021  0.26482199  1
  P  P282  1  0.80623646  0.58236718  0.51466897  1
  P  P283  1  0.80490608  0.58433217  0.76308745  1
  P  P284  1  0.80239173  0.91569860  0.01469914  1
  P  P285  1  0.80291043  0.91769661  0.26570493  1
  P  P286  1  0.80610204  0.91689628  0.51466253  1
  P  P287  1  0.80529864  0.91676756  0.76311828  1
  O  O288  1  0.05858685  0.24988023  0.18691033  1
  O  O289  1  0.05851942  0.25070656  0.43777199  1
  O  O290  1  0.06024203  0.25055563  0.68742279  1
  O  O291  1  0.06045392  0.25029618  0.93709870  1
  O  O292  1  0.05849680  0.58338084  0.18728013  1
  O  O293  1  0.05883929  0.58266475  0.43751792  1
  O  O294  1  0.05673061  0.58317438  0.68643741  1
  O  O295  1  0.05928674  0.58241944  0.93796767  1
  O  O296  1  0.05815836  0.91674481  0.18741265  1
  O  O297  1  0.05561699  0.91682322  0.43614495  1
  O  O298  1  0.05834690  0.91658777  0.68838955  1
  O  O299  1  0.05737976  0.91712694  0.93609250  1
  O  O300  1  0.56065982  0.25056616  0.18766893  1
  O  O301  1  0.55648686  0.25065485  0.43603468  1
  O  O302  1  0.55785057  0.24988106  0.68809546  1
  O  O303  1  0.55900737  0.25001673  0.93734305  1
  O  O304  1  0.55609529  0.58328736  0.18653543  1
  O  O305  1  0.55661987  0.58278714  0.43647639  1
  O  O306  1  0.55492145  0.58336972  0.68677917  1
  O  O307  1  0.55650376  0.58351331  0.93661329  1
  O  O308  1  0.56053210  0.91638526  0.18748375  1
  O  O309  1  0.55675117  0.91663517  0.43604845  1
  O  O310  1  0.55540933  0.91618082  0.68710468  1
  O  O311  1  0.55850755  0.91599538  0.93768552  1
  O  O312  1  0.44163051  0.08384330  0.06252102  1
  O  O313  1  0.44449383  0.08337961  0.31298569  1
  O  O314  1  0.44360268  0.08382652  0.56315058  1
  O  O315  1  0.44222937  0.08351685  0.81432682  1
  O  O316  1  0.44066640  0.41630835  0.06213284  1
  O  O317  1  0.44239132  0.41617530  0.31379343  1
  O  O318  1  0.44001210  0.41629656  0.56221659  1
  O  O319  1  0.44095679  0.41587517  0.81293156  1
  O  O320  1  0.44233686  0.74991672  0.06394027  1
  O  O321  1  0.43963920  0.75029019  0.31174001  1
  O  O322  1  0.44350904  0.74980676  0.56359706  1
  O  O323  1  0.44064747  0.75042903  0.81249374  1
  O  O324  1  0.94240541  0.08385342  0.06384280  1
  O  O325  1  0.94138469  0.08400694  0.31174671  1
  O  O326  1  0.94439553  0.08399120  0.56400364  1
  O  O327  1  0.94141477  0.08411108  0.81242378  1
  O  O328  1  0.94279383  0.41616037  0.06372479  1
  O  O329  1  0.94203530  0.41571508  0.31267492  1
  O  O330  1  0.94256061  0.41643590  0.56248806  1
  O  O331  1  0.94360506  0.41605932  0.81338642  1
  O  O332  1  0.94240851  0.75019938  0.06194154  1
  O  O333  1  0.94451891  0.75009258  0.31297473  1
  O  O334  1  0.94459593  0.74978149  0.56380195  1
  O  O335  1  0.94141684  0.75017177  0.81287131  1
  O  O336  1  0.19417220  0.08320180  0.06163797  1
  O  O337  1  0.19019477  0.08300612  0.31330879  1
  O  O338  1  0.19036541  0.08258522  0.56243328  1
  O  O339  1  0.19397360  0.08281295  0.81102638  1
  O  O340  1  0.19443000  0.41693256  0.06210040  1
  O  O341  1  0.19005297  0.41663841  0.31346117  1
  O  O342  1  0.19412321  0.41687121  0.56127883  1
  O  O343  1  0.19486128  0.41693396  0.81135556  1
  O  O344  1  0.19044853  0.74975428  0.06215833  1
  O  O345  1  0.19292796  0.75040596  0.31120711  1
  O  O346  1  0.19037979  0.74986361  0.56345923  1
  O  O347  1  0.19158865  0.75038094  0.81245520  1
  O  O348  1  0.69184165  0.08289174  0.06300207  1
  O  O349  1  0.69224630  0.08345285  0.31307135  1
  O  O350  1  0.69269475  0.08326964  0.56142452  1
  O  O351  1  0.69392511  0.08288829  0.81133669  1
  O  O352  1  0.69370053  0.41779541  0.06097596  1
  O  O353  1  0.69505326  0.41701785  0.31239455  1
  O  O354  1  0.69068635  0.41744434  0.56295904  1
  O  O355  1  0.68990652  0.41729839  0.81173027  1
  O  O356  1  0.69430705  0.74970322  0.06140816  1
  O  O357  1  0.69445863  0.74951612  0.31228281  1
  O  O358  1  0.69034322  0.74962514  0.56297309  1
  O  O359  1  0.69344260  0.74985429  0.81021080  1
  O  O360  1  0.30605230  0.24935893  0.18851985  1
  O  O361  1  0.30613307  0.24953616  0.43810656  1
  O  O362  1  0.30856025  0.24977423  0.68673500  1
  O  O363  1  0.30596288  0.24971749  0.93849112  1
  O  O364  1  0.30696933  0.58381619  0.18699623  1
  O  O365  1  0.30500315  0.58350013  0.43851259  1
  O  O366  1  0.30894664  0.58376436  0.68657810  1
  O  O367  1  0.30606072  0.58339834  0.93879844  1
  O  O368  1  0.30538005  0.91661005  0.18821611  1
  O  O369  1  0.30673100  0.91706721  0.43866262  1
  O  O370  1  0.30886418  0.91604353  0.68755462  1
  O  O371  1  0.30837330  0.91707786  0.93729179  1
  O  O372  1  0.80607368  0.25005463  0.18897047  1
  O  O373  1  0.81005017  0.25007145  0.43746653  1
  O  O374  1  0.80618495  0.25003797  0.68800976  1
  O  O375  1  0.80556204  0.25011105  0.93804036  1
  O  O376  1  0.81014946  0.58361020  0.18804025  1
  O  O377  1  0.81070423  0.58314253  0.43788757  1
  O  O378  1  0.80941427  0.58380705  0.68638424  1
  O  O379  1  0.80669351  0.58354029  0.93856678  1
  O  O380  1  0.80629191  0.91694996  0.18896849  1
  O  O381  1  0.81035975  0.91695644  0.43789862  1
  O  O382  1  0.80958092  0.91667421  0.68633872  1
  O  O383  1  0.80629589  0.91613871  0.93799502  1
  O  O384  1  0.23254050  0.25003002  0.04025000  1
  O  O385  1  0.23118840  0.24978637  0.28900725  1
  O  O386  1  0.23238385  0.25046246  0.53902014  1
  O  O387  1  0.23353844  0.24973554  0.78707026  1
  O  O388  1  0.23226821  0.58275064  0.03998085  1
  O  O389  1  0.23167596  0.58420588  0.28725815  1
  O  O390  1  0.23204288  0.58233100  0.54033114  1
  O  O391  1  0.23523911  0.58360155  0.78787118  1
  O  O392  1  0.23460275  0.91696043  0.03830158  1
  O  O393  1  0.23110190  0.91626259  0.28955788  1
  O  O394  1  0.23359990  0.91644509  0.53995851  1
  O  O395  1  0.23379237  0.91684853  0.78787226  1
  O  O396  1  0.73140998  0.25027374  0.03905063  1
  O  O397  1  0.73344928  0.25024447  0.29090769  1
  O  O398  1  0.73527413  0.25035568  0.53792851  1
  O  O399  1  0.73180284  0.24960303  0.78888560  1
  O  O400  1  0.73477849  0.58356527  0.04118122  1
  O  O401  1  0.73624257  0.58300734  0.28935758  1
  O  O402  1  0.73608541  0.58294965  0.53848750  1
  O  O403  1  0.73476820  0.58386042  0.78694767  1
  O  O404  1  0.73246551  0.91657526  0.03942121  1
  O  O405  1  0.73288900  0.91713193  0.29039872  1
  O  O406  1  0.73590888  0.91710045  0.53840792  1
  O  O407  1  0.73531609  0.91631276  0.78750054  1
  O  O408  1  0.26450210  0.08295684  0.21212590  1
  O  O409  1  0.26403775  0.08367736  0.46122891  1
  O  O410  1  0.26566154  0.08310530  0.70863107  1
  O  O411  1  0.26806871  0.08410597  0.96004400  1
  O  O412  1  0.26405722  0.41650528  0.21245103  1
  O  O413  1  0.26674618  0.41674157  0.45925764  1
  O  O414  1  0.26843346  0.41631153  0.71008140  1
  O  O415  1  0.26820906  0.41643840  0.96042922  1
  O  O416  1  0.26580088  0.75016871  0.20912395  1
  O  O417  1  0.26459088  0.74964459  0.46248668  1
  O  O418  1  0.26627376  0.74995305  0.71185417  1
  O  O419  1  0.26438023  0.74978317  0.96128613  1
  O  O420  1  0.76646312  0.08388149  0.21208275  1
  O  O421  1  0.76625860  0.08342170  0.46048750  1
  O  O422  1  0.76807345  0.08366528  0.70997534  1
  O  O423  1  0.76472285  0.08279990  0.96100408  1
  O  O424  1  0.76878715  0.41584195  0.21111173  1
  O  O425  1  0.76755863  0.41697162  0.46378034  1
  O  O426  1  0.76416708  0.41650153  0.71114102  1
  O  O427  1  0.76534222  0.41703647  0.95820311  1
  O  O428  1  0.76710837  0.75090577  0.21033828  1
  O  O429  1  0.76570288  0.74968244  0.46293211  1
  O  O430  1  0.76782730  0.75041092  0.70951686  1
  O  O431  1  0.76820772  0.74998433  0.95985025  1
  O  O432  1  0.01527683  0.08368317  0.16535840  1
  O  O433  1  0.01677704  0.08360257  0.41223020  1
  O  O434  1  0.01802747  0.08335309  0.66508701  1
  O  O435  1  0.01593885  0.08324424  0.91316615  1
  O  O436  1  0.01573715  0.41686383  0.16529436  1
  O  O437  1  0.01654189  0.41630275  0.41347532  1
  O  O438  1  0.01630798  0.41733710  0.66372522  1
  O  O439  1  0.01702457  0.41674041  0.91507934  1
  O  O440  1  0.01711241  0.74928772  0.16285798  1
  O  O441  1  0.01641524  0.75048412  0.41546780  1
  O  O442  1  0.01780587  0.74981297  0.66541074  1
  O  O443  1  0.01684337  0.75009204  0.91272122  1
  O  O444  1  0.51780293  0.08327619  0.16177281  1
  O  O445  1  0.51850765  0.08352660  0.41433754  1
  O  O446  1  0.51574498  0.08302601  0.66589998  1
  O  O447  1  0.51562436  0.08299169  0.91554127  1
  O  O448  1  0.51498571  0.41696095  0.16305316  1
  O  O449  1  0.51544739  0.41633252  0.41555099  1
  O  O450  1  0.51520420  0.41678483  0.66259935  1
  O  O451  1  0.51619736  0.41646675  0.91305512  1
  O  O452  1  0.51529147  0.74968633  0.16552622  1
  O  O453  1  0.51470109  0.75027095  0.41209595  1
  O  O454  1  0.51652855  0.74976530  0.66568000  1
  O  O455  1  0.51495931  0.75018064  0.91352256  1
  O  O456  1  0.48600241  0.25015192  0.08704379  1
  O  O457  1  0.48455852  0.24978589  0.33331596  1
  O  O458  1  0.48274299  0.25047394  0.58762238  1
  O  O459  1  0.48488269  0.25013642  0.83658478  1
  O  O460  1  0.48137487  0.58335533  0.08553952  1
  O  O461  1  0.48297596  0.58263515  0.33532981  1
  O  O462  1  0.48131246  0.58360497  0.58525243  1
  O  O463  1  0.48337905  0.58276863  0.83518675  1
  O  O464  1  0.48569774  0.91617831  0.08733174  1
  O  O465  1  0.48464571  0.91720074  0.33356476  1
  O  O466  1  0.48157695  0.91599401  0.58566288  1
  O  O467  1  0.48277273  0.91678256  0.83778515  1
  O  O468  1  0.98452848  0.25000394  0.08607570  1
  O  O469  1  0.98366001  0.25029943  0.33717282  1
  O  O470  1  0.98581509  0.24969872  0.58675208  1
  O  O471  1  0.98590013  0.25025257  0.83632880  1
  O  O472  1  0.98384621  0.58342847  0.08668199  1
  O  O473  1  0.98377539  0.58287688  0.33736096  1
  O  O474  1  0.98299904  0.58381163  0.58517773  1
  O  O475  1  0.98523952  0.58385331  0.83698701  1
  O  O476  1  0.98436799  0.91652720  0.08606125  1
  O  O477  1  0.98221331  0.91669657  0.33462787  1
  O  O478  1  0.98326088  0.91669706  0.58777304  1
  O  O479  1  0.98487340  0.91659721  0.83440520  1
  O  O480  1  0.08842774  0.31489439  0.07712022  1
  O  O481  1  0.08726248  0.31548123  0.32764976  1
  O  O482  1  0.08963348  0.31417167  0.57697560  1
  O  O483  1  0.08976659  0.31515712  0.82705764  1
  O  O484  1  0.08756298  0.64899571  0.07751269  1
  O  O485  1  0.08771290  0.64711125  0.32721202  1
  O  O486  1  0.08688302  0.64932265  0.57746131  1
  O  O487  1  0.08877769  0.64902245  0.82869641  1
  O  O488  1  0.08796769  0.98109113  0.07744628  1
  O  O489  1  0.08604492  0.98236264  0.32680467  1
  O  O490  1  0.08672302  0.98162692  0.57826420  1
  O  O491  1  0.08924716  0.98065466  0.82655836  1
  O  O492  1  0.58978110  0.31473038  0.07750618  1
  O  O493  1  0.58865912  0.31454446  0.32669802  1
  O  O494  1  0.58623399  0.31602919  0.57820408  1
  O  O495  1  0.58824172  0.31610011  0.82776424  1
  O  O496  1  0.58511715  0.64858500  0.07696608  1
  O  O497  1  0.58675742  0.64780870  0.32703995  1
  O  O498  1  0.58526934  0.64874872  0.57771547  1
  O  O499  1  0.58715215  0.64762058  0.82697123  1
  O  O500  1  0.58914138  0.98205925  0.07765993  1
  O  O501  1  0.58846547  0.98285968  0.32743043  1
  O  O502  1  0.58588011  0.98020198  0.57768714  1
  O  O503  1  0.58643531  0.98143999  0.82753758  1
  O  O504  1  0.41412716  0.01838860  0.17268885  1
  O  O505  1  0.41440056  0.01856698  0.42232077  1
  O  O506  1  0.41187554  0.01821601  0.67179355  1
  O  O507  1  0.41176772  0.01749848  0.92335379  1
  O  O508  1  0.41137426  0.35231164  0.17235485  1
  O  O509  1  0.41163313  0.35095994  0.42301697  1
  O  O510  1  0.41168151  0.35150821  0.67265701  1
  O  O511  1  0.41269813  0.35103767  0.92327978  1
  O  O512  1  0.41142599  0.68378674  0.17275338  1
  O  O513  1  0.41118662  0.68525019  0.42184002  1
  O  O514  1  0.41233005  0.68472817  0.67267780  1
  O  O515  1  0.41103371  0.68604673  0.92226329  1
  O  O516  1  0.91117624  0.01882104  0.17310044  1
  O  O517  1  0.91332751  0.01854975  0.42158163  1
  O  O518  1  0.91397399  0.01800855  0.67316071  1
  O  O519  1  0.91222923  0.01860558  0.92200155  1
  O  O520  1  0.91165548  0.35249438  0.17354844  1
  O  O521  1  0.91281105  0.35110705  0.42285884  1
  O  O522  1  0.91273263  0.35249638  0.67260785  1
  O  O523  1  0.91347688  0.35133686  0.92290801  1
  O  O524  1  0.91353967  0.68415033  0.17158148  1
  O  O525  1  0.91297285  0.68501339  0.42206553  1
  O  O526  1  0.91393380  0.68453102  0.67312567  1
  O  O527  1  0.91293097  0.68538523  0.92309066  1
  O  O528  1  0.16106874  0.01783498  0.20346052  1
  O  O529  1  0.15993400  0.01931765  0.45224786  1
  O  O530  1  0.16189823  0.01764216  0.70201806  1
  O  O531  1  0.16429527  0.01929400  0.95186362  1
  O  O532  1  0.16060900  0.35142096  0.20375311  1
  O  O533  1  0.16249618  0.35179444  0.45221887  1
  O  O534  1  0.16450079  0.35121270  0.70222092  1
  O  O535  1  0.16432887  0.35162783  0.95293107  1
  O  O536  1  0.16151237  0.68554586  0.20199513  1
  O  O537  1  0.16152290  0.68354851  0.45397763  1
  O  O538  1  0.16188417  0.68636495  0.70232861  1
  O  O539  1  0.16133856  0.68323775  0.95277661  1
  O  O540  1  0.66279017  0.01851044  0.20303551  1
  O  O541  1  0.66230425  0.01838559  0.45204316  1
  O  O542  1  0.66431770  0.01858377  0.70172393  1
  O  O543  1  0.66136654  0.01751151  0.95339671  1
  O  O544  1  0.66458187  0.35112634  0.20347257  1
  O  O545  1  0.66400518  0.35209959  0.45277719  1
  O  O546  1  0.66063338  0.35063136  0.70242679  1
  O  O547  1  0.66138114  0.35160044  0.95249206  1
  O  O548  1  0.66371247  0.68542705  0.20248462  1
  O  O549  1  0.66223555  0.68468803  0.45281350  1
  O  O550  1  0.66371714  0.68522194  0.70045578  1
  O  O551  1  0.66419393  0.68547420  0.95189128  1
  O  O552  1  0.33644097  0.31492154  0.04770437  1
  O  O553  1  0.33511844  0.31446123  0.29792784  1
  O  O554  1  0.33633253  0.31583075  0.54715897  1
  O  O555  1  0.33691782  0.31547589  0.79671714  1
  O  O556  1  0.33624536  0.64741902  0.04859037  1
  O  O557  1  0.33493969  0.65001738  0.29672069  1
  O  O558  1  0.33614557  0.64706774  0.54842926  1
  O  O559  1  0.33853576  0.64877304  0.79640269  1
  O  O560  1  0.33775236  0.98311637  0.04703692  1
  O  O561  1  0.33523115  0.98065831  0.29792405  1
  O  O562  1  0.33732612  0.98208473  0.54796514  1
  O  O563  1  0.33831607  0.98023959  0.79759592  1
  O  O564  1  0.83524893  0.31522778  0.04747488  1
  O  O565  1  0.83795001  0.31472918  0.29826217  1
  O  O566  1  0.83871719  0.31595803  0.54727842  1
  O  O567  1  0.83560636  0.31426919  0.79779051  1
  O  O568  1  0.83844108  0.64972100  0.04728989  1
  O  O569  1  0.84030766  0.64730986  0.29815333  1
  O  O570  1  0.84005716  0.64731762  0.54795336  1
  O  O571  1  0.83812675  0.64967742  0.79599441  1
  O  O572  1  0.83657963  0.98052266  0.04754725  1
  O  O573  1  0.83668350  0.98293489  0.29810270  1
  O  O574  1  0.83994661  0.98173056  0.54779231  1
  O  O575  1  0.83850845  0.98205929  0.79615689  1
  O  O576  1  0.41428113  0.14842876  0.17301411  1
  O  O577  1  0.41458533  0.14849255  0.42241615  1
  O  O578  1  0.41225297  0.14862095  0.67231591  1
  O  O579  1  0.41173942  0.14765936  0.92402337  1
  O  O580  1  0.41133080  0.48251431  0.17155894  1
  O  O581  1  0.41104673  0.48083560  0.42303328  1
  O  O582  1  0.41149059  0.48178113  0.67206179  1
  O  O583  1  0.41205788  0.48090125  0.92288965  1
  O  O584  1  0.41098342  0.81385757  0.17353620  1
  O  O585  1  0.41125856  0.81536427  0.42170089  1
  O  O586  1  0.41231860  0.81476213  0.67293744  1
  O  O587  1  0.41169589  0.81618074  0.92220116  1
  O  O588  1  0.91136091  0.14875893  0.17328380  1
  O  O589  1  0.91352716  0.14883978  0.42215099  1
  O  O590  1  0.91395956  0.14792090  0.67398726  1
  O  O591  1  0.91257849  0.14879457  0.92246550  1
  O  O592  1  0.91222077  0.48265884  0.17257789  1
  O  O593  1  0.91272461  0.48124452  0.42235617  1
  O  O594  1  0.91270474  0.48271572  0.67165388  1
  O  O595  1  0.91313276  0.48144162  0.92235873  1
  O  O596  1  0.91355321  0.81420836  0.17220501  1
  O  O597  1  0.91251474  0.81529574  0.42175343  1
  O  O598  1  0.91365050  0.81458570  0.67321152  1
  O  O599  1  0.91318404  0.81526259  0.92306425  1
  O  O600  1  0.08833379  0.18500593  0.07698780  1
  O  O601  1  0.08745036  0.18539895  0.32773393  1
  O  O602  1  0.08922677  0.18400570  0.57805257  1
  O  O603  1  0.08969902  0.18523426  0.82725470  1
  O  O604  1  0.08779234  0.51908325  0.07702334  1
  O  O605  1  0.08711454  0.51701004  0.32755742  1
  O  O606  1  0.08706213  0.51933463  0.57646651  1
  O  O607  1  0.08871360  0.51891249  0.82752795  1
  O  O608  1  0.08784766  0.85088494  0.07817394  1
  O  O609  1  0.08657578  0.85247092  0.32668656  1
  O  O610  1  0.08663152  0.85142716  0.57838657  1
  O  O611  1  0.08849755  0.85069070  0.82724608  1
  O  O612  1  0.58952946  0.18452435  0.07803577  1
  O  O613  1  0.58865962  0.18451851  0.32757818  1
  O  O614  1  0.58668845  0.18591952  0.57800734  1
  O  O615  1  0.58891169  0.18601203  0.82708615  1
  O  O616  1  0.58543044  0.51852661  0.07711039  1
  O  O617  1  0.58681808  0.51768545  0.32706720  1
  O  O618  1  0.58520160  0.51850398  0.57730740  1
  O  O619  1  0.58693363  0.51743343  0.82750631  1
  O  O620  1  0.58960102  0.85190171  0.07720658  1
  O  O621  1  0.58889038  0.85282668  0.32662200  1
  O  O622  1  0.58515891  0.85006535  0.57790124  1
  O  O623  1  0.58630597  0.85145221  0.82733326  1
  O  O624  1  0.33633749  0.18471351  0.04798879  1
  O  O625  1  0.33480177  0.18434199  0.29827305  1
  O  O626  1  0.33651434  0.18580301  0.54808791  1
  O  O627  1  0.33728335  0.18545117  0.79697937  1
  O  O628  1  0.33626388  0.51738499  0.04797604  1
  O  O629  1  0.33548188  0.51982185  0.29729840  1
  O  O630  1  0.33630909  0.51716179  0.54703842  1
  O  O631  1  0.33866059  0.51830181  0.79604954  1
  O  O632  1  0.33838254  0.85287782  0.04716036  1
  O  O633  1  0.33457802  0.85040036  0.29723536  1
  O  O634  1  0.33775960  0.85205728  0.54810036  1
  O  O635  1  0.33689400  0.85021509  0.79763592  1
  O  O636  1  0.83506788  0.18520235  0.04776960  1
  O  O637  1  0.83734257  0.18479275  0.29823689  1
  O  O638  1  0.83891275  0.18581730  0.54750073  1
  O  O639  1  0.83564334  0.18408086  0.79726780  1
  O  O640  1  0.83932774  0.51969859  0.04774504  1
  O  O641  1  0.83977933  0.51713833  0.29728191  1
  O  O642  1  0.83974166  0.51734519  0.54766982  1
  O  O643  1  0.83843004  0.51938824  0.79653836  1
  O  O644  1  0.83594862  0.85042688  0.04738172  1
  O  O645  1  0.83727900  0.85292857  0.29854730  1
  O  O646  1  0.83963422  0.85182219  0.54782071  1
  O  O647  1  0.83900265  0.85156544  0.79593170  1
  O  O648  1  0.16098511  0.14819740  0.20365478  1
  O  O649  1  0.16043456  0.14943527  0.45339951  1
  O  O650  1  0.16154775  0.14778881  0.70218320  1
  O  O651  1  0.16424179  0.14936985  0.95270130  1
  O  O652  1  0.16075506  0.48178321  0.20360997  1
  O  O653  1  0.16247859  0.48180390  0.45225217  1
  O  O654  1  0.16468090  0.48119829  0.70168066  1
  O  O655  1  0.16459066  0.48180915  0.95252799  1
  O  O656  1  0.16190391  0.81559420  0.20196804  1
  O  O657  1  0.16081847  0.81380791  0.45331248  1
  O  O658  1  0.16297680  0.81633217  0.70258143  1
  O  O659  1  0.16016601  0.81341755  0.95202867  1
  O  O660  1  0.66250848  0.14867794  0.20339348  1
  O  O661  1  0.66227316  0.14835468  0.45203485  1
  O  O662  1  0.66402880  0.14877177  0.70221521  1
  O  O663  1  0.66113718  0.14791144  0.95362336  1
  O  O664  1  0.66512419  0.48113122  0.20236953  1
  O  O665  1  0.66423020  0.48215054  0.45236028  1
  O  O666  1  0.66013694  0.48075880  0.70122619  1
  O  O667  1  0.66126674  0.48171035  0.95167254  1
  O  O668  1  0.66310190  0.81562390  0.20368965  1
  O  O669  1  0.66229966  0.81494414  0.45317527  1
  O  O670  1  0.66353026  0.81513145  0.70083229  1
  O  O671  1  0.66453097  0.81567661  0.95207144  1
