# generated using pymatgen
data_Na2MnFe(PO4)2
_symmetry_space_group_name_H-M   'P 1'
_cell_length_a   21.08754002
_cell_length_b   18.93992543
_cell_length_c   20.04619165
_cell_angle_alpha   90.00035339
_cell_angle_beta   89.99562734
_cell_angle_gamma   90.00147417
_symmetry_Int_Tables_number   1
_chemical_formula_structural   Na2MnFe(PO4)2
_chemical_formula_sum   'Na96 Mn48 Fe48 P96 O384'
_cell_volume   8006.37746093
_cell_formula_units_Z   48
loop_
 _symmetry_equiv_pos_site_id
 _symmetry_equiv_pos_as_xyz
  1  'x, y, z'
loop_
 _atom_site_type_symbol
 _atom_site_label
 _atom_site_symmetry_multiplicity
 _atom_site_fract_x
 _atom_site_fract_y
 _atom_site_fract_z
 _atom_site_occupancy
  Na  Na0  1  0.00214027  0.00051875  0.00076488  1
  Na  Na1  1  0.00105895  0.00037056  0.25049424  1
  Na  Na2  1  -0.00208346  -0.00108729  0.49982960  1
  Na  Na3  1  0.00074065  0.00015370  0.74878307  1
  Na  Na4  1  0.00003012  0.33295579  0.00010237  1
  Na  Na5  1  -0.00028620  0.33346301  0.24973357  1
  Na  Na6  1  -0.00073419  0.33306937  0.49975118  1
  Na  Na7  1  0.00074811  0.33298204  0.75106402  1
  Na  Na8  1  -0.00198470  0.66612404  -0.00019340  1
  Na  Na9  1  0.00043874  0.66717791  0.25024443  1
  Na  Na10  1  0.00044604  0.66712025  0.50072100  1
  Na  Na11  1  -0.00138329  0.66630293  0.74919318  1
  Na  Na12  1  0.50001453  -0.00030609  0.00053629  1
  Na  Na13  1  0.50095382  0.00077365  0.24882716  1
  Na  Na14  1  0.49834816  -0.00042680  0.50052338  1
  Na  Na15  1  0.49941750  -0.00067597  0.75054193  1
  Na  Na16  1  0.50019586  0.33456456  -0.00073823  1
  Na  Na17  1  0.49812284  0.33262743  0.24967541  1
  Na  Na18  1  0.49810317  0.33295820  0.50087394  1
  Na  Na19  1  0.49919656  0.33380858  0.74961322  1
  Na  Na20  1  0.50059358  0.66676352  0.00010800  1
  Na  Na21  1  0.50145398  0.66726109  0.25027238  1
  Na  Na22  1  0.49879168  0.66614475  0.50029322  1
  Na  Na23  1  0.49978887  0.66651732  0.74914709  1
  Na  Na24  1  0.24887806  -0.00061256  0.12386298  1
  Na  Na25  1  0.25093006  -0.00028885  0.37512277  1
  Na  Na26  1  0.25135259  -0.00008811  0.62577300  1
  Na  Na27  1  0.25076114  0.00058467  0.87561003  1
  Na  Na28  1  0.24922143  0.33298174  0.12497349  1
  Na  Na29  1  0.25187099  0.33385404  0.37485822  1
  Na  Na30  1  0.25052233  0.33411824  0.62483389  1
  Na  Na31  1  0.24752464  0.33324192  0.87569287  1
  Na  Na32  1  0.24950695  0.66654738  0.12443449  1
  Na  Na33  1  0.25072967  0.66756710  0.37452367  1
  Na  Na34  1  0.25176194  0.66724566  0.62577292  1
  Na  Na35  1  0.25228242  0.66737341  0.87503845  1
  Na  Na36  1  0.74779743  -0.00058773  0.12368520  1
  Na  Na37  1  0.75072071  0.00066857  0.37576577  1
  Na  Na38  1  0.75065179  0.00016961  0.62508624  1
  Na  Na39  1  0.74878728  -0.00068207  0.87521394  1
  Na  Na40  1  0.75187500  0.33379323  0.12358410  1
  Na  Na41  1  0.75082123  0.33330427  0.37425066  1
  Na  Na42  1  0.75106375  0.33398125  0.62650069  1
  Na  Na43  1  0.75133333  0.33357407  0.87512533  1
  Na  Na44  1  0.74997199  0.66627989  0.12405692  1
  Na  Na45  1  0.74979598  0.66627140  0.37346979  1
  Na  Na46  1  0.74929231  0.66689258  0.62665401  1
  Na  Na47  1  0.74876609  0.66637978  0.87623141  1
  Na  Na48  1  0.00050743  0.16676654  -0.00016512  1
  Na  Na49  1  -0.00067135  0.16645709  0.25074399  1
  Na  Na50  1  -0.00194676  0.16699874  0.50019849  1
  Na  Na51  1  0.00029571  0.16683768  0.74986736  1
  Na  Na52  1  -0.00084294  0.49974809  0.00036428  1
  Na  Na53  1  -0.00082218  0.49996500  0.24993302  1
  Na  Na54  1  0.00076458  0.49940953  0.49925082  1
  Na  Na55  1  0.00085014  0.49923599  0.75007739  1
  Na  Na56  1  -0.00001873  0.83425446  0.00035577  1
  Na  Na57  1  0.00295591  0.83198284  0.25000957  1
  Na  Na58  1  -0.00106624  0.83388094  0.50087894  1
  Na  Na59  1  -0.00005048  0.83351155  0.74903964  1
  Na  Na60  1  0.49873286  0.16733296  -0.00051063  1
  Na  Na61  1  0.49897575  0.16659677  0.24961779  1
  Na  Na62  1  0.49804109  0.16723398  0.49993294  1
  Na  Na63  1  0.50108379  0.16551873  0.75011197  1
  Na  Na64  1  0.49899085  0.49993594  -0.00063942  1
  Na  Na65  1  0.50098940  0.49894461  0.25028563  1
  Na  Na66  1  0.49853189  0.50054191  0.50066087  1
  Na  Na67  1  0.49871374  0.49993507  0.74971549  1
  Na  Na68  1  0.50158114  0.83339516  0.00070106  1
  Na  Na69  1  0.50135133  0.83335792  0.24913717  1
  Na  Na70  1  0.49742723  0.83513817  0.50060712  1
  Na  Na71  1  0.50069902  0.83302187  0.74974231  1
  Na  Na72  1  0.24962073  0.16675466  0.12536618  1
  Na  Na73  1  0.25209441  0.16583057  0.37405994  1
  Na  Na74  1  0.24919682  0.16689579  0.62546421  1
  Na  Na75  1  0.24796593  0.16708227  0.87563374  1
  Na  Na76  1  0.24943793  0.49992462  0.12338657  1
  Na  Na77  1  0.25089192  0.49977488  0.37552731  1
  Na  Na78  1  0.25145881  0.49929064  0.62621253  1
  Na  Na79  1  0.25118692  0.49891275  0.87528179  1
  Na  Na80  1  0.24892085  0.83386992  0.12442695  1
  Na  Na81  1  0.25020565  0.83355094  0.37496772  1
  Na  Na82  1  0.25242748  0.83317021  0.62458445  1
  Na  Na83  1  0.25064117  0.83370886  0.87537038  1
  Na  Na84  1  0.75124242  0.16690515  0.12389917  1
  Na  Na85  1  0.75232976  0.16582318  0.37487679  1
  Na  Na86  1  0.75104176  0.16641273  0.62587476  1
  Na  Na87  1  0.75113502  0.16640545  0.87515415  1
  Na  Na88  1  0.75119499  0.49936694  0.12388942  1
  Na  Na89  1  0.74955224  0.50012157  0.37373636  1
  Na  Na90  1  0.74776709  0.50077855  0.62590075  1
  Na  Na91  1  0.75003280  0.49952128  0.87595523  1
  Na  Na92  1  0.74678337  0.83469986  0.12373965  1
  Na  Na93  1  0.74974455  0.83350990  0.37481509  1
  Na  Na94  1  0.75113839  0.83286115  0.62658561  1
  Na  Na95  1  0.74864757  0.83380617  0.87526168  1
  Mn  Mn96  1  0.14303830  0.91660611  0.49826875  1
  Mn  Mn97  1  0.60787621  0.75070933  0.37350288  1
  Mn  Mn98  1  0.64212420  0.24971700  0.24724682  1
  Mn  Mn99  1  0.14317645  0.58378428  0.49839635  1
  Mn  Mn100  1  0.89170681  0.24992712  0.37721181  1
  Mn  Mn101  1  0.64265589  0.58304505  0.24705346  1
  Mn  Mn102  1  0.10790147  0.08275226  0.37330170  1
  Mn  Mn103  1  0.85779838  0.08294848  0.75272867  1
  Mn  Mn104  1  0.39274943  0.58294863  0.12725635  1
  Mn  Mn105  1  0.35832760  0.74994545  0.75298655  1
  Mn  Mn106  1  0.89142547  0.58254339  0.62712784  1
  Mn  Mn107  1  0.39325897  0.91704820  0.12714398  1
  Mn  Mn108  1  0.10744819  0.08349532  0.62210901  1
  Mn  Mn109  1  0.60691180  0.41591533  0.62270744  1
  Mn  Mn110  1  0.35796595  0.41710936  0.25141095  1
  Mn  Mn111  1  0.35784686  0.75028384  0.25165006  1
  Mn  Mn112  1  0.89198229  0.58408344  0.37773860  1
  Mn  Mn113  1  0.60741926  0.75033358  0.62206687  1
  Mn  Mn114  1  0.64239742  0.58292912  0.99748526  1
  Mn  Mn115  1  0.60699128  0.08357672  0.87272720  1
  Mn  Mn116  1  0.14214099  0.58314372  0.99715634  1
  Mn  Mn117  1  0.10771621  0.74953898  0.62267573  1
  Mn  Mn118  1  0.35810162  0.08267367  0.25143693  1
  Mn  Mn119  1  0.85779357  0.75080380  0.25175228  1
  Mn  Mn120  1  0.89245284  0.91683109  0.12769440  1
  Mn  Mn121  1  0.14246209  0.24952684  0.24776989  1
  Mn  Mn122  1  0.39120965  0.24998356  0.87766298  1
  Mn  Mn123  1  0.64261865  0.24989837  0.99770318  1
  Mn  Mn124  1  0.64243029  0.91626027  0.49792010  1
  Mn  Mn125  1  0.60739526  0.41584208  0.37307707  1
  Mn  Mn126  1  0.85770622  0.41723150  0.50291452  1
  Mn  Mn127  1  0.85856772  0.08312595  0.00218662  1
  Mn  Mn128  1  0.14284413  0.24961217  0.49781594  1
  Mn  Mn129  1  0.14245199  0.58370564  0.74818586  1
  Mn  Mn130  1  0.89196529  0.91593640  0.37631593  1
  Mn  Mn131  1  0.64256151  0.25040974  0.49790708  1
  Mn  Mn132  1  0.14257006  0.91677935  0.99720932  1
  Mn  Mn133  1  0.85689750  0.74979041  0.75301232  1
  Mn  Mn134  1  0.60778327  0.08373571  0.37306494  1
  Mn  Mn135  1  0.35720891  0.08426554  0.75266900  1
  Mn  Mn136  1  0.10755850  0.75001918  0.87269466  1
  Mn  Mn137  1  0.85725800  0.75004700  0.00200093  1
  Mn  Mn138  1  0.14175525  0.58370635  0.24738040  1
  Mn  Mn139  1  0.39159110  0.24969147  0.62817180  1
  Mn  Mn140  1  0.64261934  0.24977135  0.74807929  1
  Mn  Mn141  1  0.85805207  0.41740642  0.75260039  1
  Mn  Mn142  1  0.10838950  0.41709597  0.37269011  1
  Mn  Mn143  1  0.39219067  0.58353441  0.37751240  1
  Fe  Fe144  1  0.60785012  0.74962116  0.12292181  1
  Fe  Fe145  1  0.60641176  0.74944091  0.87365263  1
  Fe  Fe146  1  0.60705283  0.08332190  0.62314045  1
  Fe  Fe147  1  0.10758477  0.41664996  0.62343968  1
  Fe  Fe148  1  0.89354891  0.24992069  0.12647296  1
  Fe  Fe149  1  0.64167636  0.58338275  0.74886987  1
  Fe  Fe150  1  0.64221288  0.91675605  0.74828571  1
  Fe  Fe151  1  0.85721725  0.08317702  0.25082377  1
  Fe  Fe152  1  0.39218446  0.24942529  0.37699626  1
  Fe  Fe153  1  0.35665749  0.08394634  0.00199521  1
  Fe  Fe154  1  0.89283414  0.91690475  0.87611561  1
  Fe  Fe155  1  0.60681925  0.41714750  0.87332301  1
  Fe  Fe156  1  0.89400964  0.24983048  0.87675989  1
  Fe  Fe157  1  0.64202834  0.91731338  0.24884308  1
  Fe  Fe158  1  0.39288680  0.91684218  0.62745931  1
  Fe  Fe159  1  0.35773944  0.75009329  0.50144937  1
  Fe  Fe160  1  0.89302654  0.25017801  0.62693277  1
  Fe  Fe161  1  0.39250648  0.25020601  0.12554988  1
  Fe  Fe162  1  0.89230730  0.91684958  0.62729399  1
  Fe  Fe163  1  0.39314972  0.58373380  0.87660449  1
  Fe  Fe164  1  0.10688158  0.41681816  0.87374889  1
  Fe  Fe165  1  0.39295698  0.91599795  0.87677821  1
  Fe  Fe166  1  0.64230952  0.91704753  0.99746336  1
  Fe  Fe167  1  0.60776153  0.08434743  0.12294013  1
  Fe  Fe168  1  0.85732238  0.08282815  0.50245175  1
  Fe  Fe169  1  0.35749721  0.41689060  0.50232090  1
  Fe  Fe170  1  0.10745759  0.74955307  0.12272005  1
  Fe  Fe171  1  0.35629938  0.41613239  0.75246198  1
  Fe  Fe172  1  0.14286594  0.91675915  0.74839931  1
  Fe  Fe173  1  0.14215953  0.24998899  0.99916773  1
  Fe  Fe174  1  0.10750883  0.08308850  0.87351074  1
  Fe  Fe175  1  0.39231919  0.91711347  0.37615994  1
  Fe  Fe176  1  0.14270878  0.91672388  0.24873225  1
  Fe  Fe177  1  0.10734145  0.08362327  0.12358121  1
  Fe  Fe178  1  0.35820016  0.75005767  0.00218118  1
  Fe  Fe179  1  0.64204809  0.58347285  0.49881713  1
  Fe  Fe180  1  0.14180548  0.24996173  0.74809003  1
  Fe  Fe181  1  0.85765533  0.74992596  0.50130595  1
  Fe  Fe182  1  0.89330480  0.58319368  0.12655166  1
  Fe  Fe183  1  0.60787102  0.41600557  0.12283337  1
  Fe  Fe184  1  0.85817003  0.41657067  0.00167695  1
  Fe  Fe185  1  0.35808575  0.08308268  0.50218483  1
  Fe  Fe186  1  0.10670339  0.41650033  0.12326599  1
  Fe  Fe187  1  0.35692194  0.41598733  0.00180313  1
  Fe  Fe188  1  0.39263825  0.58371543  0.62696532  1
  Fe  Fe189  1  0.10807506  0.75001976  0.37373455  1
  Fe  Fe190  1  0.89192828  0.58321981  0.87636664  1
  Fe  Fe191  1  0.85753590  0.41623869  0.25098896  1
  P  P192  1  0.05310828  0.24974614  0.11003008  1
  P  P193  1  0.05343195  0.24974393  0.36010614  1
  P  P194  1  0.05358674  0.25086920  0.61100292  1
  P  P195  1  0.05466025  0.24985628  0.86135508  1
  P  P196  1  0.05250499  0.58321717  0.10992727  1
  P  P197  1  0.05360188  0.58437853  0.36034924  1
  P  P198  1  0.05330356  0.58212783  0.61010754  1
  P  P199  1  0.05166791  0.58281567  0.86013448  1
  P  P200  1  0.05515814  0.91675363  0.11146739  1
  P  P201  1  0.05422343  0.91569693  0.35995796  1
  P  P202  1  0.05319436  0.91665068  0.61089306  1
  P  P203  1  0.05292883  0.91731607  0.85925882  1
  P  P204  1  0.55238161  0.25013834  0.10957218  1
  P  P205  1  0.55168135  0.24981222  0.35996824  1
  P  P206  1  0.55312188  0.24890254  0.61020259  1
  P  P207  1  0.55279291  0.25110835  0.85994573  1
  P  P208  1  0.55393151  0.58263308  0.10984160  1
  P  P209  1  0.55460023  0.58337509  0.36113140  1
  P  P210  1  0.55339931  0.58316495  0.61067743  1
  P  P211  1  0.55251157  0.58320095  0.85974218  1
  P  P212  1  0.55621811  0.91733606  0.11067905  1
  P  P213  1  0.55231333  0.91716664  0.35965083  1
  P  P214  1  0.55340355  0.91767354  0.61122642  1
  P  P215  1  0.55368444  0.91593996  0.86076699  1
  P  P216  1  0.44673411  0.08439549  0.13809834  1
  P  P217  1  0.44593765  0.08292134  0.39016847  1
  P  P218  1  0.44638394  0.08254754  0.63961965  1
  P  P219  1  0.44538911  0.08243430  0.89082530  1
  P  P220  1  0.44686843  0.41573101  0.13831085  1
  P  P221  1  0.44571428  0.41592092  0.39066959  1
  P  P222  1  0.44390472  0.41749373  0.63995105  1
  P  P223  1  0.44534548  0.41738598  0.88911313  1
  P  P224  1  0.44743915  0.75010069  0.13882137  1
  P  P225  1  0.44621041  0.75122267  0.39032479  1
  P  P226  1  0.44509927  0.75023506  0.63875783  1
  P  P227  1  0.44727731  0.74997608  0.89043517  1
  P  P228  1  0.94761314  0.08393147  0.14040189  1
  P  P229  1  0.94464602  0.08274408  0.38954487  1
  P  P230  1  0.94502229  0.08338497  0.63887399  1
  P  P231  1  0.94821420  0.08277133  0.88962918  1
  P  P232  1  0.94618021  0.41631021  0.13882684  1
  P  P233  1  0.94560704  0.41670839  0.38900468  1
  P  P234  1  0.94785619  0.41582975  0.64035664  1
  P  P235  1  0.94727110  0.41649589  0.89033432  1
  P  P236  1  0.94783780  0.74975869  0.13967883  1
  P  P237  1  0.94761284  0.75034357  0.39073974  1
  P  P238  1  0.94463972  0.75038902  0.63902096  1
  P  P239  1  0.94637041  0.75059935  0.88973190  1
  P  P240  1  0.19619545  0.08224053  0.23441131  1
  P  P241  1  0.19868527  0.08308583  0.48510770  1
  P  P242  1  0.19464875  0.08306068  0.73649302  1
  P  P243  1  0.19562546  0.08434022  0.98597083  1
  P  P244  1  0.19609456  0.41675682  0.23378906  1
  P  P245  1  0.19729817  0.41670988  0.48635619  1
  P  P246  1  0.19516944  0.41612599  0.73614593  1
  P  P247  1  0.19534143  0.41580182  0.98592330  1
  P  P248  1  0.19511153  0.75104397  0.23510584  1
  P  P249  1  0.19803287  0.75016325  0.48486312  1
  P  P250  1  0.19685413  0.75120716  0.73523683  1
  P  P251  1  0.19722188  0.74976421  0.98568896  1
  P  P252  1  0.69729185  0.08316543  0.23423942  1
  P  P253  1  0.69701428  0.08344798  0.48637327  1
  P  P254  1  0.69563693  0.08237548  0.73468269  1
  P  P255  1  0.69566161  0.08326795  0.98560990  1
  P  P256  1  0.69747405  0.41609070  0.23369596  1
  P  P257  1  0.69669712  0.41734294  0.48495671  1
  P  P258  1  0.69497889  0.41754691  0.73670795  1
  P  P259  1  0.69635186  0.41621511  0.98524094  1
  P  P260  1  0.69603256  0.75085672  0.23410318  1
  P  P261  1  0.69808550  0.74941294  0.48525034  1
  P  P262  1  0.69398400  0.74984766  0.73711761  1
  P  P263  1  0.69428664  0.75049891  0.98531260  1
  P  P264  1  0.30233811  0.25006602  0.01535233  1
  P  P265  1  0.30541724  0.25001286  0.26398595  1
  P  P266  1  0.30486873  0.24954679  0.51412278  1
  P  P267  1  0.30108068  0.25080581  0.76550599  1
  P  P268  1  0.30522017  0.58323346  0.01336324  1
  P  P269  1  0.30312554  0.58341256  0.26471411  1
  P  P270  1  0.30440706  0.58371244  0.51591060  1
  P  P271  1  0.30521381  0.58246134  0.76491272  1
  P  P272  1  0.30541945  0.91667900  0.01362536  1
  P  P273  1  0.30282676  0.91656508  0.26494530  1
  P  P274  1  0.30585317  0.91684212  0.51444824  1
  P  P275  1  0.30408846  0.91696874  0.76505750  1
  P  P276  1  0.80632837  0.25064408  0.01391460  1
  P  P277  1  0.80485967  0.24980481  0.26286028  1
  P  P278  1  0.80412240  0.24959116  0.51617702  1
  P  P279  1  0.80565369  0.25010774  0.76515441  1
  P  P280  1  0.80564884  0.58240444  0.01421300  1
  P  P281  1  0.80523417  0.58260564  0.26300548  1
  P  P282  1  0.80145893  0.58425864  0.51525913  1
  P  P283  1  0.80189338  0.58335233  0.76630196  1
  P  P284  1  0.80349328  0.91669782  0.01367455  1
  P  P285  1  0.80157024  0.91772162  0.26430969  1
  P  P286  1  0.80412578  0.91608915  0.51566068  1
  P  P287  1  0.80331182  0.91670336  0.76507147  1
  O  O288  1  0.05640003  0.24977345  0.18671013  1
  O  O289  1  0.05676027  0.24960834  0.43691095  1
  O  O290  1  0.05814206  0.25008648  0.68773750  1
  O  O291  1  0.05891463  0.24980482  0.93805908  1
  O  O292  1  0.05589973  0.58333919  0.18659874  1
  O  O293  1  0.05700356  0.58357107  0.43709647  1
  O  O294  1  0.05656283  0.58305525  0.68685963  1
  O  O295  1  0.05554952  0.58343828  0.93681098  1
  O  O296  1  0.05883428  0.91669611  0.18814897  1
  O  O297  1  0.05703154  0.91670764  0.43675186  1
  O  O298  1  0.05851209  0.91669142  0.68747694  1
  O  O299  1  0.05681691  0.91676212  0.93605577  1
  O  O300  1  0.55570182  0.24991604  0.18628568  1
  O  O301  1  0.55598947  0.24999553  0.43660873  1
  O  O302  1  0.55674081  0.24966418  0.68693254  1
  O  O303  1  0.55628875  0.25076860  0.93665557  1
  O  O304  1  0.55663259  0.58257968  0.18665233  1
  O  O305  1  0.55871945  0.58346863  0.43791894  1
  O  O306  1  0.55810460  0.58325227  0.68734423  1
  O  O307  1  0.55626864  0.58283312  0.93648201  1
  O  O308  1  0.55968696  0.91750206  0.18751764  1
  O  O309  1  0.55616075  0.91705602  0.43638511  1
  O  O310  1  0.55815192  0.91687913  0.68788122  1
  O  O311  1  0.55828260  0.91693613  0.93748450  1
  O  O312  1  0.44144270  0.08370360  0.06152268  1
  O  O313  1  0.44343477  0.08270117  0.31334135  1
  O  O314  1  0.44185020  0.08338033  0.56297595  1
  O  O315  1  0.44254655  0.08335373  0.81400766  1
  O  O316  1  0.44155706  0.41641024  0.06167485  1
  O  O317  1  0.44328547  0.41695614  0.31383300  1
  O  O318  1  0.44005784  0.41670677  0.56315845  1
  O  O319  1  0.44049441  0.41599592  0.81244786  1
  O  O320  1  0.44232609  0.75016212  0.06218412  1
  O  O321  1  0.44375551  0.75029284  0.31348583  1
  O  O322  1  0.44125864  0.75020337  0.56206367  1
  O  O323  1  0.44399909  0.75024519  0.81367497  1
  O  O324  1  0.94416665  0.08293473  0.06365095  1
  O  O325  1  0.94046388  0.08271697  0.31277822  1
  O  O326  1  0.94109932  0.08303772  0.56210063  1
  O  O327  1  0.94449863  0.08274896  0.81295730  1
  O  O328  1  0.94209623  0.41634739  0.06212597  1
  O  O329  1  0.94117125  0.41655851  0.31226329  1
  O  O330  1  0.94406485  0.41668553  0.56364177  1
  O  O331  1  0.94404109  0.41662653  0.81362799  1
  O  O332  1  0.94340954  0.75073734  0.06305235  1
  O  O333  1  0.94349766  0.75034003  0.31402890  1
  O  O334  1  0.94061949  0.74975629  0.56228561  1
  O  O335  1  0.94350851  0.75055108  0.81293998  1
  O  O336  1  0.19088540  0.08363976  0.06261743  1
  O  O337  1  0.19344766  0.08307636  0.31119319  1
  O  O338  1  0.19425169  0.08313495  0.56182894  1
  O  O339  1  0.19085197  0.08292278  0.81329928  1
  O  O340  1  0.19012749  0.41673363  0.06255862  1
  O  O341  1  0.19355028  0.41675269  0.31064679  1
  O  O342  1  0.19221428  0.41658211  0.56300737  1
  O  O343  1  0.19025013  0.41700689  0.81288751  1
  O  O344  1  0.19156203  0.74944155  0.06230761  1
  O  O345  1  0.19143744  0.75007899  0.31188475  1
  O  O346  1  0.19392641  0.75017396  0.56157842  1
  O  O347  1  0.19350999  0.75052144  0.81202425  1
  O  O348  1  0.69137040  0.08437462  0.06231681  1
  O  O349  1  0.69391913  0.08408918  0.31102581  1
  O  O350  1  0.69167422  0.08355902  0.56295002  1
  O  O351  1  0.69243204  0.08315203  0.81149375  1
  O  O352  1  0.69126627  0.41611995  0.06190566  1
  O  O353  1  0.69313224  0.41595033  0.31037653  1
  O  O354  1  0.69327463  0.41642134  0.56175439  1
  O  O355  1  0.69075775  0.41671767  0.81346140  1
  O  O356  1  0.69053981  0.74951225  0.06208733  1
  O  O357  1  0.69332412  0.75004646  0.31092119  1
  O  O358  1  0.69416341  0.75017670  0.56199067  1
  O  O359  1  0.68991306  0.74978253  0.81386483  1
  O  O360  1  0.30952340  0.25001704  0.18721533  1
  O  O361  1  0.30841671  0.24948972  0.43731559  1
  O  O362  1  0.30530168  0.25009627  0.68884024  1
  O  O363  1  0.30552588  0.25017532  0.93863978  1
  O  O364  1  0.30649460  0.58323741  0.18790994  1
  O  O365  1  0.30663665  0.58370323  0.43905414  1
  O  O366  1  0.30904204  0.58351358  0.68818466  1
  O  O367  1  0.30938211  0.58352015  0.93661781  1
  O  O368  1  0.30694273  0.91664263  0.18823161  1
  O  O369  1  0.30914301  0.91687996  0.43765575  1
  O  O370  1  0.30899375  0.91684499  0.68835412  1
  O  O371  1  0.30939161  0.91633651  0.93689598  1
  O  O372  1  0.80907695  0.24997834  0.18611787  1
  O  O373  1  0.80662980  0.25023436  0.43929115  1
  O  O374  1  0.80985483  0.25039419  0.68842480  1
  O  O375  1  0.81075907  0.24971262  0.93714579  1
  O  O376  1  0.80965773  0.58330543  0.18623849  1
  O  O377  1  0.80526749  0.58357378  0.43852275  1
  O  O378  1  0.80597769  0.58314955  0.68961625  1
  O  O379  1  0.80963429  0.58313075  0.93743361  1
  O  O380  1  0.80528382  0.91688533  0.18760984  1
  O  O381  1  0.80666879  0.91612784  0.43884502  1
  O  O382  1  0.80854444  0.91685817  0.68844925  1
  O  O383  1  0.80898872  0.91692275  0.93706436  1
  O  O384  1  0.23226345  0.25002494  0.04001460  1
  O  O385  1  0.23537708  0.24989463  0.28810463  1
  O  O386  1  0.23509529  0.24987682  0.53919908  1
  O  O387  1  0.23102036  0.25026756  0.78978146  1
  O  O388  1  0.23515468  0.58297987  0.03756388  1
  O  O389  1  0.23354833  0.58351874  0.28984672  1
  O  O390  1  0.23491054  0.58347995  0.54182390  1
  O  O391  1  0.23521192  0.58335786  0.78933948  1
  O  O392  1  0.23531595  0.91674085  0.03773415  1
  O  O393  1  0.23279753  0.91680859  0.28930242  1
  O  O394  1  0.23591848  0.91674018  0.53930887  1
  O  O395  1  0.23374738  0.91710740  0.78869376  1
  O  O396  1  0.73615973  0.25021671  0.03763924  1
  O  O397  1  0.73497346  0.24958139  0.28763282  1
  O  O398  1  0.73454100  0.25024477  0.54169062  1
  O  O399  1  0.73553212  0.24969112  0.78906195  1
  O  O400  1  0.73542905  0.58293535  0.03794076  1
  O  O401  1  0.73514370  0.58301344  0.28696868  1
  O  O402  1  0.73158164  0.58388277  0.54032209  1
  O  O403  1  0.73180779  0.58325456  0.79057234  1
  O  O404  1  0.73295515  0.91674355  0.03652462  1
  O  O405  1  0.73171219  0.91735035  0.28948603  1
  O  O406  1  0.73444340  0.91632375  0.54112972  1
  O  O407  1  0.73279118  0.91659916  0.78813089  1
  O  O408  1  0.26588674  0.08275398  0.20916698  1
  O  O409  1  0.26871327  0.08267056  0.46090446  1
  O  O410  1  0.26457718  0.08345019  0.71197080  1
  O  O411  1  0.26606539  0.08389007  0.96245686  1
  O  O412  1  0.26573635  0.41670126  0.20854476  1
  O  O413  1  0.26768876  0.41697203  0.46282323  1
  O  O414  1  0.26564819  0.41651561  0.71284028  1
  O  O415  1  0.26591024  0.41602726  0.96278583  1
  O  O416  1  0.26507097  0.75025990  0.21045083  1
  O  O417  1  0.26821460  0.75046350  0.46080784  1
  O  O418  1  0.26665144  0.75058350  0.71058822  1
  O  O419  1  0.26768827  0.75023967  0.96253299  1
  O  O420  1  0.76725429  0.08341810  0.20921474  1
  O  O421  1  0.76745163  0.08296976  0.46304384  1
  O  O422  1  0.76555177  0.08304539  0.71032307  1
  O  O423  1  0.76570795  0.08312044  0.96144016  1
  O  O424  1  0.76770347  0.41641419  0.20973388  1
  O  O425  1  0.76633746  0.41693087  0.45974680  1
  O  O426  1  0.76502739  0.41756404  0.71252843  1
  O  O427  1  0.76691775  0.41643899  0.96222366  1
  O  O428  1  0.76566172  0.75049204  0.20853369  1
  O  O429  1  0.76795416  0.75006882  0.46024750  1
  O  O430  1  0.76400754  0.74994956  0.71294166  1
  O  O431  1  0.76434579  0.74995449  0.96124667  1
  O  O432  1  0.01771501  0.08362225  0.16481375  1
  O  O433  1  0.01469950  0.08281977  0.41379388  1
  O  O434  1  0.01498573  0.08350858  0.66319944  1
  O  O435  1  0.01826436  0.08330111  0.91434343  1
  O  O436  1  0.01654900  0.41629212  0.16291112  1
  O  O437  1  0.01563926  0.41644079  0.41305207  1
  O  O438  1  0.01772535  0.41612641  0.66524768  1
  O  O439  1  0.01742725  0.41641159  0.91494013  1
  O  O440  1  0.01802789  0.74972010  0.16368502  1
  O  O441  1  0.01767197  0.75063535  0.41514932  1
  O  O442  1  0.01467297  0.74982312  0.66324965  1
  O  O443  1  0.01595656  0.75044724  0.91533474  1
  O  O444  1  0.51705832  0.08386665  0.16182930  1
  O  O445  1  0.51553740  0.08324807  0.41576850  1
  O  O446  1  0.51648800  0.08252250  0.66385847  1
  O  O447  1  0.51517814  0.08338197  0.91563915  1
  O  O448  1  0.51717209  0.41579225  0.16210509  1
  O  O449  1  0.51526432  0.41658415  0.41632327  1
  O  O450  1  0.51402351  0.41646324  0.66380058  1
  O  O451  1  0.51586577  0.41745647  0.91249039  1
  O  O452  1  0.51784181  0.75040507  0.16218179  1
  O  O453  1  0.51570441  0.75077813  0.41616546  1
  O  O454  1  0.51502165  0.75004245  0.66322631  1
  O  O455  1  0.51741598  0.74987818  0.91494283  1
  O  O456  1  0.48250724  0.25047490  0.08435336  1
  O  O457  1  0.48157368  0.24937098  0.33579795  1
  O  O458  1  0.48323160  0.24975213  0.58585598  1
  O  O459  1  0.48298567  0.25001013  0.83506905  1
  O  O460  1  0.48439694  0.58290249  0.08434201  1
  O  O461  1  0.48463424  0.58333566  0.33677337  1
  O  O462  1  0.48295384  0.58339383  0.58736986  1
  O  O463  1  0.48234778  0.58322943  0.83538323  1
  O  O464  1  0.48612407  0.91694411  0.08649377  1
  O  O465  1  0.48233417  0.91713497  0.33494435  1
  O  O466  1  0.48308496  0.91725618  0.58762844  1
  O  O467  1  0.48322515  0.91624799  0.83721159  1
  O  O468  1  0.98304473  0.24983035  0.08532952  1
  O  O469  1  0.98374898  0.24992102  0.33522045  1
  O  O470  1  0.98338023  0.25017825  0.58703650  1
  O  O471  1  0.98421216  0.24987874  0.83750279  1
  O  O472  1  0.98242168  0.58310310  0.08531928  1
  O  O473  1  0.98394923  0.58397885  0.33522504  1
  O  O474  1  0.98364554  0.58272125  0.58493301  1
  O  O475  1  0.98160453  0.58281715  0.83548437  1
  O  O476  1  0.98523451  0.91709012  0.08672688  1
  O  O477  1  0.98459546  0.91602198  0.33454562  1
  O  O478  1  0.98278695  0.91672291  0.58759873  1
  O  O479  1  0.98279935  0.91674273  0.83490800  1
  O  O480  1  0.08708002  0.31469524  0.07715331  1
  O  O481  1  0.08766784  0.31463363  0.32767593  1
  O  O482  1  0.08680723  0.31618830  0.57818884  1
  O  O483  1  0.08782650  0.31509047  0.82819330  1
  O  O484  1  0.08635160  0.64819514  0.07702009  1
  O  O485  1  0.08739540  0.64988250  0.32841825  1
  O  O486  1  0.08771498  0.64705055  0.57758766  1
  O  O487  1  0.08545853  0.64781746  0.82719713  1
  O  O488  1  0.08893912  0.98189862  0.07864230  1
  O  O489  1  0.08875927  0.98045701  0.32725272  1
  O  O490  1  0.08639647  0.98160178  0.57721995  1
  O  O491  1  0.08668115  0.98251887  0.82685217  1
  O  O492  1  0.58667421  0.31505964  0.07709651  1
  O  O493  1  0.58513808  0.31486990  0.32683495  1
  O  O494  1  0.58714453  0.31385028  0.57735999  1
  O  O495  1  0.58626659  0.31640972  0.82748959  1
  O  O496  1  0.58822706  0.64774417  0.07773514  1
  O  O497  1  0.58821493  0.64848649  0.32828362  1
  O  O498  1  0.58685725  0.64804320  0.57706758  1
  O  O499  1  0.58614928  0.64841155  0.82715172  1
  O  O500  1  0.58956891  0.98253930  0.07758305  1
  O  O501  1  0.58641803  0.98214464  0.32698588  1
  O  O502  1  0.58658640  0.98276942  0.57798265  1
  O  O503  1  0.58716808  0.98077294  0.82707679  1
  O  O504  1  0.41346449  0.01945223  0.17188583  1
  O  O505  1  0.41182503  0.01776593  0.42246166  1
  O  O506  1  0.41267634  0.01752987  0.67248596  1
  O  O507  1  0.41180583  0.01709754  0.92293762  1
  O  O508  1  0.41337290  0.35064317  0.17117419  1
  O  O509  1  0.41170211  0.35049448  0.42239152  1
  O  O510  1  0.40966294  0.35285446  0.67338184  1
  O  O511  1  0.41200643  0.35257865  0.92313040  1
  O  O512  1  0.41439238  0.68503312  0.17224406  1
  O  O513  1  0.41146445  0.68648400  0.42289560  1
  O  O514  1  0.41148664  0.68515618  0.67178584  1
  O  O515  1  0.41341831  0.68481534  0.92288289  1
  O  O516  1  0.91344044  0.01918482  0.17353556  1
  O  O517  1  0.91100933  0.01765350  0.42242120  1
  O  O518  1  0.91150859  0.01825571  0.67200294  1
  O  O519  1  0.91470858  0.01756436  0.92248694  1
  O  O520  1  0.91281961  0.35114165  0.17196023  1
  O  O521  1  0.91195350  0.35181121  0.42214567  1
  O  O522  1  0.91402581  0.35075343  0.67286964  1
  O  O523  1  0.91350920  0.35134008  0.92294304  1
  O  O524  1  0.91415189  0.68465577  0.17219626  1
  O  O525  1  0.91366796  0.68539279  0.42371222  1
  O  O526  1  0.91076361  0.68547456  0.67214826  1
  O  O527  1  0.91208188  0.68541633  0.92168122  1
  O  O528  1  0.16220274  0.01705870  0.20228957  1
  O  O529  1  0.16466406  0.01812519  0.45250793  1
  O  O530  1  0.16143984  0.01776076  0.70343987  1
  O  O531  1  0.16218050  0.01948207  0.95211507  1
  O  O532  1  0.16164312  0.35174814  0.20159725  1
  O  O533  1  0.16430245  0.35169927  0.45269642  1
  O  O534  1  0.16208591  0.35089752  0.70292127  1
  O  O535  1  0.16216346  0.35055046  0.95300226  1
  O  O536  1  0.16087214  0.68639007  0.20166001  1
  O  O537  1  0.16442370  0.68510654  0.45192744  1
  O  O538  1  0.16272693  0.68614060  0.70277372  1
  O  O539  1  0.16428727  0.68475174  0.95192875  1
  O  O540  1  0.66310200  0.01807437  0.20222206  1
  O  O541  1  0.66367834  0.01844684  0.45295141  1
  O  O542  1  0.66194165  0.01704375  0.70237884  1
  O  O543  1  0.66191696  0.01811133  0.95301932  1
  O  O544  1  0.66391954  0.35101896  0.20058348  1
  O  O545  1  0.66268087  0.35227064  0.45213266  1
  O  O546  1  0.66168738  0.35250067  0.70323365  1
  O  O547  1  0.66309287  0.35136076  0.95164578  1
  O  O548  1  0.66156686  0.68595306  0.20143856  1
  O  O549  1  0.66422995  0.68435930  0.45281958  1
  O  O550  1  0.66066711  0.68459741  0.70411354  1
  O  O551  1  0.66036107  0.68559872  0.95212867  1
  O  O552  1  0.33644721  0.31509711  0.04794928  1
  O  O553  1  0.33901888  0.31496844  0.29709469  1
  O  O554  1  0.33868134  0.31463312  0.54682898  1
  O  O555  1  0.33460487  0.31594182  0.79823557  1
  O  O556  1  0.33859962  0.64834677  0.04660005  1
  O  O557  1  0.33738936  0.64843298  0.29693131  1
  O  O558  1  0.33867071  0.64896168  0.54789247  1
  O  O559  1  0.33962199  0.64705526  0.79817811  1
  O  O560  1  0.33860682  0.98210280  0.04649674  1
  O  O561  1  0.33695194  0.98144004  0.29773203  1
  O  O562  1  0.33957789  0.98192024  0.54752842  1
  O  O563  1  0.33766899  0.98183997  0.79829586  1
  O  O564  1  0.83960312  0.31594029  0.04672901  1
  O  O565  1  0.83829509  0.31503933  0.29585812  1
  O  O566  1  0.83884501  0.31438255  0.54868195  1
  O  O567  1  0.83915876  0.31511842  0.79833897  1
  O  O568  1  0.83939523  0.64720457  0.04761319  1
  O  O569  1  0.83858516  0.64770119  0.29635212  1
  O  O570  1  0.83533775  0.64933489  0.54764893  1
  O  O571  1  0.83581133  0.64830615  0.79911316  1
  O  O572  1  0.83659712  0.98163117  0.04742369  1
  O  O573  1  0.83548665  0.98284843  0.29654162  1
  O  O574  1  0.83853576  0.98109370  0.54803839  1
  O  O575  1  0.83660113  0.98165652  0.79871683  1
  O  O576  1  0.41355363  0.14955155  0.17109720  1
  O  O577  1  0.41135249  0.14788928  0.42236105  1
  O  O578  1  0.41290676  0.14754353  0.67317961  1
  O  O579  1  0.41057806  0.14716828  0.92334554  1
  O  O580  1  0.41376227  0.48073073  0.17212490  1
  O  O581  1  0.41097229  0.48065929  0.42323237  1
  O  O582  1  0.41085538  0.48286771  0.67271987  1
  O  O583  1  0.41206152  0.48253701  0.92205740  1
  O  O584  1  0.41411700  0.81506572  0.17221532  1
  O  O585  1  0.41202839  0.81657355  0.42194848  1
  O  O586  1  0.41174515  0.81544093  0.67188920  1
  O  O587  1  0.41347280  0.81493008  0.92332744  1
  O  O588  1  0.91374336  0.14916404  0.17255111  1
  O  O589  1  0.91083719  0.14765590  0.42264450  1
  O  O590  1  0.91160955  0.14859424  0.67172772  1
  O  O591  1  0.91421018  0.14772756  0.92226231  1
  O  O592  1  0.91270982  0.48131993  0.17200508  1
  O  O593  1  0.91233551  0.48189528  0.42218837  1
  O  O594  1  0.91369881  0.48083991  0.67311076  1
  O  O595  1  0.91316134  0.48141972  0.92294863  1
  O  O596  1  0.91443663  0.81482887  0.17309390  1
  O  O597  1  0.91334516  0.81522759  0.42328950  1
  O  O598  1  0.91131692  0.81568325  0.67188945  1
  O  O599  1  0.91239767  0.81584594  0.92203865  1
  O  O600  1  0.08703734  0.18468699  0.07732121  1
  O  O601  1  0.08731889  0.18453778  0.32775311  1
  O  O602  1  0.08721726  0.18599913  0.57750489  1
  O  O603  1  0.08788338  0.18487585  0.82784592  1
  O  O604  1  0.08622485  0.51805332  0.07731687  1
  O  O605  1  0.08779180  0.51955807  0.32749832  1
  O  O606  1  0.08714408  0.51672891  0.57810347  1
  O  O607  1  0.08569581  0.51771244  0.82794059  1
  O  O608  1  0.08871356  0.85165878  0.07825129  1
  O  O609  1  0.08848530  0.85044916  0.32815976  1
  O  O610  1  0.08640518  0.85157702  0.57753878  1
  O  O611  1  0.08719054  0.85250635  0.82638819  1
  O  O612  1  0.58627579  0.18502329  0.07693285  1
  O  O613  1  0.58562167  0.18485392  0.32715685  1
  O  O614  1  0.58648392  0.18351888  0.57769678  1
  O  O615  1  0.58728968  0.18618121  0.82765413  1
  O  O616  1  0.58795392  0.51751616  0.07736905  1
  O  O617  1  0.58823192  0.51835361  0.32807830  1
  O  O618  1  0.58660070  0.51812723  0.57729581  1
  O  O619  1  0.58638814  0.51831691  0.82677204  1
  O  O620  1  0.58999600  0.85234108  0.07776332  1
  O  O621  1  0.58652343  0.85224716  0.32706723  1
  O  O622  1  0.58662637  0.85270121  0.57749009  1
  O  O623  1  0.58685306  0.85074720  0.82778404  1
  O  O624  1  0.33648420  0.18509535  0.04795059  1
  O  O625  1  0.33913849  0.18497947  0.29692859  1
  O  O626  1  0.33829787  0.18421549  0.54703180  1
  O  O627  1  0.33498606  0.18590190  0.79842533  1
  O  O628  1  0.33861871  0.51781892  0.04607790  1
  O  O629  1  0.33722176  0.51838964  0.29709108  1
  O  O630  1  0.33893332  0.51878850  0.54811635  1
  O  O631  1  0.33835718  0.51700447  0.79751859  1
  O  O632  1  0.33889678  0.85168599  0.04690911  1
  O  O633  1  0.33668660  0.85163933  0.29778634  1
  O  O634  1  0.33971771  0.85176177  0.54724212  1
  O  O635  1  0.33763490  0.85196146  0.79839285  1
  O  O636  1  0.84015124  0.18591580  0.04746543  1
  O  O637  1  0.83847180  0.18454953  0.29558347  1
  O  O638  1  0.83828415  0.18435831  0.54808197  1
  O  O639  1  0.83953129  0.18517760  0.79818472  1
  O  O640  1  0.83892750  0.51708154  0.04689099  1
  O  O641  1  0.83832797  0.51727346  0.29585570  1
  O  O642  1  0.83543660  0.51922527  0.54823744  1
  O  O643  1  0.83614839  0.51853341  0.79909817  1
  O  O644  1  0.83636272  0.85165270  0.04740653  1
  O  O645  1  0.83569448  0.85276565  0.29709613  1
  O  O646  1  0.83819847  0.85097565  0.54801162  1
  O  O647  1  0.83662619  0.85182374  0.79863493  1
  O  O648  1  0.16171599  0.14710169  0.20175623  1
  O  O649  1  0.16513048  0.14812493  0.45215589  1
  O  O650  1  0.16090167  0.14823290  0.70377049  1
  O  O651  1  0.16238180  0.14952805  0.95301540  1
  O  O652  1  0.16165996  0.48162985  0.20136809  1
  O  O653  1  0.16403981  0.48177494  0.45305458  1
  O  O654  1  0.16188302  0.48101739  0.70241462  1
  O  O655  1  0.16213293  0.48058621  0.95177618  1
  O  O656  1  0.16183304  0.81651233  0.20260026  1
  O  O657  1  0.16401593  0.81499962  0.45202055  1
  O  O658  1  0.16329291  0.81651658  0.70281989  1
  O  O659  1  0.16383982  0.81481484  0.95245404  1
  O  O660  1  0.66310880  0.14797710  0.20106921  1
  O  O661  1  0.66427526  0.14854516  0.45249939  1
  O  O662  1  0.66129149  0.14714067  0.70185627  1
  O  O663  1  0.66235870  0.14826604  0.95219543  1
  O  O664  1  0.66348978  0.48097362  0.20074206  1
  O  O665  1  0.66282276  0.48266856  0.45298832  1
  O  O666  1  0.66130239  0.48270103  0.70408130  1
  O  O667  1  0.66284148  0.48122666  0.95191668  1
  O  O668  1  0.66179749  0.81611155  0.20244914  1
  O  O669  1  0.66391137  0.81445427  0.45260767  1
  O  O670  1  0.66057793  0.81500768  0.70395553  1
  O  O671  1  0.66079518  0.81567032  0.95262181  1
