# generated using pymatgen
data_Na2MnFe(PO4)2
_symmetry_space_group_name_H-M   'P 1'
_cell_length_a   21.07840150
_cell_length_b   18.92951475
_cell_length_c   20.03801177
_cell_angle_alpha   89.99976292
_cell_angle_beta   90.00193842
_cell_angle_gamma   89.99875636
_symmetry_Int_Tables_number   1
_chemical_formula_structural   Na2MnFe(PO4)2
_chemical_formula_sum   'Na96 Mn48 Fe48 P96 O384'
_cell_volume   7995.24507919
_cell_formula_units_Z   48
loop_
 _symmetry_equiv_pos_site_id
 _symmetry_equiv_pos_as_xyz
  1  'x, y, z'
loop_
 _atom_site_type_symbol
 _atom_site_label
 _atom_site_symmetry_multiplicity
 _atom_site_fract_x
 _atom_site_fract_y
 _atom_site_fract_z
 _atom_site_occupancy
  Na  Na0  1  -0.00112361  -0.00005673  0.00153355  1
  Na  Na1  1  -0.00088356  -0.00012180  0.25010036  1
  Na  Na2  1  0.00248313  0.00098272  0.49870867  1
  Na  Na3  1  -0.00032072  0.00027229  0.75027960  1
  Na  Na4  1  0.00121662  0.33365593  0.00061407  1
  Na  Na5  1  0.00284167  0.33394600  0.24955060  1
  Na  Na6  1  0.00161506  0.33343486  0.49905697  1
  Na  Na7  1  -0.00152230  0.33238815  0.75099381  1
  Na  Na8  1  -0.00370390  0.66502298  -0.00012310  1
  Na  Na9  1  0.00189622  0.66777074  0.24957957  1
  Na  Na10  1  0.00044152  0.66662291  0.49957191  1
  Na  Na11  1  -0.00065037  0.66731671  0.75028031  1
  Na  Na12  1  0.50309529  0.00122649  -0.00025497  1
  Na  Na13  1  0.50101180  0.00061243  0.25036562  1
  Na  Na14  1  0.50017483  0.00021558  0.49885261  1
  Na  Na15  1  0.50115716  -0.00016810  0.75080122  1
  Na  Na16  1  0.50058484  0.33265770  0.00034616  1
  Na  Na17  1  0.49890143  0.33202361  0.25033905  1
  Na  Na18  1  0.50028915  0.33374888  0.49980620  1
  Na  Na19  1  0.49980097  0.33315771  0.75004459  1
  Na  Na20  1  0.50005965  0.66652977  0.00000337  1
  Na  Na21  1  0.50042812  0.66757508  0.24965780  1
  Na  Na22  1  0.49871452  0.66666217  0.50028621  1
  Na  Na23  1  0.49881250  0.66625897  0.74984951  1
  Na  Na24  1  0.24763135  -0.00008069  0.12429114  1
  Na  Na25  1  0.24858418  -0.00036770  0.37595006  1
  Na  Na26  1  0.24954940  0.00028609  0.62613046  1
  Na  Na27  1  0.24762186  -0.00001367  0.87461950  1
  Na  Na28  1  0.24764012  0.33192762  0.12465623  1
  Na  Na29  1  0.25008541  0.33294328  0.37349826  1
  Na  Na30  1  0.25080259  0.33326649  0.62552206  1
  Na  Na31  1  0.24997914  0.33350581  0.87599340  1
  Na  Na32  1  0.24724594  0.66640642  0.12408962  1
  Na  Na33  1  0.24933484  0.66701140  0.37567424  1
  Na  Na34  1  0.25110656  0.66688561  0.62546186  1
  Na  Na35  1  0.24980914  0.66713274  0.87485928  1
  Na  Na36  1  0.75127266  0.00105940  0.12546862  1
  Na  Na37  1  0.74966302  0.00008562  0.37405123  1
  Na  Na38  1  0.74920906  -0.00037736  0.62491687  1
  Na  Na39  1  0.75022614  -0.00007183  0.87574321  1
  Na  Na40  1  0.74970528  0.33283029  0.12477210  1
  Na  Na41  1  0.74862368  0.33239688  0.37613164  1
  Na  Na42  1  0.74990961  0.33359593  0.62544058  1
  Na  Na43  1  0.75032522  0.33350991  0.87370095  1
  Na  Na44  1  0.75224994  0.66684658  0.12554020  1
  Na  Na45  1  0.74861835  0.66574248  0.37369926  1
  Na  Na46  1  0.75115166  0.66715882  0.62414809  1
  Na  Na47  1  0.75420422  0.66768807  0.87555248  1
  Na  Na48  1  0.00172238  0.16595217  0.00142560  1
  Na  Na49  1  0.00141349  0.16636346  0.24995341  1
  Na  Na50  1  0.00134053  0.16656459  0.49832745  1
  Na  Na51  1  0.00159312  0.16655140  0.75073353  1
  Na  Na52  1  -0.00203578  0.49913251  0.00106501  1
  Na  Na53  1  0.00026074  0.49931610  0.24948332  1
  Na  Na54  1  0.00176032  0.49878440  0.49952212  1
  Na  Na55  1  -0.00335057  0.50033269  0.74976485  1
  Na  Na56  1  -0.00027388  0.83338653  0.00016449  1
  Na  Na57  1  0.00062553  0.83430641  0.24939045  1
  Na  Na58  1  0.00205645  0.83332249  0.49983748  1
  Na  Na59  1  -0.00163725  0.83458930  0.75071557  1
  Na  Na60  1  0.50091012  0.16678260  0.00090854  1
  Na  Na61  1  0.50006528  0.16702909  0.25021795  1
  Na  Na62  1  0.50153475  0.16616889  0.49905323  1
  Na  Na63  1  0.50008756  0.16712168  0.75028769  1
  Na  Na64  1  0.50122526  0.49896551  -0.00069229  1
  Na  Na65  1  0.49907026  0.49971045  0.24982318  1
  Na  Na66  1  0.49693113  0.50031804  0.49998492  1
  Na  Na67  1  0.50032425  0.49901372  0.74993237  1
  Na  Na68  1  0.50180061  0.83350451  -0.00008982  1
  Na  Na69  1  0.50046233  0.83372459  0.25024824  1
  Na  Na70  1  0.50012414  0.83314333  0.49980966  1
  Na  Na71  1  0.49963478  0.83417151  0.75041964  1
  Na  Na72  1  0.24916602  0.16693338  0.12383666  1
  Na  Na73  1  0.24946657  0.16682728  0.37507188  1
  Na  Na74  1  0.24908643  0.16741820  0.62540682  1
  Na  Na75  1  0.24891617  0.16697074  0.87568343  1
  Na  Na76  1  0.24767902  0.49945234  0.12460337  1
  Na  Na77  1  0.24843727  0.50041103  0.37487664  1
  Na  Na78  1  0.25264660  0.49826547  0.62561339  1
  Na  Na79  1  0.24886416  0.49964222  0.87521422  1
  Na  Na80  1  0.24628627  0.83471359  0.12437358  1
  Na  Na81  1  0.25007878  0.83322365  0.37535178  1
  Na  Na82  1  0.24996835  0.83370595  0.62591010  1
  Na  Na83  1  0.24855790  0.83377052  0.87459555  1
  Na  Na84  1  0.74867909  0.16690957  0.12539287  1
  Na  Na85  1  0.74821997  0.16715795  0.37500055  1
  Na  Na86  1  0.74934533  0.16660255  0.62554667  1
  Na  Na87  1  0.74964890  0.16675890  0.87456519  1
  Na  Na88  1  0.75295447  0.49862478  0.12442929  1
  Na  Na89  1  0.75055550  0.49895744  0.37515770  1
  Na  Na90  1  0.75017368  0.49943585  0.62502968  1
  Na  Na91  1  0.75122461  0.49936451  0.87495843  1
  Na  Na92  1  0.75150300  0.83406082  0.12603231  1
  Na  Na93  1  0.74930769  0.83433347  0.37364829  1
  Na  Na94  1  0.75049744  0.83388126  0.62406078  1
  Na  Na95  1  0.75365551  0.83281384  0.87533561  1
  Mn  Mn96  1  0.39218019  0.24969070  0.62696638  1
  Mn  Mn97  1  0.64237126  0.25029108  0.74773436  1
  Mn  Mn98  1  0.85731006  0.08367469  0.50190886  1
  Mn  Mn99  1  0.64289640  0.91713409  0.24747862  1
  Mn  Mn100  1  0.35744075  0.08293173  0.00209792  1
  Mn  Mn101  1  0.35698494  0.75051202  0.00228249  1
  Mn  Mn102  1  0.85800856  0.41605815  0.50193363  1
  Mn  Mn103  1  0.10792441  0.41654143  0.62312584  1
  Mn  Mn104  1  0.89266267  0.24981369  0.37694589  1
  Mn  Mn105  1  0.85752918  0.75020810  0.50157831  1
  Mn  Mn106  1  0.60709385  0.41700774  0.37247019  1
  Mn  Mn107  1  0.14033787  0.58311500  0.99686853  1
  Mn  Mn108  1  0.35751883  0.08323829  0.50241373  1
  Mn  Mn109  1  0.14215396  0.25059301  0.74810577  1
  Mn  Mn110  1  0.85855933  0.75006819  0.25304204  1
  Mn  Mn111  1  0.35724276  0.41677784  0.00218994  1
  Mn  Mn112  1  0.60955867  0.74962902  0.87281668  1
  Mn  Mn113  1  0.64243251  0.58220144  0.24737386  1
  Mn  Mn114  1  0.89265164  0.91753673  0.62594308  1
  Mn  Mn115  1  0.60791210  0.08334769  0.62258321  1
  Mn  Mn116  1  0.39248086  0.58288116  0.87785751  1
  Mn  Mn117  1  0.10839076  0.08354655  0.37191119  1
  Mn  Mn118  1  0.39192423  0.91743444  0.12671659  1
  Mn  Mn119  1  0.60853577  0.75037196  0.12214164  1
  Mn  Mn120  1  0.89307508  0.58368783  0.37714913  1
  Mn  Mn121  1  0.60796329  0.74953527  0.62277606  1
  Mn  Mn122  1  0.35774608  0.74984070  0.75262320  1
  Mn  Mn123  1  0.10879618  0.74970570  0.37277335  1
  Mn  Mn124  1  0.89207524  0.58296535  0.62688018  1
  Mn  Mn125  1  0.10584483  0.74952039  0.87270053  1
  Mn  Mn126  1  0.39095711  0.58319559  0.37653388  1
  Mn  Mn127  1  0.89231084  0.24961967  0.87820369  1
  Mn  Mn128  1  0.14301578  0.58316430  0.49852713  1
  Mn  Mn129  1  0.35766745  0.08380354  0.75272888  1
  Mn  Mn130  1  0.64105993  0.58358435  0.49752725  1
  Mn  Mn131  1  0.64311152  0.58399336  0.74799965  1
  Mn  Mn132  1  0.64398667  0.58341969  0.99778575  1
  Mn  Mn133  1  0.14160469  0.58291190  0.74787324  1
  Mn  Mn134  1  0.35633861  0.41649277  0.25156804  1
  Mn  Mn135  1  0.14121429  0.91653055  0.74770483  1
  Mn  Mn136  1  0.39176672  0.91696725  0.37688203  1
  Mn  Mn137  1  0.39266329  0.91740501  0.87812894  1
  Mn  Mn138  1  0.89247681  0.24965901  0.12745810  1
  Mn  Mn139  1  0.35652784  0.75061154  0.25123798  1
  Mn  Mn140  1  0.64324167  0.91574712  0.74809227  1
  Mn  Mn141  1  0.39145108  0.58320907  0.12722542  1
  Mn  Mn142  1  0.60832539  0.41648042  0.12283571  1
  Mn  Mn143  1  0.85878915  0.08336269  0.75219728  1
  Fe  Fe144  1  0.89329031  0.58314450  0.12742657  1
  Fe  Fe145  1  0.60663987  0.41688550  0.62331773  1
  Fe  Fe146  1  0.85722348  0.08393764  0.00221744  1
  Fe  Fe147  1  0.89337504  0.91680439  0.37699396  1
  Fe  Fe148  1  0.89341430  0.91697211  0.12681233  1
  Fe  Fe149  1  0.39267833  0.91657537  0.62643828  1
  Fe  Fe150  1  0.35681409  0.41651748  0.50154808  1
  Fe  Fe151  1  0.64454062  0.91687576  0.99881871  1
  Fe  Fe152  1  0.10745087  0.75036893  0.62358692  1
  Fe  Fe153  1  0.10640794  0.08363276  0.87388837  1
  Fe  Fe154  1  0.14262386  0.25018351  0.49835452  1
  Fe  Fe155  1  0.85816924  0.75056781  0.00280312  1
  Fe  Fe156  1  0.85707189  0.08461501  0.25162181  1
  Fe  Fe157  1  0.35696866  0.08300731  0.25055531  1
  Fe  Fe158  1  0.39240338  0.24970996  0.37645028  1
  Fe  Fe159  1  0.35802063  0.41627229  0.75259661  1
  Fe  Fe160  1  0.14164501  0.58334780  0.24758579  1
  Fe  Fe161  1  0.85722362  0.41680393  0.75173929  1
  Fe  Fe162  1  0.14332758  0.24938586  0.24764132  1
  Fe  Fe163  1  0.10600315  0.41656011  0.87306112  1
  Fe  Fe164  1  0.14322324  0.91667179  0.49889939  1
  Fe  Fe165  1  0.10637163  0.75017651  0.12281457  1
  Fe  Fe166  1  0.60793714  0.41642430  0.87316021  1
  Fe  Fe167  1  0.14198413  0.91699664  0.24801655  1
  Fe  Fe168  1  0.89204416  0.58304359  0.87685840  1
  Fe  Fe169  1  0.14271233  0.24954049  0.99816069  1
  Fe  Fe170  1  0.64267842  0.24983216  0.99830711  1
  Fe  Fe171  1  0.60706327  0.08325879  0.37275706  1
  Fe  Fe172  1  0.85802559  0.41527711  0.25199029  1
  Fe  Fe173  1  0.60826697  0.08375814  0.87391607  1
  Fe  Fe174  1  0.35767173  0.75005015  0.50219103  1
  Fe  Fe175  1  0.10764192  0.08343702  0.62329326  1
  Fe  Fe176  1  0.89255712  0.91741005  0.87770809  1
  Fe  Fe177  1  0.60780622  0.08332980  0.12331560  1
  Fe  Fe178  1  0.39351052  0.24972342  0.87713162  1
  Fe  Fe179  1  0.60670457  0.75003682  0.37366552  1
  Fe  Fe180  1  0.10855587  0.41666945  0.37303910  1
  Fe  Fe181  1  0.64176341  0.91697002  0.49777851  1
  Fe  Fe182  1  0.10639573  0.41677990  0.12293689  1
  Fe  Fe183  1  0.39282729  0.24944331  0.12662651  1
  Fe  Fe184  1  0.14105617  0.91733205  0.99785070  1
  Fe  Fe185  1  0.64235041  0.24968941  0.49819917  1
  Fe  Fe186  1  0.85722100  0.41568634  0.00175391  1
  Fe  Fe187  1  0.89295618  0.24952600  0.62563605  1
  Fe  Fe188  1  0.85883550  0.74976164  0.75096076  1
  Fe  Fe189  1  0.39238319  0.58350283  0.62718211  1
  Fe  Fe190  1  0.64231821  0.25033732  0.24861854  1
  Fe  Fe191  1  0.10723702  0.08329113  0.12329491  1
  P  P192  1  0.05545463  0.24964071  0.11096142  1
  P  P193  1  0.05590972  0.25077235  0.35994489  1
  P  P194  1  0.05298050  0.24955089  0.60938709  1
  P  P195  1  0.05441036  0.25001826  0.86201308  1
  P  P196  1  0.05294957  0.58324914  0.11108625  1
  P  P197  1  0.05473734  0.58243226  0.35929109  1
  P  P198  1  0.05305508  0.58391728  0.61005959  1
  P  P199  1  0.05086510  0.58195328  0.86000079  1
  P  P200  1  0.05407580  0.91727733  0.11094175  1
  P  P201  1  0.05457651  0.91676257  0.36023936  1
  P  P202  1  0.05406983  0.91702804  0.60937220  1
  P  P203  1  0.05247664  0.91780117  0.86160373  1
  P  P204  1  0.55454297  0.24915161  0.11090496  1
  P  P205  1  0.55391202  0.24939421  0.36051931  1
  P  P206  1  0.55386090  0.25091633  0.60935345  1
  P  P207  1  0.55449172  0.24992369  0.86145931  1
  P  P208  1  0.55335925  0.58297430  0.10935720  1
  P  P209  1  0.55248639  0.58411649  0.35964434  1
  P  P210  1  0.55184606  0.58251632  0.61036978  1
  P  P211  1  0.55417405  0.58243049  0.85995569  1
  P  P212  1  0.55451035  0.91798141  0.10935693  1
  P  P213  1  0.55455061  0.91663466  0.36092428  1
  P  P214  1  0.55288143  0.91645973  0.60941424  1
  P  P215  1  0.55584998  0.91743061  0.86157730  1
  P  P216  1  0.44739373  0.08395928  0.14037094  1
  P  P217  1  0.44599003  0.08413559  0.38820830  1
  P  P218  1  0.44671424  0.08241315  0.64002644  1
  P  P219  1  0.44824271  0.08440378  0.89036874  1
  P  P220  1  0.44648226  0.41530359  0.13991984  1
  P  P221  1  0.44495149  0.41541895  0.39006897  1
  P  P222  1  0.44540703  0.41697642  0.63940998  1
  P  P223  1  0.44708911  0.41531503  0.88921986  1
  P  P224  1  0.44684194  0.75070975  0.14002334  1
  P  P225  1  0.44626746  0.75030367  0.39023649  1
  P  P226  1  0.44530770  0.75045569  0.63899280  1
  P  P227  1  0.44737101  0.75026444  0.89052580  1
  P  P228  1  0.94605112  0.08321449  0.13969203  1
  P  P229  1  0.94561513  0.08291705  0.38836680  1
  P  P230  1  0.94831460  0.08436255  0.63921795  1
  P  P231  1  0.94700016  0.08317020  0.89144833  1
  P  P232  1  0.94573779  0.41615493  0.13949370  1
  P  P233  1  0.94759317  0.41615787  0.38871467  1
  P  P234  1  0.94609335  0.41495965  0.64025367  1
  P  P235  1  0.94552440  0.41683327  0.88983145  1
  P  P236  1  0.94639382  0.75049614  0.13888551  1
  P  P237  1  0.94754078  0.75123430  0.38996890  1
  P  P238  1  0.94766198  0.75065566  0.63988389  1
  P  P239  1  0.94401028  0.75024628  0.88958411  1
  P  P240  1  0.19702311  0.08343581  0.23418954  1
  P  P241  1  0.19517365  0.08337355  0.48654809  1
  P  P242  1  0.19451700  0.08380655  0.73578823  1
  P  P243  1  0.19413184  0.08338882  0.98553918  1
  P  P244  1  0.19418620  0.41628477  0.23510376  1
  P  P245  1  0.19726193  0.41574386  0.48458750  1
  P  P246  1  0.19692242  0.41650759  0.73626704  1
  P  P247  1  0.19376138  0.41559757  0.98534243  1
  P  P248  1  0.19511116  0.75028863  0.23401368  1
  P  P249  1  0.19702550  0.75081204  0.48694639  1
  P  P250  1  0.19535710  0.74974052  0.73453556  1
  P  P251  1  0.19398615  0.75092821  0.98545767  1
  P  P252  1  0.69579925  0.08435385  0.23567498  1
  P  P253  1  0.69541766  0.08337699  0.48422767  1
  P  P254  1  0.69616919  0.08307808  0.73613695  1
  P  P255  1  0.69650569  0.08348490  0.98618209  1
  P  P256  1  0.69815335  0.41554461  0.23503821  1
  P  P257  1  0.69499530  0.41590944  0.48624640  1
  P  P258  1  0.69606283  0.41705136  0.73536084  1
  P  P259  1  0.69763885  0.41563245  0.98442223  1
  P  P260  1  0.69594583  0.74993427  0.23590733  1
  P  P261  1  0.69577981  0.75093199  0.48364204  1
  P  P262  1  0.69946490  0.74986704  0.73471905  1
  P  P263  1  0.69948485  0.75092311  0.98550897  1
  P  P264  1  0.30402638  0.24980187  0.01439699  1
  P  P265  1  0.30408771  0.24847795  0.26361223  1
  P  P266  1  0.30297854  0.25058232  0.51360308  1
  P  P267  1  0.30438868  0.25064440  0.76630552  1
  P  P268  1  0.30202940  0.58315265  0.01507349  1
  P  P269  1  0.30056173  0.58357816  0.26445063  1
  P  P270  1  0.30421387  0.58305600  0.51560316  1
  P  P271  1  0.30442606  0.58234444  0.76454364  1
  P  P272  1  0.30094215  0.91710209  0.01485462  1
  P  P273  1  0.30134832  0.91788882  0.26445670  1
  P  P274  1  0.30289908  0.91632360  0.51587390  1
  P  P275  1  0.30414644  0.91697214  0.76456399  1
  P  P276  1  0.80224403  0.24966110  0.01494611  1
  P  P277  1  0.80235105  0.24995034  0.26501916  1
  P  P278  1  0.80244574  0.24960218  0.51562800  1
  P  P279  1  0.80511592  0.25052649  0.76359873  1
  P  P280  1  0.80636922  0.58282475  0.01466649  1
  P  P281  1  0.80535380  0.58175144  0.26391433  1
  P  P282  1  0.80282767  0.58317793  0.51456231  1
  P  P283  1  0.80463636  0.58303602  0.76526679  1
  P  P284  1  0.80502833  0.91757528  0.01492983  1
  P  P285  1  0.80621708  0.91828153  0.26423635  1
  P  P286  1  0.80266765  0.91707831  0.51324265  1
  P  P287  1  0.80515264  0.91632735  0.76548374  1
  O  O288  1  0.05926855  0.24927655  0.18775850  1
  O  O289  1  0.05988789  0.25011667  0.43674472  1
  O  O290  1  0.05620727  0.25042923  0.68618675  1
  O  O291  1  0.05806014  0.25006586  0.93874913  1
  O  O292  1  0.05756966  0.58335909  0.18776970  1
  O  O293  1  0.05786833  0.58294149  0.43612180  1
  O  O294  1  0.05554463  0.58327120  0.68686413  1
  O  O295  1  0.05413756  0.58223595  0.93675629  1
  O  O296  1  0.05840555  0.91759824  0.18769913  1
  O  O297  1  0.05966673  0.91678364  0.43688893  1
  O  O298  1  0.05586081  0.91694905  0.68628069  1
  O  O299  1  0.05673425  0.91716728  0.93832355  1
  O  O300  1  0.55903733  0.25014194  0.18762468  1
  O  O301  1  0.55847644  0.24998244  0.43718781  1
  O  O302  1  0.55682558  0.25027131  0.68620001  1
  O  O303  1  0.55889404  0.24999888  0.93821534  1
  O  O304  1  0.55657053  0.58289750  0.18618149  1
  O  O305  1  0.55520621  0.58319359  0.43645536  1
  O  O306  1  0.55622885  0.58311627  0.68702930  1
  O  O307  1  0.55793280  0.58312449  0.93672805  1
  O  O308  1  0.55735827  0.91712405  0.18619401  1
  O  O309  1  0.55808956  0.91686760  0.43769584  1
  O  O310  1  0.55700924  0.91639980  0.68617714  1
  O  O311  1  0.56080431  0.91653633  0.93828367  1
  O  O312  1  0.44349465  0.08330295  0.06367459  1
  O  O313  1  0.44099624  0.08333820  0.31159185  1
  O  O314  1  0.44362134  0.08314366  0.56317818  1
  O  O315  1  0.44417978  0.08359318  0.81369404  1
  O  O316  1  0.44354240  0.41585568  0.06312907  1
  O  O317  1  0.44177236  0.41600191  0.31326789  1
  O  O318  1  0.44061856  0.41606947  0.56269474  1
  O  O319  1  0.44245261  0.41601274  0.81251176  1
  O  O320  1  0.44326123  0.75075497  0.06325931  1
  O  O321  1  0.44226209  0.75063986  0.31350021  1
  O  O322  1  0.44137407  0.75044179  0.56218152  1
  O  O323  1  0.44367136  0.75050447  0.81370611  1
  O  O324  1  0.94104335  0.08435272  0.06302235  1
  O  O325  1  0.94128945  0.08416478  0.31165665  1
  O  O326  1  0.94453649  0.08379765  0.56251259  1
  O  O327  1  0.94380711  0.08399145  0.81467545  1
  O  O328  1  0.94075099  0.41484893  0.06281230  1
  O  O329  1  0.94256009  0.41547514  0.31203727  1
  O  O330  1  0.94367156  0.41579455  0.56337806  1
  O  O331  1  0.94103783  0.41602153  0.81312540  1
  O  O332  1  0.94191906  0.75054245  0.06211042  1
  O  O333  1  0.94467063  0.75078519  0.31311064  1
  O  O334  1  0.94398081  0.75047658  0.56314120  1
  O  O335  1  0.94113570  0.75041618  0.81270556  1
  O  O336  1  0.19035173  0.08325739  0.06233399  1
  O  O337  1  0.19410989  0.08332901  0.31100019  1
  O  O338  1  0.19153311  0.08386110  0.56331795  1
  O  O339  1  0.18998017  0.08362081  0.81253840  1
  O  O340  1  0.18944808  0.41653013  0.06215154  1
  O  O341  1  0.19152300  0.41662166  0.31196737  1
  O  O342  1  0.19400901  0.41591237  0.56137035  1
  O  O343  1  0.19104138  0.41678847  0.81284721  1
  O  O344  1  0.18947501  0.75007918  0.06223534  1
  O  O345  1  0.19353971  0.75024372  0.31092879  1
  O  O346  1  0.19214479  0.75017946  0.56355356  1
  O  O347  1  0.19138311  0.74977459  0.81133691  1
  O  O348  1  0.69221897  0.08361297  0.06291333  1
  O  O349  1  0.69094953  0.08350998  0.31235022  1
  O  O350  1  0.69309356  0.08300014  0.56110657  1
  O  O351  1  0.69206171  0.08344126  0.81292542  1
  O  O352  1  0.69409189  0.41622247  0.06115966  1
  O  O353  1  0.69388670  0.41628928  0.31173055  1
  O  O354  1  0.69078322  0.41696582  0.56299916  1
  O  O355  1  0.69137062  0.41672538  0.81210243  1
  O  O356  1  0.69547249  0.75039563  0.06221805  1
  O  O357  1  0.69090318  0.74990993  0.31255897  1
  O  O358  1  0.69325058  0.75034781  0.56054716  1
  O  O359  1  0.69578999  0.74976996  0.81143906  1
  O  O360  1  0.30862057  0.24912165  0.18688728  1
  O  O361  1  0.30761418  0.24964557  0.43693113  1
  O  O362  1  0.30735188  0.24981531  0.68944211  1
  O  O363  1  0.30924590  0.24972830  0.93775840  1
  O  O364  1  0.30445017  0.58329777  0.18776581  1
  O  O365  1  0.30614225  0.58348829  0.43871360  1
  O  O366  1  0.30876942  0.58278701  0.68775874  1
  O  O367  1  0.30599643  0.58299912  0.93827141  1
  O  O368  1  0.30508505  0.91751835  0.18779370  1
  O  O369  1  0.30633704  0.91686900  0.43906245  1
  O  O370  1  0.30884319  0.91719412  0.68785655  1
  O  O371  1  0.30552135  0.91731501  0.93816806  1
  O  O372  1  0.80615491  0.24981760  0.18831943  1
  O  O373  1  0.80672333  0.24958565  0.43890973  1
  O  O374  1  0.80910542  0.24943762  0.68690335  1
  O  O375  1  0.80595389  0.24956809  0.93825514  1
  O  O376  1  0.80992106  0.58280530  0.18706591  1
  O  O377  1  0.80642270  0.58301099  0.43777555  1
  O  O378  1  0.80680102  0.58297535  0.68840711  1
  O  O379  1  0.80948978  0.58276120  0.93777878  1
  O  O380  1  0.81042443  0.91736904  0.18741455  1
  O  O381  1  0.80798523  0.91706198  0.43663357  1
  O  O382  1  0.80774236  0.91746580  0.68860327  1
  O  O383  1  0.80908396  0.91763141  0.93816843  1
  O  O384  1  0.23339543  0.24943291  0.03728272  1
  O  O385  1  0.23359659  0.24946012  0.28709023  1
  O  O386  1  0.23277249  0.25027327  0.53792921  1
  O  O387  1  0.23455818  0.25036871  0.79103090  1
  O  O388  1  0.23204712  0.58269324  0.03917071  1
  O  O389  1  0.23056494  0.58361566  0.28912387  1
  O  O390  1  0.23466740  0.58267358  0.54148553  1
  O  O391  1  0.23438243  0.58323612  0.78881877  1
  O  O392  1  0.23067254  0.91753631  0.03857825  1
  O  O393  1  0.23130250  0.91710040  0.28923205  1
  O  O394  1  0.23284667  0.91720395  0.54050036  1
  O  O395  1  0.23387365  0.91677437  0.78814897  1
  O  O396  1  0.73219333  0.24972929  0.03955151  1
  O  O397  1  0.73232659  0.24983434  0.28968694  1
  O  O398  1  0.73224912  0.24967303  0.53963591  1
  O  O399  1  0.73514472  0.25040702  0.78803812  1
  O  O400  1  0.73645528  0.58287023  0.03952238  1
  O  O401  1  0.73531909  0.58193863  0.28794908  1
  O  O402  1  0.73313711  0.58343033  0.53960343  1
  O  O403  1  0.73520919  0.58335123  0.79132494  1
  O  O404  1  0.73472992  0.91773176  0.03911951  1
  O  O405  1  0.73592702  0.91755499  0.28765413  1
  O  O406  1  0.73233639  0.91722043  0.53696330  1
  O  O407  1  0.73553492  0.91660554  0.79091368  1
  O  O408  1  0.26688928  0.08353157  0.20892260  1
  O  O409  1  0.26502829  0.08305149  0.46167904  1
  O  O410  1  0.26467564  0.08416698  0.71204157  1
  O  O411  1  0.26419035  0.08348903  0.96117189  1
  O  O412  1  0.26401033  0.41559485  0.20994901  1
  O  O413  1  0.26720504  0.41669626  0.45960606  1
  O  O414  1  0.26734463  0.41567941  0.71306659  1
  O  O415  1  0.26398035  0.41652809  0.96167601  1
  O  O416  1  0.26450677  0.75060786  0.20779713  1
  O  O417  1  0.26730724  0.75013215  0.46285528  1
  O  O418  1  0.26534258  0.74995319  0.71056965  1
  O  O419  1  0.26395895  0.75077294  0.96112145  1
  O  O420  1  0.76627112  0.08403286  0.21220108  1
  O  O421  1  0.76502891  0.08359067  0.45867856  1
  O  O422  1  0.76612365  0.08305591  0.71175275  1
  O  O423  1  0.76689704  0.08347088  0.96215304  1
  O  O424  1  0.76820215  0.41545184  0.21053133  1
  O  O425  1  0.76501527  0.41568227  0.46186540  1
  O  O426  1  0.76652678  0.41679840  0.71201189  1
  O  O427  1  0.76786893  0.41602241  0.96014510  1
  O  O428  1  0.76629453  0.75041044  0.21250344  1
  O  O429  1  0.76536954  0.75007763  0.45801658  1
  O  O430  1  0.76943435  0.74998631  0.70993573  1
  O  O431  1  0.76974247  0.75053648  0.96151281  1
  O  O432  1  0.01662899  0.08346857  0.16291393  1
  O  O433  1  0.01579357  0.08340420  0.41210286  1
  O  O434  1  0.01821366  0.08348126  0.66423441  1
  O  O435  1  0.01699017  0.08330213  0.91614850  1
  O  O436  1  0.01637196  0.41612561  0.16242152  1
  O  O437  1  0.01795480  0.41613862  0.41231194  1
  O  O438  1  0.01567632  0.41621289  0.66586423  1
  O  O439  1  0.01579283  0.41611901  0.91384135  1
  O  O440  1  0.01673093  0.75100186  0.16271401  1
  O  O441  1  0.01720889  0.75042822  0.41506387  1
  O  O442  1  0.01760965  0.75107017  0.66479339  1
  O  O443  1  0.01385610  0.74946111  0.91457627  1
  O  O444  1  0.51755276  0.08374200  0.16468367  1
  O  O445  1  0.51639991  0.08358705  0.41178881  1
  O  O446  1  0.51636993  0.08328217  0.66526560  1
  O  O447  1  0.51833985  0.08422596  0.91477912  1
  O  O448  1  0.51609013  0.41556034  0.16539525  1
  O  O449  1  0.51474200  0.41660258  0.41488210  1
  O  O450  1  0.51586588  0.41626483  0.66305852  1
  O  O451  1  0.51739838  0.41564003  0.91315368  1
  O  O452  1  0.51665169  0.75080220  0.16476384  1
  O  O453  1  0.51640764  0.75020424  0.41452638  1
  O  O454  1  0.51524841  0.75020846  0.66376491  1
  O  O455  1  0.51728168  0.74992481  0.91503319  1
  O  O456  1  0.48414803  0.24938806  0.08718031  1
  O  O457  1  0.48351799  0.24968359  0.33680016  1
  O  O458  1  0.48410592  0.24992830  0.58433905  1
  O  O459  1  0.48436080  0.24983211  0.83704572  1
  O  O460  1  0.48369667  0.58274267  0.08417922  1
  O  O461  1  0.48280964  0.58365290  0.33423518  1
  O  O462  1  0.48170077  0.58320537  0.58611645  1
  O  O463  1  0.48438986  0.58264905  0.83516123  1
  O  O464  1  0.48480292  0.91763949  0.08413520  1
  O  O465  1  0.48462797  0.91699163  0.33614034  1
  O  O466  1  0.48275839  0.91655406  0.58502899  1
  O  O467  1  0.48570958  0.91728685  0.83772747  1
  O  O468  1  0.98531669  0.24971036  0.08677330  1
  O  O469  1  0.98583388  0.25002416  0.33577545  1
  O  O470  1  0.98311934  0.25000588  0.58408878  1
  O  O471  1  0.98454566  0.24973609  0.83734231  1
  O  O472  1  0.98253880  0.58258427  0.08733056  1
  O  O473  1  0.98503733  0.58341677  0.33418385  1
  O  O474  1  0.98359241  0.58281173  0.58414159  1
  O  O475  1  0.98089814  0.58320382  0.83527285  1
  O  O476  1  0.98358084  0.91702109  0.08732070  1
  O  O477  1  0.98425191  0.91700509  0.33663962  1
  O  O478  1  0.98459027  0.91729750  0.58333197  1
  O  O479  1  0.98224586  0.91766334  0.83754602  1
  O  O480  1  0.08907692  0.31473258  0.07803644  1
  O  O481  1  0.08950452  0.31581899  0.32716518  1
  O  O482  1  0.08747835  0.31444349  0.57668486  1
  O  O483  1  0.08783430  0.31521472  0.82878180  1
  O  O484  1  0.08551878  0.64856280  0.07753521  1
  O  O485  1  0.08936255  0.64732008  0.32684125  1
  O  O486  1  0.08680183  0.64940875  0.57806389  1
  O  O487  1  0.08537529  0.64676560  0.82762313  1
  O  O488  1  0.08715410  0.98247566  0.07756532  1
  O  O489  1  0.08806007  0.98170652  0.32659794  1
  O  O490  1  0.08873119  0.98202837  0.57739313  1
  O  O491  1  0.08597462  0.98290491  0.82868110  1
  O  O492  1  0.58825631  0.31382059  0.07705641  1
  O  O493  1  0.58743034  0.31434282  0.32685121  1
  O  O494  1  0.58753839  0.31630274  0.57719376  1
  O  O495  1  0.58788204  0.31505996  0.82820934  1
  O  O496  1  0.58760438  0.64808356  0.07702566  1
  O  O497  1  0.58663931  0.64937127  0.32782181  1
  O  O498  1  0.58580916  0.64746863  0.57743159  1
  O  O499  1  0.58819576  0.64754667  0.82718546  1
  O  O500  1  0.58869597  0.98343064  0.07765396  1
  O  O501  1  0.58848140  0.98168093  0.32802603  1
  O  O502  1  0.58680856  0.98148095  0.57653511  1
  O  O503  1  0.58905455  0.98291485  0.82888695  1
  O  O504  1  0.41328927  0.01906190  0.17346950  1
  O  O505  1  0.41249601  0.01931000  0.42191830  1
  O  O506  1  0.41303581  0.01705659  0.67224847  1
  O  O507  1  0.41440447  0.01949016  0.92361552  1
  O  O508  1  0.41242468  0.34995446  0.17190688  1
  O  O509  1  0.41152878  0.34987636  0.42247873  1
  O  O510  1  0.41179256  0.35210845  0.67306394  1
  O  O511  1  0.41379270  0.35010667  0.92227724  1
  O  O512  1  0.41282773  0.68556490  0.17251649  1
  O  O513  1  0.41220305  0.68526504  0.42286019  1
  O  O514  1  0.41150875  0.68525335  0.67170907  1
  O  O515  1  0.41312739  0.68518778  0.92278890  1
  O  O516  1  0.91281250  0.01808561  0.17263452  1
  O  O517  1  0.91257394  0.01750661  0.42130664  1
  O  O518  1  0.91399995  0.01948837  0.67198264  1
  O  O519  1  0.91277954  0.01820987  0.92382208  1
  O  O520  1  0.91279860  0.35115441  0.17362342  1
  O  O521  1  0.91418868  0.35126771  0.42232254  1
  O  O522  1  0.91242573  0.34944653  0.67221912  1
  O  O523  1  0.91178591  0.35206166  0.92364409  1
  O  O524  1  0.91348492  0.68522523  0.17217647  1
  O  O525  1  0.91315260  0.68624099  0.42218751  1
  O  O526  1  0.91375239  0.68551773  0.67259795  1
  O  O527  1  0.90971100  0.68532162  0.92209092  1
  O  O528  1  0.16252455  0.01851902  0.20178333  1
  O  O529  1  0.16137625  0.01812136  0.45392319  1
  O  O530  1  0.16100163  0.01879758  0.70249130  1
  O  O531  1  0.16026781  0.01844398  0.95242032  1
  O  O532  1  0.15998983  0.35120492  0.20269567  1
  O  O533  1  0.16345233  0.35073580  0.45174804  1
  O  O534  1  0.16346050  0.35160954  0.70269781  1
  O  O535  1  0.16088050  0.35003656  0.95255771  1
  O  O536  1  0.16051380  0.68519659  0.20197433  1
  O  O537  1  0.16339085  0.68592603  0.45344053  1
  O  O538  1  0.16146308  0.68478334  0.70167793  1
  O  O539  1  0.16045949  0.68579736  0.95220247  1
  O  O540  1  0.66245985  0.01950148  0.20181977  1
  O  O541  1  0.66098732  0.01851670  0.45167690  1
  O  O542  1  0.66259279  0.01799236  0.70321787  1
  O  O543  1  0.66315825  0.01834205  0.95299940  1
  O  O544  1  0.66419060  0.35036814  0.20264688  1
  O  O545  1  0.66136624  0.35057336  0.45368514  1
  O  O546  1  0.66240498  0.35221237  0.70194768  1
  O  O547  1  0.66391700  0.35040894  0.95186309  1
  O  O548  1  0.66309373  0.68475897  0.20237254  1
  O  O549  1  0.66078219  0.68612996  0.45143349  1
  O  O550  1  0.66546359  0.68488722  0.70193730  1
  O  O551  1  0.66596663  0.68582864  0.95237223  1
  O  O552  1  0.33691253  0.31488056  0.04813044  1
  O  O553  1  0.33788192  0.31317190  0.29727046  1
  O  O554  1  0.33625197  0.31589740  0.54650319  1
  O  O555  1  0.33860505  0.31572730  0.79853364  1
  O  O556  1  0.33552333  0.64842213  0.04769342  1
  O  O557  1  0.33442438  0.64865991  0.29708852  1
  O  O558  1  0.33854225  0.64808105  0.54793299  1
  O  O559  1  0.33829599  0.64729495  0.79756793  1
  O  O560  1  0.33478873  0.98205519  0.04786798  1
  O  O561  1  0.33488060  0.98316518  0.29718035  1
  O  O562  1  0.33728014  0.98114254  0.54866838  1
  O  O563  1  0.33727782  0.98214192  0.79801700  1
  O  O564  1  0.83620132  0.31472162  0.04759268  1
  O  O565  1  0.83624845  0.31500712  0.29784665  1
  O  O566  1  0.83657499  0.31443837  0.54844719  1
  O  O567  1  0.83854505  0.31590778  0.79628310  1
  O  O568  1  0.84033871  0.64789304  0.04747927  1
  O  O569  1  0.83880065  0.64695926  0.29711605  1
  O  O570  1  0.83708225  0.64827544  0.54681086  1
  O  O571  1  0.83944483  0.64797217  0.79716263  1
  O  O572  1  0.83862376  0.98266233  0.04802404  1
  O  O573  1  0.83915429  0.98371658  0.29705502  1
  O  O574  1  0.83600959  0.98205604  0.54688021  1
  O  O575  1  0.83960867  0.98115545  0.79841794  1
  O  O576  1  0.41344074  0.14908407  0.17295192  1
  O  O577  1  0.41301236  0.14943121  0.42158190  1
  O  O578  1  0.41226999  0.14742791  0.67238603  1
  O  O579  1  0.41449187  0.14957650  0.92294807  1
  O  O580  1  0.41196691  0.48022674  0.17234963  1
  O  O581  1  0.41006938  0.48006844  0.42258667  1
  O  O582  1  0.41235495  0.48225830  0.67263522  1
  O  O583  1  0.41346403  0.48019758  0.92269811  1
  O  O584  1  0.41291512  0.81594779  0.17250752  1
  O  O585  1  0.41238799  0.81530530  0.42325375  1
  O  O586  1  0.41188187  0.81582870  0.67176011  1
  O  O587  1  0.41352213  0.81538811  0.92323675  1
  O  O588  1  0.91269091  0.14811702  0.17360619  1
  O  O589  1  0.91213074  0.14774516  0.42200933  1
  O  O590  1  0.91484985  0.14963412  0.67194809  1
  O  O591  1  0.91298106  0.14806241  0.92461551  1
  O  O592  1  0.91257062  0.48122223  0.17263777  1
  O  O593  1  0.91437431  0.48131405  0.42191576  1
  O  O594  1  0.91077629  0.47951040  0.67260222  1
  O  O595  1  0.91235973  0.48213400  0.92271810  1
  O  O596  1  0.91289917  0.81549546  0.17198917  1
  O  O597  1  0.91373259  0.81654156  0.42218661  1
  O  O598  1  0.91331985  0.81556493  0.67238064  1
  O  O599  1  0.91076172  0.81565339  0.92257253  1
  O  O600  1  0.08909027  0.18454916  0.07793273  1
  O  O601  1  0.08992334  0.18585521  0.32668957  1
  O  O602  1  0.08704041  0.18439456  0.57706816  1
  O  O603  1  0.08812061  0.18488462  0.82922016  1
  O  O604  1  0.08626526  0.51814122  0.07786976  1
  O  O605  1  0.08845025  0.51715913  0.32685800  1
  O  O606  1  0.08793723  0.51904830  0.57797737  1
  O  O607  1  0.08430282  0.51665975  0.82731356  1
  O  O608  1  0.08742952  0.85232529  0.07754482  1
  O  O609  1  0.08793616  0.85175300  0.32688856  1
  O  O610  1  0.08851498  0.85186208  0.57731893  1
  O  O611  1  0.08577630  0.85278517  0.82808790  1
  O  O612  1  0.58790138  0.18383520  0.07798841  1
  O  O613  1  0.58739580  0.18435952  0.32723447  1
  O  O614  1  0.58861753  0.18622300  0.57676683  1
  O  O615  1  0.58812604  0.18481936  0.82845944  1
  O  O616  1  0.58772301  0.51787487  0.07720606  1
  O  O617  1  0.58679639  0.51903973  0.32711672  1
  O  O618  1  0.58505285  0.51722049  0.57745295  1
  O  O619  1  0.58790919  0.51703771  0.82775412  1
  O  O620  1  0.58937401  0.85338511  0.07658368  1
  O  O621  1  0.58808392  0.85134908  0.32822587  1
  O  O622  1  0.58693368  0.85150610  0.57664660  1
  O  O623  1  0.58917345  0.85238088  0.82787339  1
  O  O624  1  0.33743626  0.18489197  0.04802000  1
  O  O625  1  0.33690427  0.18313875  0.29697360  1
  O  O626  1  0.33649392  0.18574964  0.54732543  1
  O  O627  1  0.33865144  0.18571922  0.79912306  1
  O  O628  1  0.33598282  0.51810695  0.04773731  1
  O  O629  1  0.33439853  0.51845697  0.29714867  1
  O  O630  1  0.33871465  0.51779881  0.54733036  1
  O  O631  1  0.33755028  0.51686898  0.79742349  1
  O  O632  1  0.33428732  0.85205482  0.04799159  1
  O  O633  1  0.33552750  0.85298253  0.29726960  1
  O  O634  1  0.33658397  0.85111199  0.54838163  1
  O  O635  1  0.33751838  0.85191734  0.79779437  1
  O  O636  1  0.83607412  0.18469298  0.04796357  1
  O  O637  1  0.83622514  0.18484312  0.29773040  1
  O  O638  1  0.83621636  0.18452176  0.54860301  1
  O  O639  1  0.83872238  0.18569176  0.79724415  1
  O  O640  1  0.84014170  0.51749657  0.04711688  1
  O  O641  1  0.83880458  0.51642804  0.29649759  1
  O  O642  1  0.83682185  0.51807737  0.54703794  1
  O  O643  1  0.83886195  0.51771899  0.79743162  1
  O  O644  1  0.83858522  0.85248752  0.04813852  1
  O  O645  1  0.84008252  0.85354932  0.29784336  1
  O  O646  1  0.83600515  0.85202684  0.54659806  1
  O  O647  1  0.83933154  0.85101434  0.79720804  1
  O  O648  1  0.16274748  0.14845797  0.20171744  1
  O  O649  1  0.16162261  0.14837736  0.45326838  1
  O  O650  1  0.16084729  0.14876247  0.70255724  1
  O  O651  1  0.16042747  0.14858251  0.95270772  1
  O  O652  1  0.16047279  0.48144599  0.20221589  1
  O  O653  1  0.16265780  0.48066449  0.45216282  1
  O  O654  1  0.16419617  0.48159562  0.70232891  1
  O  O655  1  0.15954350  0.48010005  0.95165384  1
  O  O656  1  0.16032776  0.81539316  0.20227533  1
  O  O657  1  0.16399424  0.81611083  0.45368144  1
  O  O658  1  0.16132229  0.81479387  0.70188231  1
  O  O659  1  0.16034923  0.81624769  0.95294343  1
  O  O660  1  0.66248271  0.14952041  0.20265428  1
  O  O661  1  0.66099334  0.14867471  0.45235354  1
  O  O662  1  0.66246231  0.14808053  0.70310472  1
  O  O663  1  0.66295723  0.14849776  0.95276819  1
  O  O664  1  0.66454760  0.48047713  0.20168249  1
  O  O665  1  0.66158045  0.48083394  0.45258601  1
  O  O666  1  0.66280762  0.48215959  0.70205286  1
  O  O667  1  0.66368966  0.48057857  0.95145557  1
  O  O668  1  0.66278949  0.81513616  0.20261926  1
  O  O669  1  0.66175553  0.81624824  0.45159864  1
  O  O670  1  0.66540889  0.81484374  0.70211877  1
  O  O671  1  0.66617480  0.81613603  0.95273051  1
