# generated using pymatgen
data_Na2MnFe(PO4)2
_symmetry_space_group_name_H-M   'P 1'
_cell_length_a   21.08154443
_cell_length_b   18.93360195
_cell_length_c   20.04112054
_cell_angle_alpha   90.00025279
_cell_angle_beta   90.00059696
_cell_angle_gamma   90.00064185
_symmetry_Int_Tables_number   1
_chemical_formula_structural   Na2MnFe(PO4)2
_chemical_formula_sum   'Na96 Mn48 Fe48 P96 O384'
_cell_volume   7999.40466016
_cell_formula_units_Z   48
loop_
 _symmetry_equiv_pos_site_id
 _symmetry_equiv_pos_as_xyz
  1  'x, y, z'
loop_
 _atom_site_type_symbol
 _atom_site_label
 _atom_site_symmetry_multiplicity
 _atom_site_fract_x
 _atom_site_fract_y
 _atom_site_fract_z
 _atom_site_occupancy
  Na  Na0  1  0.00129365  0.00009944  -0.00054566  1
  Na  Na1  1  0.00139285  0.00058367  0.25035445  1
  Na  Na2  1  0.00060196  0.00047200  0.50051445  1
  Na  Na3  1  -0.00038538  -0.00046197  0.74952993  1
  Na  Na4  1  0.00149437  0.33366093  -0.00165872  1
  Na  Na5  1  0.00228804  0.33415599  0.24998328  1
  Na  Na6  1  0.00052454  0.33357690  0.50146497  1
  Na  Na7  1  0.00016800  0.33333241  0.74987759  1
  Na  Na8  1  -0.00033322  0.66595242  -0.00002368  1
  Na  Na9  1  -0.00049642  0.66610770  0.25087061  1
  Na  Na10  1  -0.00030635  0.66651858  0.50014293  1
  Na  Na11  1  -0.00034463  0.66615072  0.74936810  1
  Na  Na12  1  0.49982944  0.00026812  -0.00008090  1
  Na  Na13  1  0.50033056  -0.00074883  0.25068376  1
  Na  Na14  1  0.50251252  -0.00001826  0.50021644  1
  Na  Na15  1  0.50196488  0.00095124  0.74963897  1
  Na  Na16  1  0.49710263  0.33238454  -0.00000496  1
  Na  Na17  1  0.49983305  0.33362907  0.25016648  1
  Na  Na18  1  0.50057990  0.33347964  0.49890805  1
  Na  Na19  1  0.49920374  0.33319020  0.75068255  1
  Na  Na20  1  0.50027100  0.66726003  -0.00021720  1
  Na  Na21  1  0.50025058  0.66673178  0.24908718  1
  Na  Na22  1  0.50106632  0.66644322  0.50000515  1
  Na  Na23  1  0.49904801  0.66579827  0.75047014  1
  Na  Na24  1  0.24938938  -0.00012739  0.12591937  1
  Na  Na25  1  0.24846021  -0.00050459  0.37402930  1
  Na  Na26  1  0.24992226  0.00019603  0.62530725  1
  Na  Na27  1  0.24965043  -0.00073185  0.87499796  1
  Na  Na28  1  0.24842380  0.33304249  0.12512528  1
  Na  Na29  1  0.24800436  0.33329133  0.37453056  1
  Na  Na30  1  0.25036673  0.33309337  0.62532712  1
  Na  Na31  1  0.25123360  0.33302974  0.87526560  1
  Na  Na32  1  0.24986187  0.66657970  0.12519453  1
  Na  Na33  1  0.24722731  0.66523234  0.37541301  1
  Na  Na34  1  0.25154731  0.66661651  0.62439741  1
  Na  Na35  1  0.25088823  0.66603716  0.87467001  1
  Na  Na36  1  0.74917555  -0.00073807  0.12358894  1
  Na  Na37  1  0.74924889  -0.00030192  0.37586275  1
  Na  Na38  1  0.74740709  -0.00056391  0.62582648  1
  Na  Na39  1  0.74784977  0.00002383  0.87491888  1
  Na  Na40  1  0.75043926  0.33309296  0.12529435  1
  Na  Na41  1  0.74986318  0.33315177  0.37488593  1
  Na  Na42  1  0.75001739  0.33400899  0.62477662  1
  Na  Na43  1  0.74979345  0.33376785  0.87526177  1
  Na  Na44  1  0.75084897  0.66639333  0.12500488  1
  Na  Na45  1  0.75101910  0.66714135  0.37486986  1
  Na  Na46  1  0.74973997  0.66660852  0.62626846  1
  Na  Na47  1  0.74986621  0.66590251  0.87418855  1
  Na  Na48  1  0.00189040  0.16682947  -0.00057580  1
  Na  Na49  1  0.00063339  0.16705098  0.24983975  1
  Na  Na50  1  0.00008775  0.16684446  0.50140331  1
  Na  Na51  1  0.00202497  0.16581296  0.74977635  1
  Na  Na52  1  0.00103444  0.50039830  -0.00129367  1
  Na  Na53  1  0.00235013  0.49976086  0.25068924  1
  Na  Na54  1  0.00059071  0.50014018  0.50101923  1
  Na  Na55  1  -0.00128158  0.50130430  0.74960856  1
  Na  Na56  1  -0.00071331  0.83345719  -0.00045588  1
  Na  Na57  1  -0.00054373  0.83328666  0.25069386  1
  Na  Na58  1  0.00054021  0.83236844  0.49972778  1
  Na  Na59  1  -0.00087837  0.83361795  0.74949170  1
  Na  Na60  1  0.50029228  0.16622309  -0.00074024  1
  Na  Na61  1  0.49930981  0.16761258  0.25064201  1
  Na  Na62  1  0.50086055  0.16656928  0.49954731  1
  Na  Na63  1  0.49891550  0.16764252  0.75034069  1
  Na  Na64  1  0.49872312  0.50018305  0.00033710  1
  Na  Na65  1  0.49929776  0.50061232  0.24932949  1
  Na  Na66  1  0.50065339  0.50035654  0.49928562  1
  Na  Na67  1  0.49933339  0.50054083  0.75069364  1
  Na  Na68  1  0.49851412  0.83343072  0.00018542  1
  Na  Na69  1  0.50063975  0.83311569  0.24975446  1
  Na  Na70  1  0.50357659  0.83214890  0.50038960  1
  Na  Na71  1  0.50174187  0.83199109  0.74981307  1
  Na  Na72  1  0.24942856  0.16692656  0.12482452  1
  Na  Na73  1  0.24735248  0.16806943  0.37451630  1
  Na  Na74  1  0.25200604  0.16601621  0.62576465  1
  Na  Na75  1  0.24947615  0.16725987  0.87443624  1
  Na  Na76  1  0.24793965  0.50096805  0.12529004  1
  Na  Na77  1  0.24825231  0.50057123  0.37529319  1
  Na  Na78  1  0.24935576  0.50147916  0.62462177  1
  Na  Na79  1  0.25158805  0.49994462  0.87501097  1
  Na  Na80  1  0.25037495  0.83287100  0.12629053  1
  Na  Na81  1  0.24763853  0.83390191  0.37417506  1
  Na  Na82  1  0.24993649  0.83322693  0.62489870  1
  Na  Na83  1  0.25251513  0.83233355  0.87486569  1
  Na  Na84  1  0.75048675  0.16679561  0.12523821  1
  Na  Na85  1  0.75071749  0.16642564  0.37473176  1
  Na  Na86  1  0.74869276  0.16662544  0.62582645  1
  Na  Na87  1  0.74770875  0.16783412  0.87482485  1
  Na  Na88  1  0.75025858  0.50063125  0.12440717  1
  Na  Na89  1  0.75106533  0.50022964  0.37496049  1
  Na  Na90  1  0.75129826  0.49978684  0.62521595  1
  Na  Na91  1  0.75111062  0.49998833  0.87469063  1
  Na  Na92  1  0.75069291  0.83265042  0.12398948  1
  Na  Na93  1  0.74828749  0.83307263  0.37604989  1
  Na  Na94  1  0.74748320  0.83314754  0.62567512  1
  Na  Na95  1  0.74776687  0.83374060  0.87498811  1
  Mn  Mn96  1  0.64243491  0.24957796  0.24699349  1
  Mn  Mn97  1  0.35769662  0.08289669  0.50172104  1
  Mn  Mn98  1  0.35855100  0.41679635  0.75158873  1
  Mn  Mn99  1  0.39245561  0.91663372  0.87710033  1
  Mn  Mn100  1  0.14260361  0.91606525  0.74770717  1
  Mn  Mn101  1  0.10843413  0.08292911  0.62289859  1
  Mn  Mn102  1  0.35618472  0.41710199  0.25197505  1
  Mn  Mn103  1  0.35734672  0.08294012  0.00248695  1
  Mn  Mn104  1  0.89199215  0.91711663  0.37773005  1
  Mn  Mn105  1  0.89293470  0.58286777  0.37788049  1
  Mn  Mn106  1  0.35776115  0.41674207  0.50221510  1
  Mn  Mn107  1  0.89291335  0.25012118  0.37762342  1
  Mn  Mn108  1  0.10815534  0.74995900  0.62298564  1
  Mn  Mn109  1  0.60889053  0.08287718  0.37247032  1
  Mn  Mn110  1  0.39330440  0.91659507  0.62665461  1
  Mn  Mn111  1  0.85688012  0.75008971  0.75265535  1
  Mn  Mn112  1  0.85746446  0.74983919  0.00155649  1
  Mn  Mn113  1  0.64275820  0.58365290  0.24762941  1
  Mn  Mn114  1  0.64104369  0.25052725  0.74747342  1
  Mn  Mn115  1  0.35780208  0.75052320  0.50132897  1
  Mn  Mn116  1  0.35751980  0.74926242  0.25321353  1
  Mn  Mn117  1  0.39301763  0.91585073  0.37786919  1
  Mn  Mn118  1  0.10790781  0.08367333  0.12189922  1
  Mn  Mn119  1  0.60837451  0.41756367  0.37262903  1
  Mn  Mn120  1  0.60739073  0.08389827  0.12299000  1
  Mn  Mn121  1  0.89128164  0.91631182  0.62700923  1
  Mn  Mn122  1  0.60736523  0.41623302  0.12248451  1
  Mn  Mn123  1  0.35715670  0.08368133  0.25258540  1
  Mn  Mn124  1  0.10729294  0.74966654  0.12228507  1
  Mn  Mn125  1  0.64128504  0.91657443  0.99723577  1
  Mn  Mn126  1  0.39155538  0.58319237  0.12707851  1
  Mn  Mn127  1  0.14224111  0.24991851  0.49801107  1
  Mn  Mn128  1  0.85826429  0.41619023  0.00233290  1
  Mn  Mn129  1  0.85668878  0.08362142  0.75291973  1
  Mn  Mn130  1  0.10849575  0.75055115  0.87258278  1
  Mn  Mn131  1  0.89207173  0.91665311  0.12749730  1
  Mn  Mn132  1  0.85837800  0.08228025  0.25222662  1
  Mn  Mn133  1  0.10850436  0.41670204  0.87188397  1
  Mn  Mn134  1  0.64197426  0.58305177  0.74782388  1
  Mn  Mn135  1  0.60777156  0.74994504  0.12252099  1
  Mn  Mn136  1  0.10763286  0.41701684  0.62345312  1
  Mn  Mn137  1  0.14170359  0.91637213  0.24747484  1
  Mn  Mn138  1  0.89290538  0.24959950  0.87719525  1
  Mn  Mn139  1  0.85920929  0.41690243  0.25191297  1
  Mn  Mn140  1  0.85766086  0.08403389  0.00120500  1
  Mn  Mn141  1  0.89153099  0.25026979  0.62755626  1
  Mn  Mn142  1  0.60675385  0.41688987  0.87342110  1
  Mn  Mn143  1  0.39173668  0.25037234  0.37726835  1
  Fe  Fe144  1  0.14309279  0.24990420  0.99774887  1
  Fe  Fe145  1  0.85699946  0.41637966  0.75158795  1
  Fe  Fe146  1  0.39180215  0.24941522  0.12661817  1
  Fe  Fe147  1  0.39312415  0.58295023  0.62595758  1
  Fe  Fe148  1  0.35716974  0.74987308  0.00159854  1
  Fe  Fe149  1  0.14251047  0.58405963  0.49838159  1
  Fe  Fe150  1  0.60629750  0.74979734  0.87363144  1
  Fe  Fe151  1  0.14206056  0.58318370  0.24799524  1
  Fe  Fe152  1  0.10743540  0.41647412  0.37373210  1
  Fe  Fe153  1  0.64190671  0.91662629  0.74859363  1
  Fe  Fe154  1  0.64187933  0.25086102  0.99877402  1
  Fe  Fe155  1  0.64281502  0.58263426  0.99807095  1
  Fe  Fe156  1  0.60826167  0.74914480  0.37313088  1
  Fe  Fe157  1  0.10728079  0.41695825  0.12242497  1
  Fe  Fe158  1  0.85666198  0.74990914  0.50187962  1
  Fe  Fe159  1  0.60657855  0.08336275  0.87326630  1
  Fe  Fe160  1  0.39232367  0.58318276  0.87736912  1
  Fe  Fe161  1  0.14284698  0.91619679  0.99810234  1
  Fe  Fe162  1  0.39249173  0.58376477  0.37676719  1
  Fe  Fe163  1  0.64294866  0.58307916  0.49855601  1
  Fe  Fe164  1  0.14280214  0.58389652  0.99783982  1
  Fe  Fe165  1  0.85755371  0.41687713  0.50192080  1
  Fe  Fe166  1  0.10704580  0.08352768  0.37390340  1
  Fe  Fe167  1  0.14174373  0.25052805  0.24753114  1
  Fe  Fe168  1  0.64296179  0.91650534  0.49838810  1
  Fe  Fe169  1  0.89328605  0.58269226  0.12619649  1
  Fe  Fe170  1  0.89243191  0.58353303  0.62628888  1
  Fe  Fe171  1  0.10664110  0.74994745  0.37358689  1
  Fe  Fe172  1  0.39340629  0.25040800  0.62602448  1
  Fe  Fe173  1  0.85724590  0.75038764  0.25180701  1
  Fe  Fe174  1  0.14426075  0.25036137  0.74842612  1
  Fe  Fe175  1  0.14201949  0.91637022  0.49826157  1
  Fe  Fe176  1  0.89229976  0.91664264  0.87641332  1
  Fe  Fe177  1  0.60785111  0.41684705  0.62316845  1
  Fe  Fe178  1  0.35858936  0.75017461  0.75109219  1
  Fe  Fe179  1  0.64282253  0.25049431  0.49883633  1
  Fe  Fe180  1  0.85699731  0.08330941  0.50196147  1
  Fe  Fe181  1  0.10805543  0.08269745  0.87308302  1
  Fe  Fe182  1  0.64289918  0.91638577  0.24793250  1
  Fe  Fe183  1  0.14362696  0.58329148  0.74827026  1
  Fe  Fe184  1  0.35629091  0.41687613  0.00212048  1
  Fe  Fe185  1  0.39230041  0.25018520  0.87734744  1
  Fe  Fe186  1  0.89346547  0.25059696  0.12594857  1
  Fe  Fe187  1  0.60693151  0.08415897  0.62291705  1
  Fe  Fe188  1  0.89325407  0.58389769  0.87677393  1
  Fe  Fe189  1  0.35826206  0.08283835  0.75155877  1
  Fe  Fe190  1  0.60718754  0.74899119  0.62308609  1
  Fe  Fe191  1  0.39203260  0.91728360  0.12666426  1
  P  P192  1  0.05421462  0.25128076  0.10977141  1
  P  P193  1  0.05419750  0.24994372  0.35998167  1
  P  P194  1  0.05466810  0.25017349  0.61171189  1
  P  P195  1  0.05610074  0.24917485  0.85995691  1
  P  P196  1  0.05397486  0.58266622  0.11022374  1
  P  P197  1  0.05536778  0.58347864  0.36132645  1
  P  P198  1  0.05408238  0.58357707  0.61073315  1
  P  P199  1  0.05471845  0.58377549  0.85988525  1
  P  P200  1  0.05365596  0.91623805  0.10887265  1
  P  P201  1  0.05433494  0.91666649  0.36150322  1
  P  P202  1  0.05368644  0.91628803  0.60924733  1
  P  P203  1  0.05346726  0.91697588  0.86068124  1
  P  P204  1  0.55184193  0.25001225  0.10919414  1
  P  P205  1  0.55492668  0.25035834  0.36077241  1
  P  P206  1  0.55283194  0.25043004  0.60980785  1
  P  P207  1  0.55279048  0.25003686  0.86136767  1
  P  P208  1  0.55377158  0.58328703  0.10898905  1
  P  P209  1  0.55369415  0.58418850  0.36068064  1
  P  P210  1  0.55307158  0.58295073  0.61005749  1
  P  P211  1  0.55296658  0.58372215  0.86145204  1
  P  P212  1  0.55279557  0.91673990  0.11095977  1
  P  P213  1  0.55624827  0.91513595  0.36060616  1
  P  P214  1  0.55564492  0.91653197  0.61087290  1
  P  P215  1  0.55357754  0.91631386  0.85959570  1
  P  P216  1  0.44597324  0.08362100  0.14022495  1
  P  P217  1  0.44728607  0.08297795  0.39021926  1
  P  P218  1  0.44748032  0.08395616  0.63994296  1
  P  P219  1  0.44625517  0.08372580  0.88871653  1
  P  P220  1  0.44455313  0.41568601  0.13895577  1
  P  P221  1  0.44628000  0.41800280  0.38948774  1
  P  P222  1  0.44849044  0.41680760  0.63945774  1
  P  P223  1  0.44492707  0.41689406  0.89065945  1
  P  P224  1  0.44477033  0.75063019  0.13897752  1
  P  P225  1  0.44852467  0.74905529  0.39005824  1
  P  P226  1  0.44762403  0.74916786  0.63981442  1
  P  P227  1  0.44555596  0.74926585  0.88936305  1
  P  P228  1  0.94695230  0.08436216  0.13950831  1
  P  P229  1  0.94734354  0.08351809  0.39116148  1
  P  P230  1  0.94505405  0.08310779  0.63948369  1
  P  P231  1  0.94820022  0.08267569  0.88957964  1
  P  P232  1  0.94854991  0.41679690  0.13933467  1
  P  P233  1  0.94801585  0.41658613  0.39112563  1
  P  P234  1  0.94442879  0.41774999  0.63968621  1
  P  P235  1  0.94590648  0.41750995  0.88836414  1
  P  P236  1  0.94575693  0.74889110  0.14059388  1
  P  P237  1  0.94574729  0.75008301  0.38980760  1
  P  P238  1  0.94500535  0.74931392  0.63885034  1
  P  P239  1  0.94668305  0.74986380  0.88953880  1
  P  P240  1  0.19464216  0.08433052  0.23597245  1
  P  P241  1  0.19618102  0.08253304  0.48433644  1
  P  P242  1  0.19725172  0.08388417  0.73640139  1
  P  P243  1  0.19611683  0.08309059  0.98430525  1
  P  P244  1  0.19360303  0.41702974  0.23554665  1
  P  P245  1  0.19582905  0.41770791  0.48486696  1
  P  P246  1  0.19738538  0.41697803  0.73525012  1
  P  P247  1  0.19620228  0.41688968  0.98593673  1
  P  P248  1  0.19484174  0.74878096  0.23617592  1
  P  P249  1  0.19577827  0.75002351  0.48453064  1
  P  P250  1  0.19865230  0.74876963  0.73502905  1
  P  P251  1  0.19792386  0.75012930  0.98516333  1
  P  P252  1  0.69719804  0.08198066  0.23453458  1
  P  P253  1  0.69636132  0.08386524  0.48668376  1
  P  P254  1  0.69361276  0.08292754  0.73582106  1
  P  P255  1  0.69528717  0.08471970  0.98431120  1
  P  P256  1  0.69738669  0.41705683  0.23447798  1
  P  P257  1  0.69675392  0.41723587  0.48643728  1
  P  P258  1  0.69663213  0.41701999  0.73444084  1
  P  P259  1  0.69654822  0.41673875  0.98508612  1
  P  P260  1  0.69686987  0.75057333  0.23575823  1
  P  P261  1  0.69564334  0.74879652  0.48635752  1
  P  P262  1  0.69389919  0.75031045  0.73610531  1
  P  P263  1  0.69556531  0.74862794  0.98404970  1
  P  P264  1  0.30359234  0.25049151  0.01428666  1
  P  P265  1  0.30225412  0.25049302  0.26390584  1
  P  P266  1  0.30374168  0.25001556  0.51579740  1
  P  P267  1  0.30538978  0.24944809  0.76421163  1
  P  P268  1  0.30309975  0.58331078  0.01382066  1
  P  P269  1  0.30204873  0.58310127  0.26595115  1
  P  P270  1  0.30388580  0.58374244  0.51420964  1
  P  P271  1  0.30520025  0.58394137  0.76403597  1
  P  P272  1  0.30260969  0.91594010  0.01563417  1
  P  P273  1  0.30444998  0.91659614  0.26438336  1
  P  P274  1  0.30177766  0.91638550  0.51481603  1
  P  P275  1  0.30423655  0.91650504  0.76448650  1
  P  P276  1  0.80259511  0.25000908  0.01541315  1
  P  P277  1  0.80523450  0.25010257  0.26402615  1
  P  P278  1  0.80228200  0.25004191  0.51488080  1
  P  P279  1  0.80255662  0.25093738  0.76540741  1
  P  P280  1  0.80413631  0.58323625  0.01419602  1
  P  P281  1  0.80545980  0.58402782  0.26386573  1
  P  P282  1  0.80301120  0.58363275  0.51544689  1
  P  P283  1  0.80507017  0.58241888  0.76436695  1
  P  P284  1  0.80412159  0.91691537  0.01342264  1
  P  P285  1  0.80214729  0.91552619  0.26531550  1
  P  P286  1  0.80173943  0.91628357  0.51515164  1
  P  P287  1  0.80186971  0.91669232  0.76569229  1
  O  O288  1  0.05825843  0.25042551  0.18652989  1
  O  O289  1  0.05652943  0.25002001  0.43683554  1
  O  O290  1  0.05965850  0.25017712  0.68837771  1
  O  O291  1  0.06020545  0.25025097  0.93679594  1
  O  O292  1  0.05815902  0.58351763  0.18694993  1
  O  O293  1  0.05878970  0.58368283  0.43815863  1
  O  O294  1  0.05917357  0.58377953  0.68740678  1
  O  O295  1  0.05984312  0.58377799  0.93662527  1
  O  O296  1  0.05680743  0.91613889  0.18572523  1
  O  O297  1  0.05799599  0.91643068  0.43824109  1
  O  O298  1  0.05711711  0.91620491  0.68608832  1
  O  O299  1  0.05880324  0.91602327  0.93730865  1
  O  O300  1  0.55605198  0.25036541  0.18590761  1
  O  O301  1  0.55982628  0.25027402  0.43758573  1
  O  O302  1  0.55562775  0.25067448  0.68611170  1
  O  O303  1  0.55757646  0.25056115  0.93815236  1
  O  O304  1  0.55729044  0.58331158  0.18578710  1
  O  O305  1  0.55876958  0.58337053  0.43741214  1
  O  O306  1  0.55619742  0.58278975  0.68633447  1
  O  O307  1  0.55789785  0.58303240  0.93818125  1
  O  O308  1  0.55802564  0.91631540  0.18758173  1
  O  O309  1  0.56070408  0.91621821  0.43750455  1
  O  O310  1  0.55852659  0.91649484  0.68765277  1
  O  O311  1  0.55552176  0.91641870  0.93654889  1
  O  O312  1  0.44322462  0.08339597  0.06331596  1
  O  O313  1  0.44341809  0.08303612  0.31347550  1
  O  O314  1  0.44388841  0.08293512  0.56319620  1
  O  O315  1  0.44179822  0.08325690  0.81208992  1
  O  O316  1  0.44008068  0.41657520  0.06217039  1
  O  O317  1  0.44264912  0.41745914  0.31274964  1
  O  O318  1  0.44486773  0.41688740  0.56269961  1
  O  O319  1  0.44295091  0.41694240  0.81406677  1
  O  O320  1  0.44033896  0.75001954  0.06215190  1
  O  O321  1  0.44444971  0.74970578  0.31335624  1
  O  O322  1  0.44387411  0.74997065  0.56311760  1
  O  O323  1  0.44150252  0.74977968  0.81263287  1
  O  O324  1  0.94385832  0.08375126  0.06275534  1
  O  O325  1  0.94363326  0.08312932  0.31440854  1
  O  O326  1  0.94001165  0.08329251  0.56273524  1
  O  O327  1  0.94399640  0.08331759  0.81285484  1
  O  O328  1  0.94504307  0.41682408  0.06261834  1
  O  O329  1  0.94439068  0.41685523  0.31439537  1
  O  O330  1  0.94035881  0.41676547  0.56292725  1
  O  O331  1  0.94156045  0.41668998  0.81155975  1
  O  O332  1  0.94282399  0.74964156  0.06378337  1
  O  O333  1  0.94100512  0.75035728  0.31313502  1
  O  O334  1  0.94052334  0.74995883  0.56210015  1
  O  O335  1  0.94362864  0.74993683  0.81272885  1
  O  O336  1  0.19345536  0.08321627  0.06113657  1
  O  O337  1  0.19057392  0.08377381  0.31269663  1
  O  O338  1  0.19393860  0.08330072  0.56120418  1
  O  O339  1  0.19240179  0.08297434  0.81304043  1
  O  O340  1  0.19172416  0.41703764  0.06275944  1
  O  O341  1  0.19021056  0.41675377  0.31233740  1
  O  O342  1  0.19315308  0.41705223  0.56174591  1
  O  O343  1  0.19507027  0.41684903  0.81197889  1
  O  O344  1  0.19412373  0.75001372  0.06183728  1
  O  O345  1  0.19042315  0.74962946  0.31287231  1
  O  O346  1  0.19363582  0.74984607  0.56134867  1
  O  O347  1  0.19492296  0.74939653  0.81171061  1
  O  O348  1  0.69271866  0.08376165  0.06111744  1
  O  O349  1  0.69441319  0.08300878  0.31135465  1
  O  O350  1  0.69157795  0.08409096  0.56339639  1
  O  O351  1  0.68942566  0.08403007  0.81263968  1
  O  O352  1  0.69356443  0.41677552  0.06181671  1
  O  O353  1  0.69415085  0.41722231  0.31131460  1
  O  O354  1  0.69184019  0.41722908  0.56310054  1
  O  O355  1  0.69232151  0.41717881  0.81120199  1
  O  O356  1  0.69318463  0.74937180  0.06090487  1
  O  O357  1  0.69255335  0.74947489  0.31248064  1
  O  O358  1  0.69106956  0.74851292  0.56309379  1
  O  O359  1  0.68979195  0.74919512  0.81283685  1
  O  O360  1  0.30731081  0.25011413  0.18723335  1
  O  O361  1  0.30638234  0.25042285  0.43896854  1
  O  O362  1  0.31031886  0.25012941  0.68746139  1
  O  O363  1  0.30844132  0.24967698  0.93756940  1
  O  O364  1  0.30622621  0.58337756  0.18921985  1
  O  O365  1  0.30865608  0.58358987  0.43756125  1
  O  O366  1  0.30998661  0.58321529  0.68725366  1
  O  O367  1  0.30776073  0.58330618  0.93713962  1
  O  O368  1  0.30894871  0.91678352  0.18762865  1
  O  O369  1  0.30586414  0.91615964  0.43810968  1
  O  O370  1  0.30728585  0.91685529  0.68773926  1
  O  O371  1  0.30670519  0.91666629  0.93890509  1
  O  O372  1  0.81006537  0.25047752  0.18728778  1
  O  O373  1  0.80591893  0.24993339  0.43820307  1
  O  O374  1  0.80580955  0.25007558  0.68850574  1
  O  O375  1  0.80681464  0.25014967  0.93869793  1
  O  O376  1  0.80962156  0.58290285  0.18711688  1
  O  O377  1  0.80660881  0.58368895  0.43870078  1
  O  O378  1  0.80895736  0.58351272  0.68758613  1
  O  O379  1  0.80905213  0.58326467  0.93745736  1
  O  O380  1  0.80578975  0.91616415  0.18853966  1
  O  O381  1  0.80557209  0.91628198  0.43847762  1
  O  O382  1  0.80567062  0.91649051  0.68897095  1
  O  O383  1  0.80869141  0.91702913  0.93670477  1
  O  O384  1  0.23303244  0.24983026  0.03755601  1
  O  O385  1  0.23186521  0.25097088  0.28731072  1
  O  O386  1  0.23408671  0.24974218  0.54095911  1
  O  O387  1  0.23491775  0.25023097  0.78771011  1
  O  O388  1  0.23277109  0.58361010  0.03782732  1
  O  O389  1  0.23178908  0.58278975  0.28960535  1
  O  O390  1  0.23343153  0.58417682  0.53766829  1
  O  O391  1  0.23479780  0.58308671  0.78774690  1
  O  O392  1  0.23244203  0.91658328  0.03993148  1
  O  O393  1  0.23421044  0.91648955  0.28775382  1
  O  O394  1  0.23178722  0.91624611  0.53939426  1
  O  O395  1  0.23458796  0.91598745  0.78986803  1
  O  O396  1  0.73239236  0.25020538  0.03955777  1
  O  O397  1  0.73512562  0.24997964  0.28786651  1
  O  O398  1  0.73225407  0.25045678  0.53986528  1
  O  O399  1  0.73293690  0.25094096  0.79006548  1
  O  O400  1  0.73372294  0.58325039  0.03768675  1
  O  O401  1  0.73552094  0.58371388  0.28836057  1
  O  O402  1  0.73289991  0.58344439  0.54013418  1
  O  O403  1  0.73502484  0.58300380  0.78833586  1
  O  O404  1  0.73392087  0.91620502  0.03720898  1
  O  O405  1  0.73233504  0.91613596  0.29037280  1
  O  O406  1  0.73155532  0.91598960  0.53959378  1
  O  O407  1  0.73164199  0.91671156  0.78968984  1
  O  O408  1  0.26454807  0.08365129  0.21143707  1
  O  O409  1  0.26564297  0.08359032  0.45841286  1
  O  O410  1  0.26759899  0.08340622  0.71256252  1
  O  O411  1  0.26589570  0.08331083  0.95916900  1
  O  O412  1  0.26350641  0.41718414  0.21080399  1
  O  O413  1  0.26541898  0.41691237  0.45944385  1
  O  O414  1  0.26682530  0.41728847  0.70932919  1
  O  O415  1  0.26645425  0.41665274  0.96186844  1
  O  O416  1  0.26487502  0.74919803  0.21211145  1
  O  O417  1  0.26531318  0.74978172  0.45865962  1
  O  O418  1  0.26861722  0.74964209  0.71020985  1
  O  O419  1  0.26799593  0.74967241  0.96049290  1
  O  O420  1  0.76668283  0.08229924  0.20895114  1
  O  O421  1  0.76664714  0.08333586  0.46250159  1
  O  O422  1  0.76379961  0.08332299  0.71193010  1
  O  O423  1  0.76489701  0.08408768  0.95877136  1
  O  O424  1  0.76710059  0.41703336  0.20953129  1
  O  O425  1  0.76711112  0.41725558  0.46245566  1
  O  O426  1  0.76693226  0.41685901  0.71063285  1
  O  O427  1  0.76617097  0.41671583  0.95976652  1
  O  O428  1  0.76693300  0.74996211  0.21129428  1
  O  O429  1  0.76607294  0.74939014  0.46258906  1
  O  O430  1  0.76410382  0.74987723  0.71218820  1
  O  O431  1  0.76516169  0.74968980  0.95861817  1
  O  O432  1  0.01663438  0.08380618  0.16469078  1
  O  O433  1  0.01747140  0.08360758  0.41540558  1
  O  O434  1  0.01527173  0.08275311  0.66291070  1
  O  O435  1  0.01828683  0.08322527  0.91393000  1
  O  O436  1  0.01845841  0.41709444  0.16433351  1
  O  O437  1  0.01815468  0.41680026  0.41540400  1
  O  O438  1  0.01451950  0.41725967  0.66381967  1
  O  O439  1  0.01593424  0.41715649  0.91230363  1
  O  O440  1  0.01548580  0.74968536  0.16565481  1
  O  O441  1  0.01620987  0.74955827  0.41317921  1
  O  O442  1  0.01503730  0.74981558  0.66307418  1
  O  O443  1  0.01627179  0.74955163  0.91497492  1
  O  O444  1  0.51547968  0.08389704  0.16590677  1
  O  O445  1  0.51715963  0.08295541  0.41466758  1
  O  O446  1  0.51765734  0.08409663  0.66423441  1
  O  O447  1  0.51654061  0.08307898  0.91273591  1
  O  O448  1  0.51455147  0.41657372  0.16318210  1
  O  O449  1  0.51610551  0.41719682  0.41419545  1
  O  O450  1  0.51836854  0.41688191  0.66463610  1
  O  O451  1  0.51453276  0.41665517  0.91640833  1
  O  O452  1  0.51489029  0.74978564  0.16288302  1
  O  O453  1  0.51852123  0.74933813  0.41460030  1
  O  O454  1  0.51782907  0.74899217  0.66405262  1
  O  O455  1  0.51582831  0.75020308  0.91342102  1
  O  O456  1  0.48168837  0.24942180  0.08507349  1
  O  O457  1  0.48474898  0.25073765  0.33716203  1
  O  O458  1  0.48276314  0.25009175  0.58447206  1
  O  O459  1  0.48239124  0.25070114  0.83773237  1
  O  O460  1  0.48377615  0.58354524  0.08479888  1
  O  O461  1  0.48349500  0.58400727  0.33659629  1
  O  O462  1  0.48290809  0.58334234  0.58503320  1
  O  O463  1  0.48258613  0.58302736  0.83783911  1
  O  O464  1  0.48249007  0.91691380  0.08712004  1
  O  O465  1  0.48610090  0.91578600  0.33692773  1
  O  O466  1  0.48579668  0.91622164  0.58562178  1
  O  O467  1  0.48411675  0.91636026  0.83376991  1
  O  O468  1  0.98403590  0.25055622  0.08538436  1
  O  O469  1  0.98462864  0.25034376  0.33430674  1
  O  O470  1  0.98448651  0.25043772  0.58794848  1
  O  O471  1  0.98592074  0.24976536  0.83604471  1
  O  O472  1  0.98367911  0.58299221  0.08618514  1
  O  O473  1  0.98535572  0.58315322  0.33687643  1
  O  O474  1  0.98364861  0.58326689  0.58724507  1
  O  O475  1  0.98418981  0.58384025  0.83681832  1
  O  O476  1  0.98382799  0.91654992  0.08429525  1
  O  O477  1  0.98446193  0.91691734  0.33660201  1
  O  O478  1  0.98386014  0.91635982  0.58463623  1
  O  O479  1  0.98311057  0.91671431  0.83689540  1
  O  O480  1  0.08758138  0.31658903  0.07692186  1
  O  O481  1  0.08870645  0.31498437  0.32778962  1
  O  O482  1  0.08805590  0.31518960  0.57846216  1
  O  O483  1  0.09004433  0.31396511  0.82658471  1
  O  O484  1  0.08756425  0.64755716  0.07658929  1
  O  O485  1  0.08873938  0.64861158  0.32809113  1
  O  O486  1  0.08733079  0.64851204  0.57709621  1
  O  O487  1  0.08814079  0.64870812  0.82638732  1
  O  O488  1  0.08816285  0.98102881  0.07644183  1
  O  O489  1  0.08810460  0.98188571  0.32887164  1
  O  O490  1  0.08806193  0.98119893  0.57688037  1
  O  O491  1  0.08676814  0.98214199  0.82752343  1
  O  O492  1  0.58544531  0.31507068  0.07600428  1
  O  O493  1  0.58848770  0.31530572  0.32760993  1
  O  O494  1  0.58693447  0.31548969  0.57688316  1
  O  O495  1  0.58618302  0.31497170  0.82793624  1
  O  O496  1  0.58796178  0.64816050  0.07636941  1
  O  O497  1  0.58715157  0.64943752  0.32775327  1
  O  O498  1  0.58727917  0.64795349  0.57713583  1
  O  O499  1  0.58582305  0.64895497  0.82821490  1
  O  O500  1  0.58618258  0.98182574  0.07775317  1
  O  O501  1  0.59015866  0.97984661  0.32709511  1
  O  O502  1  0.58934982  0.98180258  0.57817784  1
  O  O503  1  0.58815271  0.98131143  0.82762998  1
  O  O504  1  0.41192086  0.01843887  0.17240485  1
  O  O505  1  0.41365874  0.01783272  0.42305238  1
  O  O506  1  0.41376317  0.01889423  0.67310292  1
  O  O507  1  0.41276557  0.01877871  0.92219563  1
  O  O508  1  0.41143045  0.35016506  0.17158415  1
  O  O509  1  0.41194324  0.35320378  0.42226392  1
  O  O510  1  0.41448586  0.35172397  0.67197371  1
  O  O511  1  0.41022401  0.35191670  0.92283881  1
  O  O512  1  0.41109213  0.68557393  0.17216198  1
  O  O513  1  0.41456892  0.68394564  0.42246012  1
  O  O514  1  0.41361194  0.68417831  0.67239163  1
  O  O515  1  0.41235454  0.68401028  0.92249185  1
  O  O516  1  0.91288023  0.01927446  0.17227984  1
  O  O517  1  0.91322887  0.01865575  0.42410913  1
  O  O518  1  0.91155978  0.01804209  0.67256854  1
  O  O519  1  0.91441187  0.01760702  0.92214721  1
  O  O520  1  0.91490552  0.35155435  0.17197670  1
  O  O521  1  0.91413005  0.35158720  0.42386756  1
  O  O522  1  0.91044559  0.35298220  0.67318077  1
  O  O523  1  0.91239517  0.35255940  0.92181769  1
  O  O524  1  0.91207966  0.68348294  0.17271004  1
  O  O525  1  0.91215238  0.68517734  0.42317895  1
  O  O526  1  0.91173761  0.68398440  0.67165035  1
  O  O527  1  0.91247391  0.68464695  0.92176599  1
  O  O528  1  0.16073562  0.01941790  0.20288417  1
  O  O529  1  0.16214256  0.01714318  0.45250193  1
  O  O530  1  0.16363153  0.01901083  0.70292099  1
  O  O531  1  0.16207313  0.01784053  0.95200646  1
  O  O532  1  0.15984138  0.35207737  0.20233822  1
  O  O533  1  0.16108403  0.35297800  0.45235685  1
  O  O534  1  0.16316984  0.35181490  0.70312463  1
  O  O535  1  0.16286990  0.35175083  0.95289596  1
  O  O536  1  0.16167373  0.68334954  0.20328183  1
  O  O537  1  0.16106943  0.68498064  0.45258373  1
  O  O538  1  0.16511815  0.68345187  0.70246866  1
  O  O539  1  0.16391317  0.68522348  0.95232523  1
  O  O540  1  0.66299232  0.01667162  0.20276393  1
  O  O541  1  0.66291284  0.01861108  0.45377355  1
  O  O542  1  0.66034233  0.01750701  0.70324717  1
  O  O543  1  0.66046187  0.01988550  0.95188068  1
  O  O544  1  0.66315817  0.35199489  0.20216441  1
  O  O545  1  0.66342208  0.35217062  0.45321257  1
  O  O546  1  0.66271827  0.35220800  0.70148426  1
  O  O547  1  0.66232960  0.35152844  0.95286623  1
  O  O548  1  0.66297027  0.68585428  0.20232939  1
  O  O549  1  0.66278382  0.68350335  0.45270250  1
  O  O550  1  0.66027415  0.68556776  0.70243010  1
  O  O551  1  0.66170927  0.68324978  0.95197529  1
  O  O552  1  0.33645875  0.31571596  0.04757745  1
  O  O553  1  0.33558584  0.31550806  0.29723662  1
  O  O554  1  0.33795932  0.31505385  0.54835810  1
  O  O555  1  0.33881295  0.31440684  0.79769529  1
  O  O556  1  0.33659634  0.64828513  0.04703694  1
  O  O557  1  0.33576938  0.64800143  0.29923646  1
  O  O558  1  0.33766158  0.64856587  0.54747697  1
  O  O559  1  0.33822601  0.64923591  0.79718423  1
  O  O560  1  0.33671569  0.98091840  0.04858377  1
  O  O561  1  0.33769955  0.98157770  0.29775086  1
  O  O562  1  0.33566480  0.98146121  0.54748030  1
  O  O563  1  0.33799533  0.98166554  0.79721748  1
  O  O564  1  0.83673505  0.31490798  0.04836791  1
  O  O565  1  0.83856723  0.31520007  0.29742099  1
  O  O566  1  0.83638574  0.31514467  0.54731436  1
  O  O567  1  0.83684734  0.31607802  0.79735366  1
  O  O568  1  0.83757253  0.64819135  0.04751279  1
  O  O569  1  0.83879883  0.64939847  0.29654393  1
  O  O570  1  0.83687422  0.64868121  0.54829715  1
  O  O571  1  0.83903841  0.64715810  0.79789942  1
  O  O572  1  0.83704335  0.98217640  0.04671012  1
  O  O573  1  0.83641395  0.98047727  0.29806525  1
  O  O574  1  0.83518533  0.98147687  0.54795524  1
  O  O575  1  0.83576427  0.98166416  0.79853841  1
  O  O576  1  0.41158504  0.14893191  0.17209889  1
  O  O577  1  0.41338069  0.14816419  0.42256281  1
  O  O578  1  0.41349325  0.14902497  0.67236915  1
  O  O579  1  0.41309477  0.14885149  0.92196309  1
  O  O580  1  0.41067228  0.48062746  0.17205079  1
  O  O581  1  0.41286568  0.48342465  0.42202965  1
  O  O582  1  0.41436882  0.48184997  0.67195392  1
  O  O583  1  0.41053129  0.48202856  0.92297652  1
  O  O584  1  0.41174946  0.81589469  0.17197328  1
  O  O585  1  0.41475065  0.81402827  0.42321942  1
  O  O586  1  0.41400908  0.81422702  0.67299766  1
  O  O587  1  0.41156459  0.81401808  0.92271971  1
  O  O588  1  0.91330122  0.14971770  0.17167637  1
  O  O589  1  0.91342011  0.14856043  0.42385160  1
  O  O590  1  0.91192744  0.14828717  0.67290919  1
  O  O591  1  0.91443225  0.14778481  0.92251302  1
  O  O592  1  0.91460375  0.48180986  0.17213758  1
  O  O593  1  0.91384610  0.48139993  0.42402009  1
  O  O594  1  0.91108133  0.48311948  0.67225157  1
  O  O595  1  0.91266082  0.48286476  0.92121125  1
  O  O596  1  0.91108698  0.81367128  0.17335834  1
  O  O597  1  0.91251119  0.81505121  0.42342591  1
  O  O598  1  0.91122212  0.81418009  0.67217702  1
  O  O599  1  0.91256594  0.81499070  0.92180211  1
  O  O600  1  0.08840037  0.18663486  0.07644429  1
  O  O601  1  0.08822337  0.18470919  0.32769633  1
  O  O602  1  0.08783497  0.18508994  0.57840326  1
  O  O603  1  0.08951617  0.18382364  0.82741008  1
  O  O604  1  0.08755183  0.51765172  0.07708391  1
  O  O605  1  0.08913006  0.51835975  0.32855074  1
  O  O606  1  0.08773852  0.51867898  0.57749124  1
  O  O607  1  0.08798379  0.51880862  0.82632616  1
  O  O608  1  0.08759213  0.85114468  0.07619365  1
  O  O609  1  0.08778432  0.85139441  0.32851130  1
  O  O610  1  0.08785432  0.85130274  0.57678241  1
  O  O611  1  0.08672988  0.85193471  0.82695920  1
  O  O612  1  0.58611696  0.18520155  0.07652467  1
  O  O613  1  0.58800130  0.18509003  0.32754697  1
  O  O614  1  0.58709025  0.18531273  0.57713701  1
  O  O615  1  0.58568478  0.18488638  0.82811791  1
  O  O616  1  0.58766235  0.51822636  0.07627024  1
  O  O617  1  0.58718367  0.51930049  0.32714958  1
  O  O618  1  0.58697965  0.51795230  0.57682855  1
  O  O619  1  0.58648584  0.51891030  0.82786044  1
  O  O620  1  0.58607271  0.85178398  0.07731128  1
  O  O621  1  0.58940433  0.84965803  0.32792673  1
  O  O622  1  0.58976664  0.85145624  0.57829701  1
  O  O623  1  0.58801436  0.85115454  0.82776807  1
  O  O624  1  0.33708193  0.18560676  0.04792905  1
  O  O625  1  0.33537114  0.18555421  0.29766024  1
  O  O626  1  0.33831571  0.18509302  0.54794315  1
  O  O627  1  0.33830408  0.18422149  0.79759151  1
  O  O628  1  0.33602499  0.51807327  0.04725725  1
  O  O629  1  0.33590487  0.51814875  0.29874063  1
  O  O630  1  0.33701077  0.51867011  0.54790678  1
  O  O631  1  0.33891089  0.51916450  0.79756205  1
  O  O632  1  0.33633395  0.85076713  0.04812541  1
  O  O633  1  0.33771862  0.85146186  0.29764247  1
  O  O634  1  0.33586997  0.85144050  0.54754386  1
  O  O635  1  0.33852745  0.85131104  0.79650843  1
  O  O636  1  0.83649162  0.18497231  0.04808450  1
  O  O637  1  0.83857489  0.18489278  0.29711588  1
  O  O638  1  0.83589700  0.18491551  0.54780299  1
  O  O639  1  0.83653278  0.18586624  0.79814562  1
  O  O640  1  0.83767021  0.51829662  0.04765683  1
  O  O641  1  0.83923938  0.51916446  0.29733221  1
  O  O642  1  0.83727196  0.51866681  0.54791804  1
  O  O643  1  0.83847663  0.51708519  0.79707764  1
  O  O644  1  0.83777861  0.85198152  0.04655663  1
  O  O645  1  0.83585148  0.85031397  0.29786793  1
  O  O646  1  0.83530651  0.85107653  0.54791618  1
  O  O647  1  0.83577542  0.85173887  0.79857761  1
  O  O648  1  0.16144151  0.14969890  0.20302458  1
  O  O649  1  0.16105060  0.14725328  0.45218955  1
  O  O650  1  0.16421275  0.14917557  0.70327087  1
  O  O651  1  0.16181407  0.14809238  0.95201325  1
  O  O652  1  0.15984639  0.48229629  0.20281747  1
  O  O653  1  0.16189233  0.48308198  0.45297186  1
  O  O654  1  0.16285921  0.48211249  0.70329757  1
  O  O655  1  0.16299275  0.48201033  0.95267292  1
  O  O656  1  0.16117316  0.81358845  0.20268392  1
  O  O657  1  0.16131631  0.81506912  0.45236903  1
  O  O658  1  0.16411881  0.81352417  0.70242526  1
  O  O659  1  0.16455465  0.81544883  0.95228186  1
  O  O660  1  0.66280371  0.14696694  0.20209423  1
  O  O661  1  0.66337882  0.14904889  0.45325556  1
  O  O662  1  0.65984616  0.14761712  0.70227707  1
  O  O663  1  0.66117625  0.15011828  0.95250485  1
  O  O664  1  0.66323192  0.48205491  0.20210028  1
  O  O665  1  0.66362223  0.48261493  0.45319894  1
  O  O666  1  0.66308526  0.48199737  0.70132388  1
  O  O667  1  0.66250559  0.48189910  0.95252403  1
  O  O668  1  0.66352992  0.81596060  0.20293644  1
  O  O669  1  0.66193370  0.81370663  0.45323037  1
  O  O670  1  0.66065707  0.81565472  0.70337765  1
  O  O671  1  0.66040748  0.81332472  0.95187486  1
