# generated using pymatgen
data_Na2MnFe(PO4)2
_symmetry_space_group_name_H-M   'P 1'
_cell_length_a   21.08527243
_cell_length_b   18.93836381
_cell_length_c   20.04460453
_cell_angle_alpha   90.00047931
_cell_angle_beta   90.00348309
_cell_angle_gamma   89.99998571
_symmetry_Int_Tables_number   1
_chemical_formula_structural   Na2MnFe(PO4)2
_chemical_formula_sum   'Na96 Mn48 Fe48 P96 O384'
_cell_volume   8004.22269846
_cell_formula_units_Z   48
loop_
 _symmetry_equiv_pos_site_id
 _symmetry_equiv_pos_as_xyz
  1  'x, y, z'
loop_
 _atom_site_type_symbol
 _atom_site_label
 _atom_site_symmetry_multiplicity
 _atom_site_fract_x
 _atom_site_fract_y
 _atom_site_fract_z
 _atom_site_occupancy
  Na  Na0  1  -0.00103596  -0.00072905  -0.00002793  1
  Na  Na1  1  -0.00037545  0.00086001  0.25007963  1
  Na  Na2  1  -0.00093918  -0.00043131  0.50057760  1
  Na  Na3  1  0.00064361  0.00019908  0.74954982  1
  Na  Na4  1  -0.00158415  0.33253209  -0.00116485  1
  Na  Na5  1  -0.00106904  0.33300322  0.25155966  1
  Na  Na6  1  0.00014734  0.33325794  0.50113942  1
  Na  Na7  1  0.00039632  0.33349044  0.74871686  1
  Na  Na8  1  0.00147614  0.66752379  -0.00082686  1
  Na  Na9  1  -0.00148054  0.66589977  0.25093839  1
  Na  Na10  1  0.00105371  0.66714128  0.49945725  1
  Na  Na11  1  0.00087478  0.66636267  0.75048919  1
  Na  Na12  1  0.49748415  -0.00054403  -0.00040768  1
  Na  Na13  1  0.50163307  0.00060086  0.25000499  1
  Na  Na14  1  0.50052091  0.00016855  0.50018264  1
  Na  Na15  1  0.49922268  0.00086708  0.74980630  1
  Na  Na16  1  0.49731508  0.33272577  0.00011977  1
  Na  Na17  1  0.49916938  0.33305669  0.25015632  1
  Na  Na18  1  0.49973057  0.33286315  0.49971994  1
  Na  Na19  1  0.50014545  0.33398717  0.74946160  1
  Na  Na20  1  0.49945069  0.66621574  0.00063071  1
  Na  Na21  1  0.50173047  0.66710316  0.24939126  1
  Na  Na22  1  0.50264997  0.66709876  0.50075742  1
  Na  Na23  1  0.49949986  0.66597088  0.74989466  1
  Na  Na24  1  0.24980277  0.00009903  0.12620621  1
  Na  Na25  1  0.24972195  0.00009561  0.37406215  1
  Na  Na26  1  0.25105782  0.00106970  0.62494714  1
  Na  Na27  1  0.24860404  -0.00018080  0.87513613  1
  Na  Na28  1  0.24980975  0.33306364  0.12440049  1
  Na  Na29  1  0.25110313  0.33420564  0.37587591  1
  Na  Na30  1  0.24744340  0.33194075  0.62399140  1
  Na  Na31  1  0.25026020  0.33400738  0.87562138  1
  Na  Na32  1  0.24977641  0.66691608  0.12508039  1
  Na  Na33  1  0.24841351  0.66625172  0.37542471  1
  Na  Na34  1  0.24932347  0.66696097  0.62568939  1
  Na  Na35  1  0.24963966  0.66698944  0.87460294  1
  Na  Na36  1  0.75271097  0.00059443  0.12476645  1
  Na  Na37  1  0.74831521  -0.00026487  0.37383318  1
  Na  Na38  1  0.74951887  0.00018153  0.62547078  1
  Na  Na39  1  0.75259741  0.00019856  0.87531880  1
  Na  Na40  1  0.75136311  0.33287826  0.12460733  1
  Na  Na41  1  0.75195447  0.33360359  0.37493757  1
  Na  Na42  1  0.75000445  0.33294427  0.62461810  1
  Na  Na43  1  0.75253987  0.33407577  0.87554451  1
  Na  Na44  1  0.75048272  0.66685869  0.12589256  1
  Na  Na45  1  0.74806338  0.66598708  0.37438443  1
  Na  Na46  1  0.75030618  0.66665181  0.62492386  1
  Na  Na47  1  0.74951602  0.66527240  0.87460755  1
  Na  Na48  1  -0.00117523  0.16660632  0.00061117  1
  Na  Na49  1  -0.00352841  0.16774529  0.25044585  1
  Na  Na50  1  0.00011418  0.16662678  0.50074355  1
  Na  Na51  1  0.00090916  0.16629055  0.74824490  1
  Na  Na52  1  0.00111969  0.49939706  -0.00167510  1
  Na  Na53  1  0.00044042  0.50016813  0.25131982  1
  Na  Na54  1  -0.00076782  0.50014315  0.50009276  1
  Na  Na55  1  -0.00020200  0.50014271  0.75018311  1
  Na  Na56  1  -0.00019694  0.83366418  -0.00063832  1
  Na  Na57  1  -0.00126473  0.83378353  0.25025472  1
  Na  Na58  1  0.00176425  0.83192822  0.50038433  1
  Na  Na59  1  0.00108279  0.83307630  0.75041598  1
  Na  Na60  1  0.49705080  0.16656802  -0.00031520  1
  Na  Na61  1  0.49902982  0.16696074  0.24938419  1
  Na  Na62  1  0.50099725  0.16612059  0.50068483  1
  Na  Na63  1  0.49726425  0.16730404  0.74946920  1
  Na  Na64  1  0.49953959  0.50088473  0.00040790  1
  Na  Na65  1  0.50165196  0.49999610  0.24991390  1
  Na  Na66  1  0.50136436  0.50009050  0.50015879  1
  Na  Na67  1  0.50114461  0.49990252  0.74980863  1
  Na  Na68  1  0.49797989  0.83381486  0.00056976  1
  Na  Na69  1  0.50102963  0.83350017  0.24993318  1
  Na  Na70  1  0.50153367  0.83314242  0.50004630  1
  Na  Na71  1  0.49972760  0.83312560  0.74954424  1
  Na  Na72  1  0.25056215  0.16614094  0.12518467  1
  Na  Na73  1  0.24995318  0.16682412  0.37476013  1
  Na  Na74  1  0.25025938  0.16665711  0.62486732  1
  Na  Na75  1  0.25037869  0.16588678  0.87532456  1
  Na  Na76  1  0.24896035  0.50058810  0.12430586  1
  Na  Na77  1  0.24976406  0.49943736  0.37555745  1
  Na  Na78  1  0.24944750  0.50012530  0.62514049  1
  Na  Na79  1  0.25053424  0.49973857  0.87540027  1
  Na  Na80  1  0.25032830  0.83271052  0.12598408  1
  Na  Na81  1  0.24987558  0.83260132  0.37507935  1
  Na  Na82  1  0.24793893  0.83335650  0.62470549  1
  Na  Na83  1  0.24752536  0.83404591  0.87481200  1
  Na  Na84  1  0.75345022  0.16579410  0.12533241  1
  Na  Na85  1  0.75039777  0.16663733  0.37400759  1
  Na  Na86  1  0.74967482  0.16713753  0.62483882  1
  Na  Na87  1  0.75267332  0.16643038  0.87527358  1
  Na  Na88  1  0.74923217  0.50084125  0.12538236  1
  Na  Na89  1  0.74945395  0.50044498  0.37485508  1
  Na  Na90  1  0.74933030  0.50045269  0.62520670  1
  Na  Na91  1  0.74995301  0.50022738  0.87403845  1
  Na  Na92  1  0.75196565  0.83303424  0.12445079  1
  Na  Na93  1  0.74771321  0.83456714  0.37431075  1
  Na  Na94  1  0.74967452  0.83378844  0.62522386  1
  Na  Na95  1  0.75298272  0.83251383  0.87579581  1
  Mn  Mn96  1  0.64283382  0.91638273  0.74893940  1
  Mn  Mn97  1  0.89170250  0.91701412  0.37773934  1
  Mn  Mn98  1  0.10835323  0.08325885  0.62177732  1
  Mn  Mn99  1  0.14216906  0.58286431  0.74715073  1
  Mn  Mn100  1  0.85877765  0.74957157  0.00236638  1
  Mn  Mn101  1  0.10756438  0.41615364  0.37341322  1
  Mn  Mn102  1  0.60716594  0.08362372  0.87359976  1
  Mn  Mn103  1  0.10638731  0.08386441  0.12288588  1
  Mn  Mn104  1  0.39197914  0.91633827  0.62678537  1
  Mn  Mn105  1  0.10689940  0.74949970  0.12268829  1
  Mn  Mn106  1  0.35695338  0.75044106  0.75236136  1
  Mn  Mn107  1  0.10796170  0.41570462  0.87224191  1
  Mn  Mn108  1  0.14135476  0.58289255  0.24742466  1
  Mn  Mn109  1  0.89211051  0.91542216  0.62709140  1
  Mn  Mn110  1  0.60804555  0.41628894  0.37293966  1
  Mn  Mn111  1  0.85728934  0.75020951  0.50225952  1
  Mn  Mn112  1  0.35754604  0.41700997  0.25214886  1
  Mn  Mn113  1  0.39348471  0.91673064  0.37752500  1
  Mn  Mn114  1  0.39198902  0.25052811  0.62683586  1
  Mn  Mn115  1  0.60719943  0.41606456  0.87325331  1
  Mn  Mn116  1  0.89243589  0.58343811  0.87737133  1
  Mn  Mn117  1  0.64296719  0.24977313  0.24761493  1
  Mn  Mn118  1  0.85840541  0.41699763  0.25215897  1
  Mn  Mn119  1  0.35787153  0.08342136  0.25296272  1
  Mn  Mn120  1  0.60749947  0.75038405  0.87303191  1
  Mn  Mn121  1  0.39283073  0.58315670  0.62653098  1
  Mn  Mn122  1  0.60807831  0.08349174  0.12194792  1
  Mn  Mn123  1  0.39041364  0.91624564  0.87764297  1
  Mn  Mn124  1  0.14168841  0.24971242  0.99750780  1
  Mn  Mn125  1  0.85858110  0.41700623  0.00270504  1
  Mn  Mn126  1  0.39149111  0.24965924  0.12728155  1
  Mn  Mn127  1  0.60884562  0.74997181  0.62306434  1
  Mn  Mn128  1  0.14180237  0.91667121  0.24790263  1
  Mn  Mn129  1  0.14157857  0.25036125  0.24839399  1
  Mn  Mn130  1  0.60772952  0.08394892  0.62298887  1
  Mn  Mn131  1  0.35771639  0.41623003  0.75163269  1
  Mn  Mn132  1  0.39204935  0.58388237  0.12718909  1
  Mn  Mn133  1  0.14245709  0.91689212  0.49724805  1
  Mn  Mn134  1  0.89251570  0.25054231  0.62697188  1
  Mn  Mn135  1  0.60801302  0.75064317  0.12227462  1
  Mn  Mn136  1  0.39300226  0.58342610  0.37776482  1
  Mn  Mn137  1  0.64290107  0.91653304  0.99741346  1
  Mn  Mn138  1  0.85864394  0.08345237  0.75266992  1
  Mn  Mn139  1  0.64219996  0.25034959  0.74888200  1
  Mn  Mn140  1  0.60806174  0.41607504  0.12229301  1
  Mn  Mn141  1  0.64282924  0.25006949  0.99709969  1
  Mn  Mn142  1  0.89197866  0.58317071  0.37792679  1
  Mn  Mn143  1  0.35808969  0.74934811  0.25313157  1
  Fe  Fe144  1  0.60791346  0.75067622  0.37305163  1
  Fe  Fe145  1  0.85728152  0.08246654  0.25279731  1
  Fe  Fe146  1  0.35718115  0.41707716  0.50201082  1
  Fe  Fe147  1  0.64343264  0.91672440  0.24697615  1
  Fe  Fe148  1  0.60769478  0.08340421  0.37327941  1
  Fe  Fe149  1  0.39193154  0.91662580  0.12679917  1
  Fe  Fe150  1  0.35764957  0.08338668  0.50072378  1
  Fe  Fe151  1  0.10704327  0.74892065  0.62308180  1
  Fe  Fe152  1  0.10740835  0.75053467  0.37336559  1
  Fe  Fe153  1  0.14204424  0.91635193  0.99914174  1
  Fe  Fe154  1  0.89285885  0.91610649  0.12712853  1
  Fe  Fe155  1  0.14263681  0.58397928  0.99870867  1
  Fe  Fe156  1  0.64341699  0.58368533  0.24801997  1
  Fe  Fe157  1  0.10770223  0.75068857  0.87329163  1
  Fe  Fe158  1  0.85879332  0.08333513  0.00152021  1
  Fe  Fe159  1  0.89421719  0.91730632  0.87645137  1
  Fe  Fe160  1  0.89282361  0.58316950  0.12615257  1
  Fe  Fe161  1  0.39291470  0.24979454  0.37725194  1
  Fe  Fe162  1  0.89341006  0.24923323  0.87594261  1
  Fe  Fe163  1  0.64298867  0.58322082  0.74862576  1
  Fe  Fe164  1  0.60850081  0.41619294  0.62289152  1
  Fe  Fe165  1  0.35617813  0.08331703  0.75188318  1
  Fe  Fe166  1  0.85686411  0.41649900  0.50238652  1
  Fe  Fe167  1  0.35731913  0.74969219  0.50164647  1
  Fe  Fe168  1  0.64344421  0.58331805  0.49816615  1
  Fe  Fe169  1  0.10688489  0.41666085  0.12344300  1
  Fe  Fe170  1  0.10739982  0.08323966  0.87381080  1
  Fe  Fe171  1  0.64309841  0.24987723  0.49766358  1
  Fe  Fe172  1  0.85679676  0.75031255  0.25199275  1
  Fe  Fe173  1  0.89259636  0.58349279  0.62614674  1
  Fe  Fe174  1  0.35619652  0.75037279  0.00123416  1
  Fe  Fe175  1  0.89283452  0.25070479  0.12696167  1
  Fe  Fe176  1  0.85730369  0.41709246  0.75085152  1
  Fe  Fe177  1  0.64233799  0.91724953  0.49826665  1
  Fe  Fe178  1  0.85827365  0.74931126  0.75145374  1
  Fe  Fe179  1  0.39102892  0.25075625  0.87658628  1
  Fe  Fe180  1  0.10700001  0.41763047  0.62293080  1
  Fe  Fe181  1  0.64281081  0.58331427  0.99822321  1
  Fe  Fe182  1  0.89255831  0.24972342  0.37792041  1
  Fe  Fe183  1  0.35596499  0.08241416  0.00170604  1
  Fe  Fe184  1  0.14324018  0.24992195  0.49760873  1
  Fe  Fe185  1  0.14252254  0.24951203  0.74883160  1
  Fe  Fe186  1  0.14195422  0.91744484  0.74819878  1
  Fe  Fe187  1  0.14255390  0.58300219  0.49910339  1
  Fe  Fe188  1  0.35669481  0.41722114  0.00178340  1
  Fe  Fe189  1  0.85635123  0.08339899  0.50086780  1
  Fe  Fe190  1  0.10664549  0.08318363  0.37395150  1
  Fe  Fe191  1  0.39258635  0.58305818  0.87712836  1
  P  P192  1  0.05167842  0.25098505  0.11043723  1
  P  P193  1  0.05309316  0.24887589  0.36185653  1
  P  P194  1  0.05586072  0.25098055  0.61041159  1
  P  P195  1  0.05272861  0.24855860  0.85915048  1
  P  P196  1  0.05228555  0.58246367  0.10929055  1
  P  P197  1  0.05462273  0.58377789  0.36171623  1
  P  P198  1  0.05267445  0.58309519  0.60963971  1
  P  P199  1  0.05505751  0.58394105  0.86104629  1
  P  P200  1  0.05217883  0.91657799  0.10970367  1
  P  P201  1  0.05322722  0.91714932  0.36035443  1
  P  P202  1  0.05450967  0.91569373  0.61100539  1
  P  P203  1  0.05470532  0.91724512  0.86099808  1
  P  P204  1  0.55317910  0.24965465  0.10936818  1
  P  P205  1  0.55369160  0.24912373  0.36097604  1
  P  P206  1  0.55446513  0.25091543  0.60939873  1
  P  P207  1  0.55081557  0.24980515  0.86004053  1
  P  P208  1  0.55552801  0.58354658  0.11034297  1
  P  P209  1  0.55594747  0.58417869  0.36056368  1
  P  P210  1  0.55629615  0.58242266  0.61067673  1
  P  P211  1  0.55373172  0.58331812  0.86068817  1
  P  P212  1  0.55320334  0.91703085  0.11034216  1
  P  P213  1  0.55624295  0.91706034  0.36044250  1
  P  P214  1  0.55422399  0.91691787  0.60962437  1
  P  P215  1  0.55226106  0.91689357  0.86009930  1
  P  P216  1  0.44485169  0.08198928  0.13889803  1
  P  P217  1  0.44783170  0.08396480  0.39054176  1
  P  P218  1  0.44423450  0.08347267  0.63934543  1
  P  P219  1  0.44350638  0.08418184  0.88929337  1
  P  P220  1  0.44541831  0.41712336  0.13917060  1
  P  P221  1  0.44617918  0.41625530  0.39076343  1
  P  P222  1  0.44720349  0.41693346  0.63867233  1
  P  P223  1  0.44532724  0.41704234  0.89042386  1
  P  P224  1  0.44494108  0.75097153  0.13895657  1
  P  P225  1  0.44831749  0.74987012  0.39080862  1
  P  P226  1  0.44575965  0.74969432  0.63898182  1
  P  P227  1  0.44556726  0.74892071  0.89072287  1
  P  P228  1  0.94434599  0.08304857  0.13962873  1
  P  P229  1  0.94573167  0.08376231  0.39017218  1
  P  P230  1  0.94550338  0.08318329  0.63830532  1
  P  P231  1  0.94794170  0.08345524  0.88990869  1
  P  P232  1  0.94814607  0.41740269  0.14002017  1
  P  P233  1  0.94558586  0.41582908  0.39143985  1
  P  P234  1  0.94583021  0.41777356  0.63907645  1
  P  P235  1  0.94544761  0.41571784  0.88795324  1
  P  P236  1  0.94583175  0.74951487  0.14068562  1
  P  P237  1  0.94652719  0.75035122  0.38925451  1
  P  P238  1  0.94730603  0.74865067  0.64028849  1
  P  P239  1  0.94713487  0.75064616  0.88847468  1
  P  P240  1  0.19492558  0.08382041  0.23610178  1
  P  P241  1  0.19754309  0.08407062  0.48420799  1
  P  P242  1  0.19575035  0.08363438  0.73636147  1
  P  P243  1  0.19632397  0.08236948  0.98520640  1
  P  P244  1  0.19570426  0.41626193  0.23403616  1
  P  P245  1  0.19625176  0.41691041  0.48672942  1
  P  P246  1  0.19588507  0.41547055  0.73401734  1
  P  P247  1  0.19597369  0.41741848  0.98642943  1
  P  P248  1  0.19522428  0.74992581  0.23590346  1
  P  P249  1  0.19580142  0.74884466  0.48582700  1
  P  P250  1  0.19409359  0.75094695  0.73544456  1
  P  P251  1  0.19642258  0.75023087  0.98506031  1
  P  P252  1  0.69679089  0.08281046  0.23568536  1
  P  P253  1  0.69688701  0.08378457  0.48428428  1
  P  P254  1  0.69700527  0.08358941  0.73561610  1
  P  P255  1  0.69894729  0.08330223  0.98485947  1
  P  P256  1  0.69699756  0.41683405  0.23500635  1
  P  P257  1  0.69696811  0.41639942  0.48616623  1
  P  P258  1  0.69706507  0.41699409  0.73483989  1
  P  P259  1  0.69726296  0.41755240  0.98478913  1
  P  P260  1  0.69639944  0.75056916  0.23597480  1
  P  P261  1  0.69628235  0.75008210  0.48433923  1
  P  P262  1  0.69838769  0.74940392  0.73568684  1
  P  P263  1  0.69733209  0.74913259  0.98487097  1
  P  P264  1  0.30392064  0.24985552  0.01368909  1
  P  P265  1  0.30380790  0.25028073  0.26624731  1
  P  P266  1  0.30381498  0.24990094  0.51351453  1
  P  P267  1  0.30219465  0.24962453  0.76511768  1
  P  P268  1  0.30315423  0.58393955  0.01361798  1
  P  P269  1  0.30285804  0.58315579  0.26568692  1
  P  P270  1  0.30236577  0.58350294  0.51497635  1
  P  P271  1  0.30394540  0.58312029  0.76540899  1
  P  P272  1  0.30165756  0.91635134  0.01610145  1
  P  P273  1  0.30446221  0.91639521  0.26465162  1
  P  P274  1  0.30353155  0.91644700  0.51441048  1
  P  P275  1  0.30129594  0.91717479  0.76444722  1
  P  P276  1  0.80610646  0.24914547  0.01429665  1
  P  P277  1  0.80605681  0.24934713  0.26463470  1
  P  P278  1  0.80351324  0.24952271  0.51353129  1
  P  P279  1  0.80434760  0.25127413  0.76546135  1
  P  P280  1  0.80300054  0.58329762  0.01566034  1
  P  P281  1  0.80393296  0.58416165  0.26384005  1
  P  P282  1  0.80288146  0.58281920  0.51538075  1
  P  P283  1  0.80417608  0.58321298  0.76330102  1
  P  P284  1  0.80634882  0.91740497  0.01426503  1
  P  P285  1  0.80389573  0.91640218  0.26364201  1
  P  P286  1  0.80161696  0.91776750  0.51458025  1
  P  P287  1  0.80492206  0.91551845  0.76586135  1
  O  O288  1  0.05515946  0.25031269  0.18711893  1
  O  O289  1  0.05851100  0.24955713  0.43850828  1
  O  O290  1  0.05966370  0.24983563  0.68714899  1
  O  O291  1  0.05600910  0.24938239  0.93592710  1
  O  O292  1  0.05538624  0.58324815  0.18607363  1
  O  O293  1  0.05897028  0.58320497  0.43841847  1
  O  O294  1  0.05613115  0.58273150  0.68636140  1
  O  O295  1  0.05947491  0.58354176  0.93780525  1
  O  O296  1  0.05608275  0.91675975  0.18638806  1
  O  O297  1  0.05629365  0.91681615  0.43715857  1
  O  O298  1  0.05821663  0.91707125  0.68776772  1
  O  O299  1  0.05889685  0.91692772  0.93773518  1
  O  O300  1  0.55701520  0.24972876  0.18617190  1
  O  O301  1  0.55900254  0.24971691  0.43762865  1
  O  O302  1  0.55726593  0.25042241  0.68617514  1
  O  O303  1  0.55534950  0.24954291  0.93667518  1
  O  O304  1  0.56033735  0.58361481  0.18714003  1
  O  O305  1  0.56002779  0.58328469  0.43739064  1
  O  O306  1  0.56015398  0.58322457  0.68749788  1
  O  O307  1  0.55860098  0.58347164  0.93737287  1
  O  O308  1  0.55882191  0.91697227  0.18704473  1
  O  O309  1  0.55990098  0.91715737  0.43729331  1
  O  O310  1  0.55730349  0.91695783  0.68639621  1
  O  O311  1  0.55593544  0.91681100  0.93665888  1
  O  O312  1  0.43987826  0.08221331  0.06217031  1
  O  O313  1  0.44411263  0.08349982  0.31380560  1
  O  O314  1  0.44007478  0.08338573  0.56258796  1
  O  O315  1  0.43937329  0.08321217  0.81248660  1
  O  O316  1  0.44042478  0.41750282  0.06243770  1
  O  O317  1  0.44329948  0.41712394  0.31395821  1
  O  O318  1  0.44144127  0.41699954  0.56207008  1
  O  O319  1  0.44318618  0.41705794  0.81357575  1
  O  O320  1  0.43996444  0.75017469  0.06225695  1
  O  O321  1  0.44437445  0.74967104  0.31404323  1
  O  O322  1  0.44119774  0.74965162  0.56229828  1
  O  O323  1  0.44270598  0.74993702  0.81396894  1
  O  O324  1  0.94154714  0.08287538  0.06278268  1
  O  O325  1  0.94122721  0.08291212  0.31339486  1
  O  O326  1  0.94040374  0.08317774  0.56167217  1
  O  O327  1  0.94490520  0.08341884  0.81310659  1
  O  O328  1  0.94506271  0.41728039  0.06325207  1
  O  O329  1  0.94288585  0.41697998  0.31460112  1
  O  O330  1  0.94065675  0.41685695  0.56240519  1
  O  O331  1  0.94152087  0.41684746  0.81128900  1
  O  O332  1  0.94389377  0.74958676  0.06379735  1
  O  O333  1  0.94102236  0.75030477  0.31265644  1
  O  O334  1  0.94332697  0.74956585  0.56355560  1
  O  O335  1  0.94246837  0.74949939  0.81183285  1
  O  O336  1  0.19257141  0.08332572  0.06190504  1
  O  O337  1  0.19022406  0.08379398  0.31277593  1
  O  O338  1  0.19413064  0.08356073  0.56088934  1
  O  O339  1  0.19127608  0.08351829  0.81298312  1
  O  O340  1  0.19091078  0.41659921  0.06293259  1
  O  O341  1  0.19248339  0.41614196  0.31089880  1
  O  O342  1  0.19147336  0.41713298  0.56326350  1
  O  O343  1  0.19325194  0.41652075  0.81109520  1
  O  O344  1  0.19309477  0.74991952  0.06171041  1
  O  O345  1  0.19058539  0.75019096  0.31268751  1
  O  O346  1  0.19100676  0.74935288  0.56254557  1
  O  O347  1  0.19024514  0.75019869  0.81231534  1
  O  O348  1  0.69500459  0.08338543  0.06162103  1
  O  O349  1  0.69161960  0.08371363  0.31226193  1
  O  O350  1  0.69369979  0.08391474  0.56115861  1
  O  O351  1  0.69363530  0.08368988  0.81228388  1
  O  O352  1  0.69415772  0.41645464  0.06155621  1
  O  O353  1  0.69391748  0.41598292  0.31176635  1
  O  O354  1  0.69277575  0.41600139  0.56287844  1
  O  O355  1  0.69331752  0.41632277  0.81150458  1
  O  O356  1  0.69418489  0.75021046  0.06167970  1
  O  O357  1  0.69199852  0.75062183  0.31259257  1
  O  O358  1  0.69417359  0.75026773  0.56133019  1
  O  O359  1  0.69457331  0.74982625  0.81225179  1
  O  O360  1  0.30674257  0.24986827  0.18942553  1
  O  O361  1  0.30861781  0.25001114  0.43688192  1
  O  O362  1  0.30569888  0.25040991  0.68840138  1
  O  O363  1  0.30728543  0.25029259  0.93690253  1
  O  O364  1  0.30635978  0.58357139  0.18893852  1
  O  O365  1  0.30606928  0.58334893  0.43829610  1
  O  O366  1  0.30735229  0.58317268  0.68868792  1
  O  O367  1  0.30760233  0.58359723  0.93694763  1
  O  O368  1  0.30845902  0.91648233  0.18798218  1
  O  O369  1  0.30653595  0.91625711  0.43764842  1
  O  O370  1  0.30543755  0.91640014  0.68806561  1
  O  O371  1  0.30469431  0.91641837  0.93859592  1
  O  O372  1  0.81023410  0.25054579  0.18777866  1
  O  O373  1  0.80799842  0.24963833  0.43693021  1
  O  O374  1  0.80700886  0.25026422  0.68854096  1
  O  O375  1  0.81032157  0.24977470  0.93756675  1
  O  O376  1  0.80887365  0.58332166  0.18721508  1
  O  O377  1  0.80626611  0.58334026  0.43866478  1
  O  O378  1  0.80871281  0.58353847  0.68658381  1
  O  O379  1  0.80703412  0.58309371  0.93909672  1
  O  O380  1  0.80862785  0.91623897  0.18697448  1
  O  O381  1  0.80523691  0.91711732  0.43792113  1
  O  O382  1  0.80718563  0.91641027  0.68888257  1
  O  O383  1  0.81099479  0.91672770  0.93754847  1
  O  O384  1  0.23403244  0.24948328  0.03864902  1
  O  O385  1  0.23406936  0.25052178  0.29113651  1
  O  O386  1  0.23343889  0.24974624  0.53729984  1
  O  O387  1  0.23219837  0.24999604  0.78998612  1
  O  O388  1  0.23284685  0.58408311  0.03784506  1
  O  O389  1  0.23309259  0.58283413  0.29036917  1
  O  O390  1  0.23236093  0.58346333  0.53986739  1
  O  O391  1  0.23396429  0.58312462  0.78975290  1
  O  O392  1  0.23168712  0.91632501  0.04061425  1
  O  O393  1  0.23445527  0.91637441  0.28886217  1
  O  O394  1  0.23388345  0.91690461  0.53979620  1
  O  O395  1  0.23129677  0.91709876  0.78906276  1
  O  O396  1  0.73607933  0.24974723  0.03859168  1
  O  O397  1  0.73592588  0.25001736  0.28844913  1
  O  O398  1  0.73325305  0.24976883  0.53761773  1
  O  O399  1  0.73477798  0.25043494  0.79092101  1
  O  O400  1  0.73293595  0.58365734  0.04001104  1
  O  O401  1  0.73356232  0.58369501  0.28752171  1
  O  O402  1  0.73277045  0.58350734  0.53971956  1
  O  O403  1  0.73386193  0.58288350  0.78733766  1
  O  O404  1  0.73622717  0.91672612  0.03822786  1
  O  O405  1  0.73359179  0.91678596  0.28733667  1
  O  O406  1  0.73163917  0.91720224  0.53933476  1
  O  O407  1  0.73542120  0.91627897  0.79149551  1
  O  O408  1  0.26504457  0.08358391  0.21241043  1
  O  O409  1  0.26767037  0.08350150  0.45967002  1
  O  O410  1  0.26603392  0.08360801  0.71216212  1
  O  O411  1  0.26648513  0.08273962  0.96087873  1
  O  O412  1  0.26539502  0.41663861  0.20919846  1
  O  O413  1  0.26659874  0.41674296  0.46277692  1
  O  O414  1  0.26552013  0.41599903  0.70893555  1
  O  O415  1  0.26630262  0.41711000  0.96263412  1
  O  O416  1  0.26527587  0.74977735  0.21215688  1
  O  O417  1  0.26622044  0.74947481  0.46213318  1
  O  O418  1  0.26416438  0.75006207  0.71142166  1
  O  O419  1  0.26646081  0.75045490  0.96010636  1
  O  O420  1  0.76728996  0.08292118  0.21248363  1
  O  O421  1  0.76686968  0.08364707  0.45933838  1
  O  O422  1  0.76677437  0.08356707  0.71061052  1
  O  O423  1  0.76911116  0.08325443  0.96069187  1
  O  O424  1  0.76672992  0.41679125  0.20989664  1
  O  O425  1  0.76720186  0.41667931  0.46188227  1
  O  O426  1  0.76716966  0.41687095  0.71026941  1
  O  O427  1  0.76695697  0.41748741  0.95979356  1
  O  O428  1  0.76663664  0.75048425  0.21182197  1
  O  O429  1  0.76586076  0.75005056  0.45866506  1
  O  O430  1  0.76833045  0.74979937  0.71067782  1
  O  O431  1  0.76709582  0.74891560  0.95999388  1
  O  O432  1  0.01422254  0.08390859  0.16457275  1
  O  O433  1  0.01599276  0.08308431  0.41417048  1
  O  O434  1  0.01568977  0.08350702  0.66174255  1
  O  O435  1  0.01780639  0.08308068  0.91515905  1
  O  O436  1  0.01777939  0.41694275  0.16582143  1
  O  O437  1  0.01536583  0.41617151  0.41630422  1
  O  O438  1  0.01629988  0.41715866  0.66232984  1
  O  O439  1  0.01557711  0.41573932  0.91235237  1
  O  O440  1  0.01535622  0.74964981  0.16641538  1
  O  O441  1  0.01696632  0.75015849  0.41254651  1
  O  O442  1  0.01743323  0.74910730  0.66450702  1
  O  O443  1  0.01745787  0.75097473  0.91243639  1
  O  O444  1  0.51496747  0.08326561  0.16276114  1
  O  O445  1  0.51795603  0.08325885  0.41487085  1
  O  O446  1  0.51440742  0.08403363  0.66319497  1
  O  O447  1  0.51342680  0.08306504  0.91374606  1
  O  O448  1  0.51549126  0.41683066  0.16305519  1
  O  O449  1  0.51605012  0.41655554  0.41549727  1
  O  O450  1  0.51757913  0.41675042  0.66201223  1
  O  O451  1  0.51486554  0.41685587  0.91622204  1
  O  O452  1  0.51513326  0.75044503  0.16263977  1
  O  O453  1  0.51856915  0.75024001  0.41468857  1
  O  O454  1  0.51587698  0.74964805  0.66304248  1
  O  O455  1  0.51509510  0.74997539  0.91615844  1
  O  O456  1  0.48325554  0.24948539  0.08517948  1
  O  O457  1  0.48327224  0.24975431  0.33748181  1
  O  O458  1  0.48466321  0.24995400  0.58454028  1
  O  O459  1  0.48073667  0.25067774  0.83566671  1
  O  O460  1  0.48524333  0.58367909  0.08711744  1
  O  O461  1  0.48588863  0.58331174  0.33631159  1
  O  O462  1  0.48628859  0.58319715  0.58636270  1
  O  O463  1  0.48331385  0.58288679  0.83714630  1
  O  O464  1  0.48279898  0.91675180  0.08711192  1
  O  O465  1  0.48617587  0.91705286  0.33614521  1
  O  O466  1  0.48452663  0.91664533  0.58457559  1
  O  O467  1  0.48217941  0.91674937  0.83523475  1
  O  O468  1  0.98162827  0.25013096  0.08578809  1
  O  O469  1  0.98269638  0.24983865  0.33849226  1
  O  O470  1  0.98558526  0.25038418  0.58656527  1
  O  O471  1  0.98287194  0.24941936  0.83407692  1
  O  O472  1  0.98241583  0.58358024  0.08407658  1
  O  O473  1  0.98450773  0.58314737  0.33776705  1
  O  O474  1  0.98261431  0.58336175  0.58492236  1
  O  O475  1  0.98510350  0.58324381  0.83699265  1
  O  O476  1  0.98199803  0.91617983  0.08567064  1
  O  O477  1  0.98359032  0.91732529  0.33511794  1
  O  O478  1  0.98457731  0.91547266  0.58626392  1
  O  O479  1  0.98437023  0.91714396  0.83688918  1
  O  O480  1  0.08508974  0.31611415  0.07759218  1
  O  O481  1  0.08655770  0.31381306  0.32836962  1
  O  O482  1  0.08899862  0.31639727  0.57776719  1
  O  O483  1  0.08737798  0.31327827  0.82638292  1
  O  O484  1  0.08713141  0.64716276  0.07669242  1
  O  O485  1  0.08767612  0.64896443  0.32856967  1
  O  O486  1  0.08685569  0.64813861  0.57722371  1
  O  O487  1  0.08819748  0.64919155  0.82817558  1
  O  O488  1  0.08581489  0.98158997  0.07672503  1
  O  O489  1  0.08725409  0.98245781  0.32831110  1
  O  O490  1  0.08804551  0.98058697  0.57757995  1
  O  O491  1  0.08789889  0.98247879  0.82777598  1
  O  O492  1  0.58687738  0.31477917  0.07667135  1
  O  O493  1  0.58710192  0.31408354  0.32745513  1
  O  O494  1  0.58830817  0.31608813  0.57687217  1
  O  O495  1  0.58501992  0.31478366  0.82746541  1
  O  O496  1  0.58893530  0.64848906  0.07690818  1
  O  O497  1  0.58914025  0.64964989  0.32783502  1
  O  O498  1  0.59043046  0.64723215  0.57755227  1
  O  O499  1  0.58696643  0.64838965  0.82715999  1
  O  O500  1  0.58631190  0.98202059  0.07675640  1
  O  O501  1  0.58989853  0.98215642  0.32745064  1
  O  O502  1  0.58823844  0.98200662  0.57703038  1
  O  O503  1  0.58607627  0.98195416  0.82754953  1
  O  O504  1  0.41209910  0.01667394  0.17226331  1
  O  O505  1  0.41365329  0.01908242  0.42336766  1
  O  O506  1  0.41084641  0.01839193  0.67260001  1
  O  O507  1  0.40907132  0.01937188  0.92264961  1
  O  O508  1  0.41196700  0.35193363  0.17206329  1
  O  O509  1  0.41214734  0.35103929  0.42295783  1
  O  O510  1  0.41389374  0.35186666  0.67206370  1
  O  O511  1  0.41056849  0.35208570  0.92240800  1
  O  O512  1  0.41166094  0.68592793  0.17255848  1
  O  O513  1  0.41468151  0.68484828  0.42384449  1
  O  O514  1  0.41230000  0.68473756  0.67215734  1
  O  O515  1  0.41173517  0.68355628  0.92278770  1
  O  O516  1  0.91111627  0.01757153  0.17250108  1
  O  O517  1  0.91172323  0.01906741  0.42352536  1
  O  O518  1  0.91252797  0.01802512  0.67174283  1
  O  O519  1  0.91357082  0.01858853  0.92238980  1
  O  O520  1  0.91367484  0.35253284  0.17238886  1
  O  O521  1  0.91153866  0.35064045  0.42350174  1
  O  O522  1  0.91225263  0.35290126  0.67265251  1
  O  O523  1  0.91214650  0.35037358  0.92049827  1
  O  O524  1  0.91146510  0.68438074  0.17267899  1
  O  O525  1  0.91330038  0.68543007  0.42281139  1
  O  O526  1  0.91363615  0.68341638  0.67282013  1
  O  O527  1  0.91410062  0.68568663  0.92226106  1
  O  O528  1  0.16136204  0.01887231  0.20282664  1
  O  O529  1  0.16320951  0.01922975  0.45147133  1
  O  O530  1  0.16234829  0.01866001  0.70288397  1
  O  O531  1  0.16273238  0.01712597  0.95276557  1
  O  O532  1  0.16167216  0.35117447  0.20151486  1
  O  O533  1  0.16295473  0.35176278  0.45328651  1
  O  O534  1  0.16167509  0.35030981  0.70247684  1
  O  O535  1  0.16266842  0.35233999  0.95271586  1
  O  O536  1  0.16174548  0.68485771  0.20280715  1
  O  O537  1  0.16246806  0.68369071  0.45285863  1
  O  O538  1  0.16015083  0.68609598  0.70214748  1
  O  O539  1  0.16240990  0.68533491  0.95210706  1
  O  O540  1  0.66372044  0.01760197  0.20234966  1
  O  O541  1  0.66282938  0.01876491  0.45186136  1
  O  O542  1  0.66296993  0.01852613  0.70311977  1
  O  O543  1  0.66511026  0.01829271  0.95223952  1
  O  O544  1  0.66310473  0.35178480  0.20224678  1
  O  O545  1  0.66366798  0.35142881  0.45262007  1
  O  O546  1  0.66310175  0.35203869  0.70181060  1
  O  O547  1  0.66322884  0.35257733  0.95191825  1
  O  O548  1  0.66296600  0.68545473  0.20295906  1
  O  O549  1  0.66199227  0.68485175  0.45252108  1
  O  O550  1  0.66451298  0.68433764  0.70302567  1
  O  O551  1  0.66316797  0.68394643  0.95294537  1
  O  O552  1  0.33748331  0.31499856  0.04656398  1
  O  O553  1  0.33825525  0.31520142  0.29846060  1
  O  O554  1  0.33689639  0.31502373  0.54714440  1
  O  O555  1  0.33640110  0.31451582  0.79793861  1
  O  O556  1  0.33637446  0.64921521  0.04668748  1
  O  O557  1  0.33678389  0.64808551  0.29860414  1
  O  O558  1  0.33622415  0.64865671  0.54750606  1
  O  O559  1  0.33793202  0.64806621  0.79816573  1
  O  O560  1  0.33573568  0.98139543  0.04810844  1
  O  O561  1  0.33804727  0.98146102  0.29771666  1
  O  O562  1  0.33770086  0.98168073  0.54640180  1
  O  O563  1  0.33503784  0.98220641  0.79734937  1
  O  O564  1  0.84006202  0.31404116  0.04771320  1
  O  O565  1  0.84004513  0.31398667  0.29808181  1
  O  O566  1  0.83708325  0.31448755  0.54693248  1
  O  O567  1  0.83825582  0.31670739  0.79705721  1
  O  O568  1  0.83726924  0.64813812  0.04845080  1
  O  O569  1  0.83679888  0.64944391  0.29715106  1
  O  O570  1  0.83717489  0.64766594  0.54817192  1
  O  O571  1  0.83739299  0.64825793  0.79681669  1
  O  O572  1  0.83964550  0.98263373  0.04718229  1
  O  O573  1  0.83721759  0.98153857  0.29695994  1
  O  O574  1  0.83537696  0.98285281  0.54704347  1
  O  O575  1  0.83989677  0.98027832  0.79812502  1
  O  O576  1  0.41091438  0.14689115  0.17204257  1
  O  O577  1  0.41401182  0.14899760  0.42331736  1
  O  O578  1  0.41028462  0.14835280  0.67233490  1
  O  O579  1  0.41024551  0.14956157  0.92180918  1
  O  O580  1  0.41226346  0.48221139  0.17257994  1
  O  O581  1  0.41197187  0.48111118  0.42374287  1
  O  O582  1  0.41408658  0.48185172  0.67230577  1
  O  O583  1  0.41103077  0.48220478  0.92272645  1
  O  O584  1  0.41193749  0.81627495  0.17197876  1
  O  O585  1  0.41429945  0.81481521  0.42346874  1
  O  O586  1  0.41229086  0.81476936  0.67219438  1
  O  O587  1  0.41040270  0.81368733  0.92331508  1
  O  O588  1  0.90996646  0.14783133  0.17219740  1
  O  O589  1  0.91242891  0.14896182  0.42314739  1
  O  O590  1  0.91224756  0.14830255  0.67162015  1
  O  O591  1  0.91396224  0.14861668  0.92227144  1
  O  O592  1  0.91431955  0.48277389  0.17231966  1
  O  O593  1  0.91111741  0.48064931  0.42403145  1
  O  O594  1  0.91280065  0.48299590  0.67224565  1
  O  O595  1  0.91209388  0.48052339  0.92167568  1
  O  O596  1  0.91129629  0.81459414  0.17277441  1
  O  O597  1  0.91361886  0.81545455  0.42291405  1
  O  O598  1  0.91322748  0.81345334  0.67340398  1
  O  O599  1  0.91370189  0.81572714  0.92131438  1
  O  O600  1  0.08571872  0.18611702  0.07747271  1
  O  O601  1  0.08561483  0.18355535  0.32837773  1
  O  O602  1  0.08970884  0.18632726  0.57677204  1
  O  O603  1  0.08651287  0.18326191  0.82699981  1
  O  O604  1  0.08611072  0.51720311  0.07705205  1
  O  O605  1  0.08802851  0.51863695  0.32855009  1
  O  O606  1  0.08669545  0.51816411  0.57675039  1
  O  O607  1  0.08870152  0.51889040  0.82782977  1
  O  O608  1  0.08614273  0.85167937  0.07682623  1
  O  O609  1  0.08726946  0.85204115  0.32793299  1
  O  O610  1  0.08824603  0.85036488  0.57888105  1
  O  O611  1  0.08828567  0.85237685  0.82762761  1
  O  O612  1  0.58703974  0.18469710  0.07656966  1
  O  O613  1  0.58663181  0.18385632  0.32765378  1
  O  O614  1  0.58909530  0.18610967  0.57682509  1
  O  O615  1  0.58416895  0.18466653  0.82699684  1
  O  O616  1  0.58889066  0.51859871  0.07689673  1
  O  O617  1  0.59014347  0.51944617  0.32738359  1
  O  O618  1  0.58967968  0.51720289  0.57779666  1
  O  O619  1  0.58748083  0.51841065  0.82743022  1
  O  O620  1  0.58655627  0.85203235  0.07694595  1
  O  O621  1  0.58981785  0.85186060  0.32749121  1
  O  O622  1  0.58871534  0.85202677  0.57721736  1
  O  O623  1  0.58610558  0.85174538  0.82750115  1
  O  O624  1  0.33759159  0.18450027  0.04610907  1
  O  O625  1  0.33810255  0.18534846  0.29888450  1
  O  O626  1  0.33698868  0.18472026  0.54664227  1
  O  O627  1  0.33611801  0.18455621  0.79752174  1
  O  O628  1  0.33647452  0.51896681  0.04709323  1
  O  O629  1  0.33698601  0.51811913  0.29803763  1
  O  O630  1  0.33629245  0.51842026  0.54770813  1
  O  O631  1  0.33785247  0.51802382  0.79794309  1
  O  O632  1  0.33587786  0.85134263  0.04793277  1
  O  O633  1  0.33818280  0.85150412  0.29780335  1
  O  O634  1  0.33722896  0.85112298  0.54691743  1
  O  O635  1  0.33494588  0.85214472  0.79784371  1
  O  O636  1  0.83960938  0.18392144  0.04699382  1
  O  O637  1  0.83920082  0.18385837  0.29729598  1
  O  O638  1  0.83679497  0.18438174  0.54673115  1
  O  O639  1  0.83935147  0.18664921  0.79798364  1
  O  O640  1  0.83689719  0.51835701  0.04880726  1
  O  O641  1  0.83726781  0.51923568  0.29748121  1
  O  O642  1  0.83657038  0.51775728  0.54813949  1
  O  O643  1  0.83750528  0.51806466  0.79634579  1
  O  O644  1  0.84015435  0.85250978  0.04768853  1
  O  O645  1  0.83692019  0.85135689  0.29725895  1
  O  O646  1  0.83574488  0.85272703  0.54730117  1
  O  O647  1  0.83913938  0.85020065  0.79742353  1
  O  O648  1  0.16175802  0.14899365  0.20277432  1
  O  O649  1  0.16354694  0.14912979  0.45167844  1
  O  O650  1  0.16266736  0.14884457  0.70308647  1
  O  O651  1  0.16229017  0.14711545  0.95187358  1
  O  O652  1  0.16118018  0.48108495  0.20158820  1
  O  O653  1  0.16304094  0.48197999  0.45335166  1
  O  O654  1  0.16124694  0.48028303  0.70151346  1
  O  O655  1  0.16281383  0.48252079  0.95314009  1
  O  O656  1  0.16179875  0.81488168  0.20258775  1
  O  O657  1  0.16214950  0.81375452  0.45225593  1
  O  O658  1  0.16078109  0.81617295  0.70279329  1
  O  O659  1  0.16234074  0.81541331  0.95266203  1
  O  O660  1  0.66384084  0.14785781  0.20190243  1
  O  O661  1  0.66298627  0.14881386  0.45147953  1
  O  O662  1  0.66303990  0.14868787  0.70303414  1
  O  O663  1  0.66513249  0.14830545  0.95203469  1
  O  O664  1  0.66290015  0.48204958  0.20313517  1
  O  O665  1  0.66351598  0.48164714  0.45342942  1
  O  O666  1  0.66310895  0.48204401  0.70229078  1
  O  O667  1  0.66323433  0.48287504  0.95289706  1
  O  O668  1  0.66312487  0.81568194  0.20249505  1
  O  O669  1  0.66187252  0.81508822  0.45227652  1
  O  O670  1  0.66425485  0.81438212  0.70293060  1
  O  O671  1  0.66352156  0.81420571  0.95213116  1
