# generated using pymatgen
data_Na2MnFe(PO4)2
_symmetry_space_group_name_H-M   'P 1'
_cell_length_a   21.07957422
_cell_length_b   18.93136371
_cell_length_c   20.03916472
_cell_angle_alpha   89.99905577
_cell_angle_beta   90.00136243
_cell_angle_gamma   89.99975880
_symmetry_Int_Tables_number   1
_chemical_formula_structural   Na2MnFe(PO4)2
_chemical_formula_sum   'Na96 Mn48 Fe48 P96 O384'
_cell_volume   7996.93099597
_cell_formula_units_Z   48
loop_
 _symmetry_equiv_pos_site_id
 _symmetry_equiv_pos_as_xyz
  1  'x, y, z'
loop_
 _atom_site_type_symbol
 _atom_site_label
 _atom_site_symmetry_multiplicity
 _atom_site_fract_x
 _atom_site_fract_y
 _atom_site_fract_z
 _atom_site_occupancy
  Na  Na0  1  0.00265007  0.00024113  0.00034606  1
  Na  Na1  1  0.00025289  -0.00061965  0.25009213  1
  Na  Na2  1  0.00378729  0.00095005  0.49979640  1
  Na  Na3  1  0.00441456  0.00097016  0.75002815  1
  Na  Na4  1  -0.00137131  0.33408006  -0.00054513  1
  Na  Na5  1  -0.00039604  0.33412480  0.25025154  1
  Na  Na6  1  0.00091822  0.33397990  0.49922453  1
  Na  Na7  1  -0.00132822  0.33309673  0.75010337  1
  Na  Na8  1  0.00127086  0.66735576  -0.00027113  1
  Na  Na9  1  -0.00179288  0.66625125  0.25037790  1
  Na  Na10  1  -0.00110855  0.66571447  0.50052434  1
  Na  Na11  1  0.00244109  0.66719509  0.75030426  1
  Na  Na12  1  0.49911013  0.00002397  -0.00013791  1
  Na  Na13  1  0.50058804  -0.00023266  0.25023761  1
  Na  Na14  1  0.50254763  0.00098356  0.49897466  1
  Na  Na15  1  0.49847047  -0.00069857  0.75084032  1
  Na  Na16  1  0.50111208  0.33339525  -0.00101129  1
  Na  Na17  1  0.50098296  0.33377711  0.24977176  1
  Na  Na18  1  0.49957559  0.33335928  0.50134700  1
  Na  Na19  1  0.49898140  0.33314312  0.75005805  1
  Na  Na20  1  0.49896957  0.66610754  0.00002284  1
  Na  Na21  1  0.49979453  0.66629693  0.24834957  1
  Na  Na22  1  0.49939879  0.66559168  0.50033059  1
  Na  Na23  1  0.50101843  0.66730546  0.75087781  1
  Na  Na24  1  0.24926796  -0.00046409  0.12450912  1
  Na  Na25  1  0.24786180  -0.00007669  0.37492334  1
  Na  Na26  1  0.24846349  0.00034455  0.62525788  1
  Na  Na27  1  0.24827536  -0.00070953  0.87494431  1
  Na  Na28  1  0.24834116  0.33328290  0.12441917  1
  Na  Na29  1  0.24862160  0.33376082  0.37432928  1
  Na  Na30  1  0.24950391  0.33386671  0.62572899  1
  Na  Na31  1  0.24993934  0.33432101  0.87580579  1
  Na  Na32  1  0.24856777  0.66624291  0.12523945  1
  Na  Na33  1  0.25150450  0.66685400  0.37507214  1
  Na  Na34  1  0.25073564  0.66634151  0.62455000  1
  Na  Na35  1  0.24972705  0.66686629  0.87582984  1
  Na  Na36  1  0.75028255  0.00023770  0.12545433  1
  Na  Na37  1  0.74752782  -0.00075720  0.37565237  1
  Na  Na38  1  0.74731077  -0.00018458  0.62494319  1
  Na  Na39  1  0.74900906  -0.00028601  0.87472911  1
  Na  Na40  1  0.75186889  0.33406240  0.12521412  1
  Na  Na41  1  0.75012796  0.33300023  0.37419879  1
  Na  Na42  1  0.75112951  0.33350916  0.62560757  1
  Na  Na43  1  0.75127185  0.33305506  0.87405160  1
  Na  Na44  1  0.75206254  0.66703281  0.12481314  1
  Na  Na45  1  0.75177406  0.66704099  0.37573668  1
  Na  Na46  1  0.74824347  0.66603066  0.62416324  1
  Na  Na47  1  0.74855952  0.66603635  0.87487042  1
  Na  Na48  1  -0.00180933  0.16713201  0.00037130  1
  Na  Na49  1  -0.00222177  0.16724305  0.25106162  1
  Na  Na50  1  0.00196894  0.16591288  0.49922799  1
  Na  Na51  1  0.00011237  0.16710472  0.74956814  1
  Na  Na52  1  -0.00010897  0.49974990  -0.00108180  1
  Na  Na53  1  -0.00142201  0.50032936  0.24888729  1
  Na  Na54  1  0.00135329  0.49902469  0.50071229  1
  Na  Na55  1  0.00198515  0.49920039  0.75059536  1
  Na  Na56  1  0.00337497  0.83273119  0.00023677  1
  Na  Na57  1  0.00193035  0.83277767  0.25063110  1
  Na  Na58  1  0.00162108  0.83346852  0.49971434  1
  Na  Na59  1  0.00205993  0.83414705  0.75007409  1
  Na  Na60  1  0.50046321  0.16669921  -0.00111794  1
  Na  Na61  1  0.49940305  0.16695979  0.24974244  1
  Na  Na62  1  0.50150260  0.16576963  0.50018894  1
  Na  Na63  1  0.50046574  0.16667936  0.75074980  1
  Na  Na64  1  0.50165208  0.49886035  -0.00007433  1
  Na  Na65  1  0.50076225  0.49953732  0.24920731  1
  Na  Na66  1  0.49901643  0.50009291  0.50142897  1
  Na  Na67  1  0.50012480  0.49924642  0.74951451  1
  Na  Na68  1  0.49780890  0.83393170  0.00015930  1
  Na  Na69  1  0.50066640  0.83364119  0.24925944  1
  Na  Na70  1  0.50246225  0.83212866  0.49926437  1
  Na  Na71  1  0.49797876  0.83377471  0.75145418  1
  Na  Na72  1  0.25104540  0.16604201  0.12453447  1
  Na  Na73  1  0.24805265  0.16723576  0.37550793  1
  Na  Na74  1  0.24933226  0.16669678  0.62550735  1
  Na  Na75  1  0.25169028  0.16616993  0.87533874  1
  Na  Na76  1  0.24730791  0.49981241  0.12492848  1
  Na  Na77  1  0.25007548  0.49922695  0.37543619  1
  Na  Na78  1  0.24979180  0.49904714  0.62434673  1
  Na  Na79  1  0.24587001  0.50063547  0.87561510  1
  Na  Na80  1  0.24892005  0.83381665  0.12439662  1
  Na  Na81  1  0.24833414  0.83447896  0.37368250  1
  Na  Na82  1  0.24927211  0.83414419  0.62562641  1
  Na  Na83  1  0.25057333  0.83301443  0.87595740  1
  Na  Na84  1  0.75130390  0.16648616  0.12498998  1
  Na  Na85  1  0.75022217  0.16645248  0.37514228  1
  Na  Na86  1  0.74920714  0.16696815  0.62486775  1
  Na  Na87  1  0.74952048  0.16768361  0.87421457  1
  Na  Na88  1  0.75242295  0.49947886  0.12557596  1
  Na  Na89  1  0.75001806  0.50055555  0.37444091  1
  Na  Na90  1  0.74947377  0.49981710  0.62462923  1
  Na  Na91  1  0.75062729  0.49958009  0.87500166  1
  Na  Na92  1  0.74952112  0.83406711  0.12511390  1
  Na  Na93  1  0.74939487  0.83346821  0.37593415  1
  Na  Na94  1  0.74769097  0.83405219  0.62532067  1
  Na  Na95  1  0.74927292  0.83344731  0.87432188  1
  Mn  Mn96  1  0.10765190  0.74925347  0.37264503  1
  Mn  Mn97  1  0.35727262  0.75012074  0.25209802  1
  Mn  Mn98  1  0.35828701  0.75046174  0.50213723  1
  Mn  Mn99  1  0.85809979  0.08298547  0.00158258  1
  Mn  Mn100  1  0.35729332  0.08386129  0.50192326  1
  Mn  Mn101  1  0.10719906  0.08390746  0.12297667  1
  Mn  Mn102  1  0.89270901  0.58293494  0.62815570  1
  Mn  Mn103  1  0.64080990  0.91656404  0.74763043  1
  Mn  Mn104  1  0.39211318  0.91673165  0.62636221  1
  Mn  Mn105  1  0.39238166  0.24967098  0.12686104  1
  Mn  Mn106  1  0.35744738  0.41604825  0.25212900  1
  Mn  Mn107  1  0.14254494  0.58339279  0.49710094  1
  Mn  Mn108  1  0.39147903  0.58297215  0.12716890  1
  Mn  Mn109  1  0.85756886  0.75083526  0.50310668  1
  Mn  Mn110  1  0.85831539  0.08299514  0.75160504  1
  Mn  Mn111  1  0.60757572  0.41646646  0.62295119  1
  Mn  Mn112  1  0.39151233  0.24921546  0.62745020  1
  Mn  Mn113  1  0.89353003  0.91697032  0.87688772  1
  Mn  Mn114  1  0.14096870  0.24972561  0.99731136  1
  Mn  Mn115  1  0.64177266  0.58321152  0.49700886  1
  Mn  Mn116  1  0.14129434  0.58393946  0.24788262  1
  Mn  Mn117  1  0.85873277  0.75031663  0.00166843  1
  Mn  Mn118  1  0.89287657  0.25012411  0.37776360  1
  Mn  Mn119  1  0.85822854  0.41636472  0.50215910  1
  Mn  Mn120  1  0.64301791  0.25014456  0.24752391  1
  Mn  Mn121  1  0.60918934  0.41629884  0.12249605  1
  Mn  Mn122  1  0.39267916  0.91633952  0.37714254  1
  Mn  Mn123  1  0.39209561  0.25081227  0.37758130  1
  Mn  Mn124  1  0.39165711  0.58255165  0.87736292  1
  Mn  Mn125  1  0.14216294  0.25015413  0.74807003  1
  Mn  Mn126  1  0.60821055  0.74895743  0.37154754  1
  Mn  Mn127  1  0.60736330  0.08364542  0.87264862  1
  Mn  Mn128  1  0.85762210  0.74991247  0.75194203  1
  Mn  Mn129  1  0.35733186  0.08302979  0.00242622  1
  Mn  Mn130  1  0.89306508  0.91735923  0.62720359  1
  Mn  Mn131  1  0.89265710  0.91634112  0.12715691  1
  Mn  Mn132  1  0.89301856  0.58404927  0.87652079  1
  Mn  Mn133  1  0.60675699  0.74943883  0.87322465  1
  Mn  Mn134  1  0.35682595  0.41752920  0.00183839  1
  Mn  Mn135  1  0.89253236  0.91649390  0.37743708  1
  Mn  Mn136  1  0.60801136  0.08342286  0.12292644  1
  Mn  Mn137  1  0.10913024  0.74997905  0.62247832  1
  Mn  Mn138  1  0.14160507  0.24952335  0.24694118  1
  Mn  Mn139  1  0.39195157  0.58374423  0.62816998  1
  Mn  Mn140  1  0.85774106  0.08285681  0.50244265  1
  Mn  Mn141  1  0.64307008  0.58312040  0.99771080  1
  Mn  Mn142  1  0.60807389  0.75023003  0.12255236  1
  Mn  Mn143  1  0.64211248  0.25002784  0.49788300  1
  Fe  Fe144  1  0.89201782  0.25017876  0.12663222  1
  Fe  Fe145  1  0.64317742  0.91608573  0.24793964  1
  Fe  Fe146  1  0.85783385  0.75069244  0.25141164  1
  Fe  Fe147  1  0.85769641  0.41722036  0.25228665  1
  Fe  Fe148  1  0.10885193  0.75012239  0.87261936  1
  Fe  Fe149  1  0.89239060  0.58326536  0.37655736  1
  Fe  Fe150  1  0.14121128  0.58384849  0.99855104  1
  Fe  Fe151  1  0.10755505  0.08373434  0.37220446  1
  Fe  Fe152  1  0.60746675  0.08417333  0.37246041  1
  Fe  Fe153  1  0.64367635  0.24999331  0.99788197  1
  Fe  Fe154  1  0.60714551  0.41657549  0.37355986  1
  Fe  Fe155  1  0.35732824  0.74979044  0.75201849  1
  Fe  Fe156  1  0.35703093  0.08333731  0.25195447  1
  Fe  Fe157  1  0.60822083  0.41638414  0.87291922  1
  Fe  Fe158  1  0.39134181  0.91718586  0.87722176  1
  Fe  Fe159  1  0.39310253  0.58266276  0.37568096  1
  Fe  Fe160  1  0.89239134  0.24947477  0.87621492  1
  Fe  Fe161  1  0.35654246  0.41670756  0.75242218  1
  Fe  Fe162  1  0.14318536  0.91640872  0.99820031  1
  Fe  Fe163  1  0.14287053  0.91694807  0.24785910  1
  Fe  Fe164  1  0.35588612  0.74947197  0.00189231  1
  Fe  Fe165  1  0.64315260  0.25040207  0.74814670  1
  Fe  Fe166  1  0.39323669  0.25052635  0.87647757  1
  Fe  Fe167  1  0.10558695  0.41704844  0.12341422  1
  Fe  Fe168  1  0.14213418  0.25022093  0.49861035  1
  Fe  Fe169  1  0.35719421  0.08344619  0.75161011  1
  Fe  Fe170  1  0.10729753  0.41688187  0.37294670  1
  Fe  Fe171  1  0.85764226  0.41678641  0.00114815  1
  Fe  Fe172  1  0.39229749  0.91704699  0.12702056  1
  Fe  Fe173  1  0.14268172  0.91690047  0.49791448  1
  Fe  Fe174  1  0.60686808  0.75046558  0.62406002  1
  Fe  Fe175  1  0.10778892  0.08412708  0.87302152  1
  Fe  Fe176  1  0.89306574  0.58365864  0.12658346  1
  Fe  Fe177  1  0.89349390  0.24961911  0.62615325  1
  Fe  Fe178  1  0.10750427  0.41593932  0.62355895  1
  Fe  Fe179  1  0.60693445  0.08281343  0.62370686  1
  Fe  Fe180  1  0.85719196  0.08236960  0.25229421  1
  Fe  Fe181  1  0.64200721  0.91665421  0.49829864  1
  Fe  Fe182  1  0.64380653  0.58380961  0.24849819  1
  Fe  Fe183  1  0.14325528  0.58354576  0.74833705  1
  Fe  Fe184  1  0.35676030  0.41622798  0.50113465  1
  Fe  Fe185  1  0.64204200  0.91700921  0.99855198  1
  Fe  Fe186  1  0.14404478  0.91622738  0.74863218  1
  Fe  Fe187  1  0.64243440  0.58264048  0.74874156  1
  Fe  Fe188  1  0.10834391  0.08461500  0.62316098  1
  Fe  Fe189  1  0.10714399  0.74912688  0.12348680  1
  Fe  Fe190  1  0.85749319  0.41684718  0.75132563  1
  Fe  Fe191  1  0.10619809  0.41611550  0.87280562  1
  P  P192  1  0.05103761  0.25076007  0.11010754  1
  P  P193  1  0.05491358  0.25023360  0.36104265  1
  P  P194  1  0.05320241  0.25061828  0.60967436  1
  P  P195  1  0.05181091  0.25016936  0.85994072  1
  P  P196  1  0.05220491  0.58343503  0.10964288  1
  P  P197  1  0.05177408  0.58246529  0.35989365  1
  P  P198  1  0.05530674  0.58229803  0.61133743  1
  P  P199  1  0.05573574  0.58343992  0.86053879  1
  P  P200  1  0.05551546  0.91577583  0.11080529  1
  P  P201  1  0.05563759  0.91733660  0.36028650  1
  P  P202  1  0.05634935  0.91756301  0.61063795  1
  P  P203  1  0.05659065  0.91677281  0.86078726  1
  P  P204  1  0.55448626  0.24976049  0.10864833  1
  P  P205  1  0.55355963  0.25051501  0.36000705  1
  P  P206  1  0.55421087  0.24919846  0.61161489  1
  P  P207  1  0.55477896  0.25107450  0.86037690  1
  P  P208  1  0.55478915  0.58333576  0.11068649  1
  P  P209  1  0.55288174  0.58189047  0.35891274  1
  P  P210  1  0.55455665  0.58398418  0.61159067  1
  P  P211  1  0.55384580  0.58197297  0.85960546  1
  P  P212  1  0.55379262  0.91681579  0.11027931  1
  P  P213  1  0.55551501  0.91726862  0.35992786  1
  P  P214  1  0.55337634  0.91658093  0.60961931  1
  P  P215  1  0.55226028  0.91656686  0.86164386  1
  P  P216  1  0.44583097  0.08245062  0.14062780  1
  P  P217  1  0.44682274  0.08344905  0.38888318  1
  P  P218  1  0.44706955  0.08295399  0.64061708  1
  P  P219  1  0.44458649  0.08384317  0.88868085  1
  P  P220  1  0.44698598  0.41633090  0.13972127  1
  P  P221  1  0.44732442  0.41744224  0.39062586  1
  P  P222  1  0.44420777  0.41628784  0.63995726  1
  P  P223  1  0.44667032  0.41598908  0.88884233  1
  P  P224  1  0.44486716  0.75081323  0.13848910  1
  P  P225  1  0.44701914  0.74886285  0.38941663  1
  P  P226  1  0.44712922  0.75035906  0.64100427  1
  P  P227  1  0.44356415  0.75022180  0.89003234  1
  P  P228  1  0.94569665  0.08361428  0.14081225  1
  P  P229  1  0.94696072  0.08267622  0.38923813  1
  P  P230  1  0.94893146  0.08393881  0.63954371  1
  P  P231  1  0.94850496  0.08359906  0.88957115  1
  P  P232  1  0.94510802  0.41697783  0.13873378  1
  P  P233  1  0.94670009  0.41775499  0.38884830  1
  P  P234  1  0.94748303  0.41567086  0.64049171  1
  P  P235  1  0.94530276  0.41625500  0.88866933  1
  P  P236  1  0.94761185  0.74961470  0.14031098  1
  P  P237  1  0.94523301  0.74949422  0.38924466  1
  P  P238  1  0.94772617  0.75040813  0.64048146  1
  P  P239  1  0.94924455  0.75046914  0.88958123  1
  P  P240  1  0.19664032  0.08284734  0.23551875  1
  P  P241  1  0.19439416  0.08401322  0.48563500  1
  P  P242  1  0.19626036  0.08314072  0.73615553  1
  P  P243  1  0.19566043  0.08278935  0.98453492  1
  P  P244  1  0.19414791  0.41684052  0.23494267  1
  P  P245  1  0.19557975  0.41561489  0.48553892  1
  P  P246  1  0.19561985  0.41703860  0.73599685  1
  P  P247  1  0.19311405  0.41737033  0.98575509  1
  P  P248  1  0.19571491  0.75064355  0.23420994  1
  P  P249  1  0.19725633  0.75069726  0.48450492  1
  P  P250  1  0.19737770  0.74982993  0.73647361  1
  P  P251  1  0.19521742  0.74983618  0.98617844  1
  P  P252  1  0.69686445  0.08279981  0.23615880  1
  P  P253  1  0.69446046  0.08283788  0.48556038  1
  P  P254  1  0.69583050  0.08443367  0.73451096  1
  P  P255  1  0.69660788  0.08347187  0.98493878  1
  P  P256  1  0.69727812  0.41773878  0.23640217  1
  P  P257  1  0.69630399  0.41633604  0.48390077  1
  P  P258  1  0.69670721  0.41640562  0.73622675  1
  P  P259  1  0.69796880  0.41573641  0.98426181  1
  P  P260  1  0.69823256  0.74963052  0.23511997  1
  P  P261  1  0.69492186  0.75066926  0.48614984  1
  P  P262  1  0.69543696  0.74893882  0.73457433  1
  P  P263  1  0.69691069  0.75093956  0.98486689  1
  P  P264  1  0.30378031  0.25061630  0.01382363  1
  P  P265  1  0.30303243  0.24914047  0.26497046  1
  P  P266  1  0.30156956  0.25079985  0.51498289  1
  P  P267  1  0.30371914  0.25018415  0.76581024  1
  P  P268  1  0.30100769  0.58361373  0.01501254  1
  P  P269  1  0.30318214  0.58276807  0.26573253  1
  P  P270  1  0.30502791  0.58219302  0.51360677  1
  P  P271  1  0.30194474  0.58273029  0.76524488  1
  P  P272  1  0.30382139  0.91590785  0.01443346  1
  P  P273  1  0.30334772  0.91770091  0.26374417  1
  P  P274  1  0.30177395  0.91728966  0.51473010  1
  P  P275  1  0.30325458  0.91692512  0.76523447  1
  P  P276  1  0.80447211  0.25057940  0.01389587  1
  P  P277  1  0.80550702  0.24987193  0.26378976  1
  P  P278  1  0.80419458  0.24975996  0.51585740  1
  P  P279  1  0.80478307  0.25031075  0.76370248  1
  P  P280  1  0.80481708  0.58266233  0.01518322  1
  P  P281  1  0.80491458  0.58389565  0.26418193  1
  P  P282  1  0.80456469  0.58300550  0.51427657  1
  P  P283  1  0.80219349  0.58275508  0.76479518  1
  P  P284  1  0.80224900  0.91677276  0.01477454  1
  P  P285  1  0.80257336  0.91649020  0.26516425  1
  P  P286  1  0.80178999  0.91710558  0.51555811  1
  P  P287  1  0.80297832  0.91694106  0.76499408  1
  O  O288  1  0.05486168  0.25001827  0.18679330  1
  O  O289  1  0.05860063  0.25023859  0.43780974  1
  O  O290  1  0.05640982  0.25055174  0.68636357  1
  O  O291  1  0.05485512  0.25018913  0.93667283  1
  O  O292  1  0.05532069  0.58358377  0.18635570  1
  O  O293  1  0.05581370  0.58300399  0.43661724  1
  O  O294  1  0.05972738  0.58330850  0.68810669  1
  O  O295  1  0.05861264  0.58381652  0.93739394  1
  O  O296  1  0.05914921  0.91671505  0.18762113  1
  O  O297  1  0.05953344  0.91660713  0.43712112  1
  O  O298  1  0.06072107  0.91651740  0.68744782  1
  O  O299  1  0.05992379  0.91646421  0.93765282  1
  O  O300  1  0.55791288  0.24990909  0.18547056  1
  O  O301  1  0.55613585  0.25023872  0.43679656  1
  O  O302  1  0.55838259  0.25035689  0.68834366  1
  O  O303  1  0.55972881  0.25049709  0.93705878  1
  O  O304  1  0.55987172  0.58350543  0.18739803  1
  O  O305  1  0.55604160  0.58284086  0.43573167  1
  O  O306  1  0.55877344  0.58295360  0.68832541  1
  O  O307  1  0.55703210  0.58254618  0.93643151  1
  O  O308  1  0.55940618  0.91645964  0.18697797  1
  O  O309  1  0.55920946  0.91645378  0.43673429  1
  O  O310  1  0.55508389  0.91647748  0.68653721  1
  O  O311  1  0.55751337  0.91674225  0.93827511  1
  O  O312  1  0.44278555  0.08313025  0.06377681  1
  O  O313  1  0.44147480  0.08330309  0.31227106  1
  O  O314  1  0.44335427  0.08334616  0.56383874  1
  O  O315  1  0.44066743  0.08334419  0.81191425  1
  O  O316  1  0.44315638  0.41656967  0.06296006  1
  O  O317  1  0.44370380  0.41641612  0.31388741  1
  O  O318  1  0.43975919  0.41615994  0.56321899  1
  O  O319  1  0.44122353  0.41697216  0.81219505  1
  O  O320  1  0.44020446  0.74980102  0.06174069  1
  O  O321  1  0.44369615  0.75003785  0.31262699  1
  O  O322  1  0.44355980  0.74996514  0.56422283  1
  O  O323  1  0.43968028  0.74951352  0.81315619  1
  O  O324  1  0.94304550  0.08251906  0.06395309  1
  O  O325  1  0.94130708  0.08215009  0.31260544  1
  O  O326  1  0.94494188  0.08291275  0.56286782  1
  O  O327  1  0.94493718  0.08280457  0.81289055  1
  O  O328  1  0.94126284  0.41680074  0.06196003  1
  O  O329  1  0.94172113  0.41729639  0.31213189  1
  O  O330  1  0.94407059  0.41661973  0.56374165  1
  O  O331  1  0.94074643  0.41711858  0.81197095  1
  O  O332  1  0.94429494  0.75075587  0.06355873  1
  O  O333  1  0.94106503  0.75063864  0.31244347  1
  O  O334  1  0.94403822  0.75045395  0.56365313  1
  O  O335  1  0.94461275  0.75044819  0.81295717  1
  O  O336  1  0.19261995  0.08403016  0.06133474  1
  O  O337  1  0.19197202  0.08377467  0.31222746  1
  O  O338  1  0.19103508  0.08439490  0.56257832  1
  O  O339  1  0.19166854  0.08455472  0.81284316  1
  O  O340  1  0.18868636  0.41625082  0.06255327  1
  O  O341  1  0.19011078  0.41707513  0.31178707  1
  O  O342  1  0.19123430  0.41611977  0.56228487  1
  O  O343  1  0.19052250  0.41589768  0.81268068  1
  O  O344  1  0.19085161  0.74946765  0.06287192  1
  O  O345  1  0.19296043  0.74943477  0.31100066  1
  O  O346  1  0.19461655  0.74971795  0.56134565  1
  O  O347  1  0.19329004  0.74978016  0.81321174  1
  O  O348  1  0.69416313  0.08350877  0.06172842  1
  O  O349  1  0.69203562  0.08381685  0.31284091  1
  O  O350  1  0.69034294  0.08366133  0.56232741  1
  O  O351  1  0.69286742  0.08380929  0.81132476  1
  O  O352  1  0.69485885  0.41627624  0.06105411  1
  O  O353  1  0.69199675  0.41698914  0.31296355  1
  O  O354  1  0.69295176  0.41634201  0.56072666  1
  O  O355  1  0.69247227  0.41627725  0.81291738  1
  O  O356  1  0.69413872  0.75041984  0.06166056  1
  O  O357  1  0.69470661  0.74930452  0.31184899  1
  O  O358  1  0.69051797  0.74996670  0.56285004  1
  O  O359  1  0.69238789  0.74977336  0.81139750  1
  O  O360  1  0.30628434  0.24989401  0.18817113  1
  O  O361  1  0.30535207  0.25036337  0.43828042  1
  O  O362  1  0.30596458  0.25000997  0.68893228  1
  O  O363  1  0.30867446  0.25096082  0.93716223  1
  O  O364  1  0.30591618  0.58251390  0.18889164  1
  O  O365  1  0.30931873  0.58267950  0.43689766  1
  O  O366  1  0.30540475  0.58261243  0.68849382  1
  O  O367  1  0.30510157  0.58261316  0.93835706  1
  O  O368  1  0.30784549  0.91711984  0.18705197  1
  O  O369  1  0.30589575  0.91723109  0.43802847  1
  O  O370  1  0.30634638  0.91722471  0.68849225  1
  O  O371  1  0.30815232  0.91694321  0.93768212  1
  O  O372  1  0.80896644  0.25014527  0.18691996  1
  O  O373  1  0.80754808  0.24971424  0.43901487  1
  O  O374  1  0.80976725  0.24957980  0.68704271  1
  O  O375  1  0.80902892  0.24961474  0.93711363  1
  O  O376  1  0.80943751  0.58368361  0.18743911  1
  O  O377  1  0.80908590  0.58286292  0.43748355  1
  O  O378  1  0.80586323  0.58322150  0.68805028  1
  O  O379  1  0.80757317  0.58361275  0.93837328  1
  O  O380  1  0.80638848  0.91667835  0.18846095  1
  O  O381  1  0.80626709  0.91711407  0.43887557  1
  O  O382  1  0.80669999  0.91727678  0.68825672  1
  O  O383  1  0.80666046  0.91664033  0.93811513  1
  O  O384  1  0.23358066  0.24995372  0.03762659  1
  O  O385  1  0.23327382  0.24998629  0.28981811  1
  O  O386  1  0.23164561  0.25030773  0.53990431  1
  O  O387  1  0.23401901  0.25032903  0.79119776  1
  O  O388  1  0.23084031  0.58349353  0.03929534  1
  O  O389  1  0.23345642  0.58320149  0.29083157  1
  O  O390  1  0.23499456  0.58260794  0.53786784  1
  O  O391  1  0.23198506  0.58313035  0.79015166  1
  O  O392  1  0.23332936  0.91646023  0.03783678  1
  O  O393  1  0.23302437  0.91714590  0.28757512  1
  O  O394  1  0.23177698  0.91745391  0.53923649  1
  O  O395  1  0.23316329  0.91649560  0.79004852  1
  O  O396  1  0.73417189  0.25002938  0.03788008  1
  O  O397  1  0.73560365  0.24975587  0.28850095  1
  O  O398  1  0.73438243  0.25020047  0.54037594  1
  O  O399  1  0.73431458  0.25018636  0.78717143  1
  O  O400  1  0.73514604  0.58319297  0.04047303  1
  O  O401  1  0.73453922  0.58378683  0.28819760  1
  O  O402  1  0.73439730  0.58288970  0.53785283  1
  O  O403  1  0.73223560  0.58270835  0.78959125  1
  O  O404  1  0.73215737  0.91715058  0.03921792  1
  O  O405  1  0.73249629  0.91619062  0.28978153  1
  O  O406  1  0.73157053  0.91708075  0.53939144  1
  O  O407  1  0.73298798  0.91680087  0.78935660  1
  O  O408  1  0.26674021  0.08280755  0.21124194  1
  O  O409  1  0.26434614  0.08361423  0.46098664  1
  O  O410  1  0.26667148  0.08365249  0.71234978  1
  O  O411  1  0.26546078  0.08279892  0.95981078  1
  O  O412  1  0.26420502  0.41652779  0.21089203  1
  O  O413  1  0.26590426  0.41634645  0.46157422  1
  O  O414  1  0.26609447  0.41623052  0.71265770  1
  O  O415  1  0.26328150  0.41730102  0.96188150  1
  O  O416  1  0.26537536  0.75001159  0.20904820  1
  O  O417  1  0.26673317  0.75079476  0.45882562  1
  O  O418  1  0.26754558  0.75014455  0.71192200  1
  O  O419  1  0.26560149  0.74995446  0.96231091  1
  O  O420  1  0.76716688  0.08306513  0.21230585  1
  O  O421  1  0.76458230  0.08327339  0.46139976  1
  O  O422  1  0.76555425  0.08356299  0.70939052  1
  O  O423  1  0.76610835  0.08344321  0.95903277  1
  O  O424  1  0.76777129  0.41726659  0.21296177  1
  O  O425  1  0.76611442  0.41635945  0.45920831  1
  O  O426  1  0.76696438  0.41643483  0.71187186  1
  O  O427  1  0.76802797  0.41641617  0.95959761  1
  O  O428  1  0.76825347  0.75018572  0.21029359  1
  O  O429  1  0.76497715  0.75032315  0.46203084  1
  O  O430  1  0.76511607  0.74997844  0.70927149  1
  O  O431  1  0.76650614  0.75007223  0.95929795  1
  O  O432  1  0.01543635  0.08339969  0.16597726  1
  O  O433  1  0.01747580  0.08324023  0.41212842  1
  O  O434  1  0.01911146  0.08435243  0.66395351  1
  O  O435  1  0.01845038  0.08387311  0.91454909  1
  O  O436  1  0.01543967  0.41719535  0.16298563  1
  O  O437  1  0.01702583  0.41688525  0.41255412  1
  O  O438  1  0.01758727  0.41605946  0.66504437  1
  O  O439  1  0.01575268  0.41677535  0.91216888  1
  O  O440  1  0.01767088  0.74948118  0.16500190  1
  O  O441  1  0.01525143  0.74967623  0.41353510  1
  O  O442  1  0.01760748  0.75037876  0.66495077  1
  O  O443  1  0.01946739  0.75011241  0.91346189  1
  O  O444  1  0.51563194  0.08313677  0.16545332  1
  O  O445  1  0.51728764  0.08365909  0.41209948  1
  O  O446  1  0.51709292  0.08272602  0.66521408  1
  O  O447  1  0.51457393  0.08375066  0.91314798  1
  O  O448  1  0.51689733  0.41636591  0.16414024  1
  O  O449  1  0.51730203  0.41668556  0.41553147  1
  O  O450  1  0.51450109  0.41640146  0.66339989  1
  O  O451  1  0.51711994  0.41609956  0.91222315  1
  O  O452  1  0.51496762  0.75064323  0.16253559  1
  O  O453  1  0.51676294  0.74874350  0.41434499  1
  O  O454  1  0.51709811  0.75070214  0.66565720  1
  O  O455  1  0.51367445  0.74953862  0.91411753  1
  O  O456  1  0.48468968  0.24986065  0.08392341  1
  O  O457  1  0.48400463  0.25051360  0.33434189  1
  O  O458  1  0.48425655  0.24947738  0.58705318  1
  O  O459  1  0.48430799  0.25033483  0.83694784  1
  O  O460  1  0.48463909  0.58280002  0.08686766  1
  O  O461  1  0.48292911  0.58270517  0.33396538  1
  O  O462  1  0.48448991  0.58316358  0.58752759  1
  O  O463  1  0.48403158  0.58280777  0.83474692  1
  O  O464  1  0.48325572  0.91705814  0.08726970  1
  O  O465  1  0.48542643  0.91655719  0.33573379  1
  O  O466  1  0.48403019  0.91674667  0.58318198  1
  O  O467  1  0.48179981  0.91670633  0.83825222  1
  O  O468  1  0.98097223  0.25053498  0.08554708  1
  O  O469  1  0.98496818  0.25041101  0.33655960  1
  O  O470  1  0.98329013  0.25016019  0.58442249  1
  O  O471  1  0.98192647  0.25009460  0.83481337  1
  O  O472  1  0.98219611  0.58347504  0.08466209  1
  O  O473  1  0.98185283  0.58296715  0.33516221  1
  O  O474  1  0.98529119  0.58233118  0.58720315  1
  O  O475  1  0.98584126  0.58317142  0.83558768  1
  O  O476  1  0.98553393  0.91655305  0.08626582  1
  O  O477  1  0.98555050  0.91646984  0.33620327  1
  O  O478  1  0.98631767  0.91704997  0.58628825  1
  O  O479  1  0.98673017  0.91720641  0.83586656  1
  O  O480  1  0.08470996  0.31580995  0.07747666  1
  O  O481  1  0.08845925  0.31530753  0.32813850  1
  O  O482  1  0.08702942  0.31590491  0.57712035  1
  O  O483  1  0.08567687  0.31528945  0.82730748  1
  O  O484  1  0.08643432  0.64843003  0.07705423  1
  O  O485  1  0.08567855  0.64753215  0.32707561  1
  O  O486  1  0.08884886  0.64719689  0.57775348  1
  O  O487  1  0.08972263  0.64842784  0.82764179  1
  O  O488  1  0.08980741  0.98043254  0.07760753  1
  O  O489  1  0.08895913  0.98269468  0.32743327  1
  O  O490  1  0.08972915  0.98304671  0.57823689  1
  O  O491  1  0.09072858  0.98183644  0.82826086  1
  O  O492  1  0.58895392  0.31460110  0.07606752  1
  O  O493  1  0.58775839  0.31582248  0.32791415  1
  O  O494  1  0.58794921  0.31403287  0.57816496  1
  O  O495  1  0.58794353  0.31621955  0.82693165  1
  O  O496  1  0.58778276  0.64857285  0.07731331  1
  O  O497  1  0.58754997  0.64649072  0.32584809  1
  O  O498  1  0.58740317  0.64955699  0.57878495  1
  O  O499  1  0.58839558  0.64684914  0.82719052  1
  O  O500  1  0.58709853  0.98188323  0.07687388  1
  O  O501  1  0.58890377  0.98265446  0.32728311  1
  O  O502  1  0.58809030  0.98171760  0.57789524  1
  O  O503  1  0.58559022  0.98142547  0.82796548  1
  O  O504  1  0.41198034  0.01715956  0.17294295  1
  O  O505  1  0.41384858  0.01832894  0.42254561  1
  O  O506  1  0.41282579  0.01795649  0.67304604  1
  O  O507  1  0.41097820  0.01886973  0.92195979  1
  O  O508  1  0.41324356  0.35116799  0.17241413  1
  O  O509  1  0.41274545  0.35279222  0.42381646  1
  O  O510  1  0.41076176  0.35130315  0.67327835  1
  O  O511  1  0.41337763  0.35081278  0.92191133  1
  O  O512  1  0.41135997  0.68583794  0.17182078  1
  O  O513  1  0.41298929  0.68359295  0.42136212  1
  O  O514  1  0.41313985  0.68544267  0.67406830  1
  O  O515  1  0.40956894  0.68528683  0.92314134  1
  O  O516  1  0.91142394  0.01863367  0.17357627  1
  O  O517  1  0.91427077  0.01763298  0.42324311  1
  O  O518  1  0.91558583  0.01896358  0.67302584  1
  O  O519  1  0.91492708  0.01858440  0.92279779  1
  O  O520  1  0.91170042  0.35205357  0.17218889  1
  O  O521  1  0.91321074  0.35278909  0.42227059  1
  O  O522  1  0.91358645  0.35034367  0.67256280  1
  O  O523  1  0.91216821  0.35096660  0.92169058  1
  O  O524  1  0.91339905  0.68447058  0.17234938  1
  O  O525  1  0.91178865  0.68408313  0.42163289  1
  O  O526  1  0.91394524  0.68515760  0.67299378  1
  O  O527  1  0.91544721  0.68540046  0.92238720  1
  O  O528  1  0.16296036  0.01777005  0.20277859  1
  O  O529  1  0.16040993  0.01896996  0.45296105  1
  O  O530  1  0.16320379  0.01774377  0.70345950  1
  O  O531  1  0.16169324  0.01750914  0.95264606  1
  O  O532  1  0.16011873  0.35202341  0.20182370  1
  O  O533  1  0.16235904  0.35039523  0.45249666  1
  O  O534  1  0.16196189  0.35225441  0.70221780  1
  O  O535  1  0.15955271  0.35247969  0.95197660  1
  O  O536  1  0.16097981  0.68587724  0.20153825  1
  O  O537  1  0.16309063  0.68555083  0.45200366  1
  O  O538  1  0.16402762  0.68474237  0.70324730  1
  O  O539  1  0.16180765  0.68494842  0.95261350  1
  O  O540  1  0.66361833  0.01746445  0.20329607  1
  O  O541  1  0.66083328  0.01764661  0.45288406  1
  O  O542  1  0.66086996  0.01965862  0.70221721  1
  O  O543  1  0.66203780  0.01840517  0.95286948  1
  O  O544  1  0.66415875  0.35276189  0.20250103  1
  O  O545  1  0.66218919  0.35130120  0.45138772  1
  O  O546  1  0.66332478  0.35128796  0.70293200  1
  O  O547  1  0.66423661  0.35056312  0.95163262  1
  O  O548  1  0.66458977  0.68450946  0.20230131  1
  O  O549  1  0.66153266  0.68568251  0.45247828  1
  O  O550  1  0.66176041  0.68349311  0.70246389  1
  O  O551  1  0.66225344  0.68594155  0.95275734  1
  O  O552  1  0.33676266  0.31573382  0.04736038  1
  O  O553  1  0.33725802  0.31412577  0.29767636  1
  O  O554  1  0.33548189  0.31581684  0.54750741  1
  O  O555  1  0.33814043  0.31524061  0.79806146  1
  O  O556  1  0.33479653  0.64875024  0.04750506  1
  O  O557  1  0.33785195  0.64769931  0.29780043  1
  O  O558  1  0.33864839  0.64726753  0.54693569  1
  O  O559  1  0.33602303  0.64776216  0.79760007  1
  O  O560  1  0.33743120  0.98064656  0.04814375  1
  O  O561  1  0.33647941  0.98276767  0.29720126  1
  O  O562  1  0.33552048  0.98230668  0.54759550  1
  O  O563  1  0.33684595  0.98212972  0.79810688  1
  O  O564  1  0.83761623  0.31604278  0.04669218  1
  O  O565  1  0.83908097  0.31514698  0.29657442  1
  O  O566  1  0.83864155  0.31463431  0.54828072  1
  O  O567  1  0.83810341  0.31540549  0.79696990  1
  O  O568  1  0.83956841  0.64737534  0.04783068  1
  O  O569  1  0.83825455  0.64905626  0.29728795  1
  O  O570  1  0.83800558  0.64801244  0.54751001  1
  O  O571  1  0.83603167  0.64786870  0.79764581  1
  O  O572  1  0.83624202  0.98172125  0.04757190  1
  O  O573  1  0.83614759  0.98161911  0.29821935  1
  O  O574  1  0.83539117  0.98221579  0.54850807  1
  O  O575  1  0.83678223  0.98208619  0.79772114  1
  O  O576  1  0.41124269  0.14725354  0.17320368  1
  O  O577  1  0.41359029  0.14847454  0.42251235  1
  O  O578  1  0.41299315  0.14781761  0.67359327  1
  O  O579  1  0.41131149  0.14932535  0.92129652  1
  O  O580  1  0.41294969  0.48122959  0.17251621  1
  O  O581  1  0.41361541  0.48285607  0.42281759  1
  O  O582  1  0.41066670  0.48121880  0.67345084  1
  O  O583  1  0.41345958  0.48097094  0.92273972  1
  O  O584  1  0.41160215  0.81619914  0.17135217  1
  O  O585  1  0.41327039  0.81402503  0.42240686  1
  O  O586  1  0.41276916  0.81536451  0.67326213  1
  O  O587  1  0.41005519  0.81546944  0.92265327  1
  O  O588  1  0.91155058  0.14886700  0.17259577  1
  O  O589  1  0.91368280  0.14775569  0.42253853  1
  O  O590  1  0.91496289  0.14910005  0.67182963  1
  O  O591  1  0.91417968  0.14870175  0.92166052  1
  O  O592  1  0.91171427  0.48222014  0.17176479  1
  O  O593  1  0.91378650  0.48290483  0.42220069  1
  O  O594  1  0.91327923  0.48035067  0.67381790  1
  O  O595  1  0.91186490  0.48107419  0.92240739  1
  O  O596  1  0.91375017  0.81451836  0.17360849  1
  O  O597  1  0.91180270  0.81452419  0.42271841  1
  O  O598  1  0.91387515  0.81550953  0.67298166  1
  O  O599  1  0.91589929  0.81551445  0.92289075  1
  O  O600  1  0.08489589  0.18571070  0.07723439  1
  O  O601  1  0.08824493  0.18490324  0.32796502  1
  O  O602  1  0.08782714  0.18586618  0.57713570  1
  O  O603  1  0.08607848  0.18527020  0.82741807  1
  O  O604  1  0.08611992  0.51838228  0.07699596  1
  O  O605  1  0.08546183  0.51744686  0.32716785  1
  O  O606  1  0.08873152  0.51687154  0.57881916  1
  O  O607  1  0.08964388  0.51818741  0.82812302  1
  O  O608  1  0.08892926  0.85032857  0.07833298  1
  O  O609  1  0.08980931  0.85262347  0.32712737  1
  O  O610  1  0.09035766  0.85283362  0.57712068  1
  O  O611  1  0.09035435  0.85161049  0.82780783  1
  O  O612  1  0.58848015  0.18460683  0.07621626  1
  O  O613  1  0.58790863  0.18552732  0.32748944  1
  O  O614  1  0.58759426  0.18377305  0.57912088  1
  O  O615  1  0.58843384  0.18622382  0.82685247  1
  O  O616  1  0.58859097  0.51840681  0.07758078  1
  O  O617  1  0.58676326  0.51650135  0.32686272  1
  O  O618  1  0.58838188  0.51918564  0.57813991  1
  O  O619  1  0.58778702  0.51676493  0.82717074  1
  O  O620  1  0.58699363  0.85191626  0.07647640  1
  O  O621  1  0.58952970  0.85248960  0.32649483  1
  O  O622  1  0.58791990  0.85146079  0.57769203  1
  O  O623  1  0.58524815  0.85142820  0.82819970  1
  O  O624  1  0.33745286  0.18551736  0.04675652  1
  O  O625  1  0.33662705  0.18380401  0.29740329  1
  O  O626  1  0.33561629  0.18568544  0.54768079  1
  O  O627  1  0.33812501  0.18508887  0.79781596  1
  O  O628  1  0.33473757  0.51866686  0.04817593  1
  O  O629  1  0.33734022  0.51773894  0.29824587  1
  O  O630  1  0.33821347  0.51693121  0.54664286  1
  O  O631  1  0.33540853  0.51748913  0.79820703  1
  O  O632  1  0.33686727  0.85065415  0.04743508  1
  O  O633  1  0.33677070  0.85263118  0.29714713  1
  O  O634  1  0.33550226  0.85218904  0.54754490  1
  O  O635  1  0.33731073  0.85191930  0.79784898  1
  O  O636  1  0.83835353  0.18586685  0.04742814  1
  O  O637  1  0.83918483  0.18469438  0.29650521  1
  O  O638  1  0.83819544  0.18469556  0.54847920  1
  O  O639  1  0.83808195  0.18534647  0.79756605  1
  O  O640  1  0.83859840  0.51716776  0.04713084  1
  O  O641  1  0.83842964  0.51882988  0.29760940  1
  O  O642  1  0.83794221  0.51788591  0.54747168  1
  O  O643  1  0.83635299  0.51775691  0.79713088  1
  O  O644  1  0.83594539  0.85166025  0.04773440  1
  O  O645  1  0.83647480  0.85135041  0.29770545  1
  O  O646  1  0.83550455  0.85218754  0.54857879  1
  O  O647  1  0.83697055  0.85188022  0.79756916  1
  O  O648  1  0.16319849  0.14781873  0.20190079  1
  O  O649  1  0.16077436  0.14920346  0.45276750  1
  O  O650  1  0.16252491  0.14787781  0.70235714  1
  O  O651  1  0.16146373  0.14763396  0.95143872  1
  O  O652  1  0.16037738  0.48190330  0.20201422  1
  O  O653  1  0.16174855  0.48041277  0.45193103  1
  O  O654  1  0.16277342  0.48233449  0.70277132  1
  O  O655  1  0.15957763  0.48259501  0.95317042  1
  O  O656  1  0.16179242  0.81593239  0.20222408  1
  O  O657  1  0.16274315  0.81576683  0.45284730  1
  O  O658  1  0.16378681  0.81497544  0.70365288  1
  O  O659  1  0.16214721  0.81512750  0.95289427  1
  O  O660  1  0.66351853  0.14766311  0.20240459  1
  O  O661  1  0.66073154  0.14777241  0.45204106  1
  O  O662  1  0.66203013  0.14978711  0.70234156  1
  O  O663  1  0.66246763  0.14871445  0.95272681  1
  O  O664  1  0.66449428  0.48300863  0.20297412  1
  O  O665  1  0.66200967  0.48122566  0.45126678  1
  O  O666  1  0.66313325  0.48143894  0.70313193  1
  O  O667  1  0.66349806  0.48053135  0.95156647  1
  O  O668  1  0.66391263  0.81468673  0.20279452  1
  O  O669  1  0.66158079  0.81594363  0.45334179  1
  O  O670  1  0.66043325  0.81370783  0.70218250  1
  O  O671  1  0.66282452  0.81617443  0.95277245  1
