# generated using pymatgen
data_Na2MnFe(PO4)2
_symmetry_space_group_name_H-M   'P 1'
_cell_length_a   21.08178351
_cell_length_b   18.93339254
_cell_length_c   20.04128543
_cell_angle_alpha   90.00034218
_cell_angle_beta   89.99892518
_cell_angle_gamma   90.00033399
_symmetry_Int_Tables_number   1
_chemical_formula_structural   Na2MnFe(PO4)2
_chemical_formula_sum   'Na96 Mn48 Fe48 P96 O384'
_cell_volume   7999.47271453
_cell_formula_units_Z   48
loop_
 _symmetry_equiv_pos_site_id
 _symmetry_equiv_pos_as_xyz
  1  'x, y, z'
loop_
 _atom_site_type_symbol
 _atom_site_label
 _atom_site_symmetry_multiplicity
 _atom_site_fract_x
 _atom_site_fract_y
 _atom_site_fract_z
 _atom_site_occupancy
  Na  Na0  1  -0.00147329  -0.00091913  0.00096930  1
  Na  Na1  1  -0.00113573  -0.00038721  0.25047435  1
  Na  Na2  1  0.00072808  -0.00007476  0.49985337  1
  Na  Na3  1  0.00174370  0.00047211  0.74939067  1
  Na  Na4  1  0.00005558  0.33311256  0.00000584  1
  Na  Na5  1  0.00129622  0.33416758  0.24892346  1
  Na  Na6  1  -0.00173417  0.33311091  0.49964506  1
  Na  Na7  1  -0.00180222  0.33296528  0.75095291  1
  Na  Na8  1  0.00004165  0.66767596  -0.00071222  1
  Na  Na9  1  -0.00322062  0.66578259  0.25039133  1
  Na  Na10  1  -0.00044175  0.66684134  0.49982965  1
  Na  Na11  1  0.00083548  0.66716656  0.75007667  1
  Na  Na12  1  0.49990472  0.00055582  0.00048442  1
  Na  Na13  1  0.50108725  0.00081418  0.24905292  1
  Na  Na14  1  0.49861872  -0.00059771  0.50007214  1
  Na  Na15  1  0.49839278  -0.00070394  0.75030789  1
  Na  Na16  1  0.50056787  0.33289081  -0.00063338  1
  Na  Na17  1  0.50259597  0.33326797  0.25012121  1
  Na  Na18  1  0.50284118  0.33382943  0.50024815  1
  Na  Na19  1  0.50063727  0.33249867  0.75109144  1
  Na  Na20  1  0.49828030  0.66685851  0.00020308  1
  Na  Na21  1  0.49961205  0.66657419  0.24900035  1
  Na  Na22  1  0.49860230  0.66627838  0.50068793  1
  Na  Na23  1  0.49613248  0.66589918  0.74978984  1
  Na  Na24  1  0.25094512  0.00048955  0.12352121  1
  Na  Na25  1  0.25067705  0.00002884  0.37587208  1
  Na  Na26  1  0.25131155  0.00019928  0.62591169  1
  Na  Na27  1  0.25079930  0.00047552  0.87448685  1
  Na  Na28  1  0.24893064  0.33213884  0.12524620  1
  Na  Na29  1  0.24901485  0.33265970  0.37491981  1
  Na  Na30  1  0.25116135  0.33388780  0.62493252  1
  Na  Na31  1  0.25056364  0.33329651  0.87408008  1
  Na  Na32  1  0.25164733  0.66673272  0.12489700  1
  Na  Na33  1  0.25283922  0.66710281  0.37543817  1
  Na  Na34  1  0.25243479  0.66706147  0.62546107  1
  Na  Na35  1  0.25182742  0.66733028  0.87400559  1
  Na  Na36  1  0.74941443  -0.00046946  0.12332545  1
  Na  Na37  1  0.74937593  -0.00009078  0.37467980  1
  Na  Na38  1  0.74979312  0.00024970  0.62639577  1
  Na  Na39  1  0.74958549  -0.00073153  0.87636231  1
  Na  Na40  1  0.74881098  0.33291640  0.12528354  1
  Na  Na41  1  0.74746436  0.33249133  0.37549678  1
  Na  Na42  1  0.75006125  0.33370921  0.62513675  1
  Na  Na43  1  0.75038549  0.33275862  0.87446588  1
  Na  Na44  1  0.75127760  0.66741353  0.12554921  1
  Na  Na45  1  0.74928456  0.66646088  0.37488999  1
  Na  Na46  1  0.75042775  0.66782147  0.62475810  1
  Na  Na47  1  0.74894608  0.66625956  0.87455362  1
  Na  Na48  1  0.00116761  0.16636089  0.00081412  1
  Na  Na49  1  -0.00029570  0.16682068  0.24986298  1
  Na  Na50  1  -0.00050786  0.16702834  0.49898843  1
  Na  Na51  1  -0.00127254  0.16793511  0.75048259  1
  Na  Na52  1  -0.00279493  0.50055527  -0.00090088  1
  Na  Na53  1  -0.00252252  0.50034908  0.24956709  1
  Na  Na54  1  -0.00145594  0.49997752  0.50067736  1
  Na  Na55  1  -0.00066542  0.49943438  0.74998004  1
  Na  Na56  1  -0.00082250  0.83390457  0.00030661  1
  Na  Na57  1  -0.00043896  0.83334325  0.25032699  1
  Na  Na58  1  0.00050461  0.83314506  0.49976703  1
  Na  Na59  1  0.00187277  0.83290326  0.74985827  1
  Na  Na60  1  0.50118546  0.16601198  -0.00055923  1
  Na  Na61  1  0.50033507  0.16707462  0.25019534  1
  Na  Na62  1  0.50053076  0.16709739  0.49983560  1
  Na  Na63  1  0.50048982  0.16673301  0.75103425  1
  Na  Na64  1  0.49760495  0.50110873  0.00005290  1
  Na  Na65  1  0.50088019  0.50002404  0.24936809  1
  Na  Na66  1  0.49965453  0.50045282  0.50015008  1
  Na  Na67  1  0.49831214  0.50031036  0.75093987  1
  Na  Na68  1  0.49865443  0.83428917  0.00023343  1
  Na  Na69  1  0.50215508  0.83210423  0.24877823  1
  Na  Na70  1  0.49914844  0.83366929  0.50081233  1
  Na  Na71  1  0.49908520  0.83289630  0.74974505  1
  Na  Na72  1  0.25028495  0.16664514  0.12511294  1
  Na  Na73  1  0.25058526  0.16698842  0.37500211  1
  Na  Na74  1  0.25285555  0.16581670  0.62636276  1
  Na  Na75  1  0.25033188  0.16727097  0.87411117  1
  Na  Na76  1  0.25195253  0.49973403  0.12480511  1
  Na  Na77  1  0.25147428  0.50001108  0.37572459  1
  Na  Na78  1  0.25124346  0.49981198  0.62389060  1
  Na  Na79  1  0.25114984  0.50016184  0.87469454  1
  Na  Na80  1  0.24980547  0.83361632  0.12362878  1
  Na  Na81  1  0.24994995  0.83348394  0.37567068  1
  Na  Na82  1  0.25149869  0.83230516  0.62574367  1
  Na  Na83  1  0.25028630  0.83350887  0.87451100  1
  Na  Na84  1  0.74841301  0.16670894  0.12345056  1
  Na  Na85  1  0.74825332  0.16705974  0.37524495  1
  Na  Na86  1  0.74908686  0.16710873  0.62669252  1
  Na  Na87  1  0.74781489  0.16722396  0.87462000  1
  Na  Na88  1  0.75101812  0.49966713  0.12619135  1
  Na  Na89  1  0.75026967  0.49958922  0.37541630  1
  Na  Na90  1  0.75013832  0.49983406  0.62438696  1
  Na  Na91  1  0.75283828  0.49867398  0.87471073  1
  Na  Na92  1  0.75057223  0.83295533  0.12445790  1
  Na  Na93  1  0.74827990  0.83396910  0.37432383  1
  Na  Na94  1  0.74933061  0.83348573  0.62586371  1
  Na  Na95  1  0.75062046  0.83285399  0.87530270  1
  Mn  Mn96  1  0.60800803  0.41757763  0.87240128  1
  Mn  Mn97  1  0.89204842  0.58385615  0.87715585  1
  Mn  Mn98  1  0.85741698  0.08369193  0.00185837  1
  Mn  Mn99  1  0.39298316  0.24967507  0.87757802  1
  Mn  Mn100  1  0.60660879  0.74941821  0.62353854  1
  Mn  Mn101  1  0.64095538  0.91707138  0.49814971  1
  Mn  Mn102  1  0.14307294  0.58329161  0.49774367  1
  Mn  Mn103  1  0.10789549  0.08291741  0.12310173  1
  Mn  Mn104  1  0.60782770  0.74999465  0.12232596  1
  Mn  Mn105  1  0.85817055  0.74904770  0.00171191  1
  Mn  Mn106  1  0.35825861  0.41583983  0.25264723  1
  Mn  Mn107  1  0.10800100  0.74922533  0.37274794  1
  Mn  Mn108  1  0.35876151  0.08319256  0.50248203  1
  Mn  Mn109  1  0.35780360  0.41600870  0.00264602  1
  Mn  Mn110  1  0.35924917  0.41650378  0.50256153  1
  Mn  Mn111  1  0.60819344  0.08279776  0.37194229  1
  Mn  Mn112  1  0.10813045  0.08428599  0.62292172  1
  Mn  Mn113  1  0.39306322  0.25092555  0.37712719  1
  Mn  Mn114  1  0.60701073  0.08341501  0.62346319  1
  Mn  Mn115  1  0.39213360  0.91740501  0.12779337  1
  Mn  Mn116  1  0.35816021  0.75098398  0.25258792  1
  Mn  Mn117  1  0.89127862  0.25051013  0.37666616  1
  Mn  Mn118  1  0.10723772  0.41723937  0.37307906  1
  Mn  Mn119  1  0.85721393  0.75029562  0.50247860  1
  Mn  Mn120  1  0.89192923  0.24952920  0.12732083  1
  Mn  Mn121  1  0.89230769  0.58338117  0.62751314  1
  Mn  Mn122  1  0.89153627  0.91640416  0.37709092  1
  Mn  Mn123  1  0.14241979  0.58300833  0.99799063  1
  Mn  Mn124  1  0.64211942  0.58277894  0.99777772  1
  Mn  Mn125  1  0.10710205  0.74950809  0.12336652  1
  Mn  Mn126  1  0.85766064  0.08292787  0.75317345  1
  Mn  Mn127  1  0.14202942  0.58357836  0.24770328  1
  Mn  Mn128  1  0.10810263  0.08347510  0.37221774  1
  Mn  Mn129  1  0.89250302  0.91678911  0.62779848  1
  Mn  Mn130  1  0.64179207  0.58343103  0.74797788  1
  Mn  Mn131  1  0.85751805  0.08385329  0.50252440  1
  Mn  Mn132  1  0.60774924  0.41642917  0.12203256  1
  Mn  Mn133  1  0.10749316  0.41765629  0.12270732  1
  Mn  Mn134  1  0.85666280  0.41591808  0.25275454  1
  Mn  Mn135  1  0.39261025  0.91573943  0.37629391  1
  Mn  Mn136  1  0.14331429  0.91664692  0.49838218  1
  Mn  Mn137  1  0.10727067  0.41653447  0.87253723  1
  Mn  Mn138  1  0.14233676  0.25032460  0.74736217  1
  Mn  Mn139  1  0.64223762  0.91647038  0.99708089  1
  Mn  Mn140  1  0.64149173  0.58313609  0.49766729  1
  Mn  Mn141  1  0.14326021  0.58333442  0.74768030  1
  Mn  Mn142  1  0.14227505  0.91714114  0.99726017  1
  Mn  Mn143  1  0.14223218  0.25000081  0.49862771  1
  Fe  Fe144  1  0.85771826  0.75039677  0.75190598  1
  Fe  Fe145  1  0.39269009  0.58231236  0.62710421  1
  Fe  Fe146  1  0.64225547  0.91645676  0.74933705  1
  Fe  Fe147  1  0.64259197  0.25046288  0.99819593  1
  Fe  Fe148  1  0.35845368  0.75028764  0.50174307  1
  Fe  Fe149  1  0.60671862  0.08198587  0.87303506  1
  Fe  Fe150  1  0.64261881  0.24983367  0.49925619  1
  Fe  Fe151  1  0.89246683  0.24887676  0.87723687  1
  Fe  Fe152  1  0.89353532  0.91716706  0.87557558  1
  Fe  Fe153  1  0.10703058  0.41679744  0.62343108  1
  Fe  Fe154  1  0.10806082  0.75061268  0.87311450  1
  Fe  Fe155  1  0.14355700  0.91668190  0.74871827  1
  Fe  Fe156  1  0.60713696  0.08365024  0.12329184  1
  Fe  Fe157  1  0.64331509  0.25007552  0.74803879  1
  Fe  Fe158  1  0.89176126  0.25004394  0.62655682  1
  Fe  Fe159  1  0.35718744  0.75063782  0.00118311  1
  Fe  Fe160  1  0.39362892  0.25047747  0.62677254  1
  Fe  Fe161  1  0.14302202  0.24974555  0.99838892  1
  Fe  Fe162  1  0.39375917  0.58326854  0.37585867  1
  Fe  Fe163  1  0.39249404  0.58375309  0.87710092  1
  Fe  Fe164  1  0.35710862  0.75024868  0.75252284  1
  Fe  Fe165  1  0.39265884  0.58265432  0.12737776  1
  Fe  Fe166  1  0.35764411  0.08342119  0.75256755  1
  Fe  Fe167  1  0.85611647  0.08315556  0.25105179  1
  Fe  Fe168  1  0.14294632  0.24934866  0.24832370  1
  Fe  Fe169  1  0.85633025  0.75053529  0.25195758  1
  Fe  Fe170  1  0.14256718  0.91710829  0.24842553  1
  Fe  Fe171  1  0.60740660  0.41686694  0.62428934  1
  Fe  Fe172  1  0.60717314  0.74949823  0.37342215  1
  Fe  Fe173  1  0.64218564  0.24922093  0.24746486  1
  Fe  Fe174  1  0.64281784  0.58373655  0.24819432  1
  Fe  Fe175  1  0.39260035  0.91633918  0.87637909  1
  Fe  Fe176  1  0.39293438  0.25009165  0.12659399  1
  Fe  Fe177  1  0.60792087  0.41792614  0.37344023  1
  Fe  Fe178  1  0.10770797  0.08315652  0.87374357  1
  Fe  Fe179  1  0.35810787  0.41633097  0.75121536  1
  Fe  Fe180  1  0.60620792  0.75057309  0.87314376  1
  Fe  Fe181  1  0.85721164  0.41689336  0.75097355  1
  Fe  Fe182  1  0.89170907  0.58390022  0.12704471  1
  Fe  Fe183  1  0.35754873  0.08372064  0.00161230  1
  Fe  Fe184  1  0.85640990  0.41616595  0.50204068  1
  Fe  Fe185  1  0.39218742  0.91700537  0.62807011  1
  Fe  Fe186  1  0.89139841  0.58330668  0.37685162  1
  Fe  Fe187  1  0.89215606  0.91637250  0.12757250  1
  Fe  Fe188  1  0.64295494  0.91690146  0.24785428  1
  Fe  Fe189  1  0.10809004  0.74931476  0.62325288  1
  Fe  Fe190  1  0.35746962  0.08331986  0.25115876  1
  Fe  Fe191  1  0.85719856  0.41621255  0.00153977  1
  P  P192  1  0.05529816  0.24994186  0.11035210  1
  P  P193  1  0.05363677  0.25050534  0.35902560  1
  P  P194  1  0.05159848  0.25125608  0.61016846  1
  P  P195  1  0.05354528  0.24902464  0.86139017  1
  P  P196  1  0.05116473  0.58361838  0.10966409  1
  P  P197  1  0.05146296  0.58303265  0.35996514  1
  P  P198  1  0.05399306  0.58318798  0.61029176  1
  P  P199  1  0.05359804  0.58392411  0.85978143  1
  P  P200  1  0.05314418  0.91643848  0.11124480  1
  P  P201  1  0.05417777  0.91643602  0.35942424  1
  P  P202  1  0.05526774  0.91570461  0.61133832  1
  P  P203  1  0.05363228  0.91716692  0.85966963  1
  P  P204  1  0.55406676  0.24890978  0.11012036  1
  P  P205  1  0.55584420  0.25076594  0.36068517  1
  P  P206  1  0.55436777  0.25077738  0.61137509  1
  P  P207  1  0.55601894  0.24910529  0.86080049  1
  P  P208  1  0.55314013  0.58334495  0.11071621  1
  P  P209  1  0.55311845  0.58388207  0.35941046  1
  P  P210  1  0.55191355  0.58250428  0.61076461  1
  P  P211  1  0.55171304  0.58473700  0.86025648  1
  P  P212  1  0.55480547  0.91766380  0.11086823  1
  P  P213  1  0.55386526  0.91551317  0.35889173  1
  P  P214  1  0.55241168  0.91663299  0.61192528  1
  P  P215  1  0.55228566  0.91633820  0.85979996  1
  P  P216  1  0.44607078  0.08477583  0.13922388  1
  P  P217  1  0.44607394  0.08324768  0.38854287  1
  P  P218  1  0.44588671  0.08388865  0.64099204  1
  P  P219  1  0.44593701  0.08229612  0.88953061  1
  P  P220  1  0.44667815  0.41565688  0.13990402  1
  P  P221  1  0.44883966  0.41732059  0.38972869  1
  P  P222  1  0.44796930  0.41608553  0.64081382  1
  P  P223  1  0.44575785  0.41706962  0.88903824  1
  P  P224  1  0.44516144  0.74973512  0.13856390  1
  P  P225  1  0.44770716  0.74933830  0.39024576  1
  P  P226  1  0.44411751  0.74988660  0.63968093  1
  P  P227  1  0.44544997  0.75058070  0.88924385  1
  P  P228  1  0.94560284  0.08267431  0.14074956  1
  P  P229  1  0.94514591  0.08341410  0.38876245  1
  P  P230  1  0.94664375  0.08428150  0.64024330  1
  P  P231  1  0.94801091  0.08292456  0.89005667  1
  P  P232  1  0.94461376  0.41713509  0.13869525  1
  P  P233  1  0.94491683  0.41732774  0.39067848  1
  P  P234  1  0.94559990  0.41580456  0.63945546  1
  P  P235  1  0.94410689  0.41548662  0.88922151  1
  P  P236  1  0.94516949  0.75008412  0.14064830  1
  P  P237  1  0.94486389  0.74948805  0.38907573  1
  P  P238  1  0.94751669  0.75003995  0.64066641  1
  P  P239  1  0.94710329  0.75144113  0.88838267  1
  P  P240  1  0.19792884  0.08287301  0.23486764  1
  P  P241  1  0.19729376  0.08368903  0.48525011  1
  P  P242  1  0.19687789  0.08274866  0.73663910  1
  P  P243  1  0.19748966  0.08418088  0.98426240  1
  P  P244  1  0.19676640  0.41632136  0.23504740  1
  P  P245  1  0.19622818  0.41656016  0.48602149  1
  P  P246  1  0.19769566  0.41690753  0.73415693  1
  P  P247  1  0.19673050  0.41588451  0.98476673  1
  P  P248  1  0.19700519  0.75081263  0.23481410  1
  P  P249  1  0.19764913  0.74959447  0.48621311  1
  P  P250  1  0.19635685  0.75076200  0.73589328  1
  P  P251  1  0.19723535  0.74986336  0.98427172  1
  P  P252  1  0.69673208  0.08303693  0.23379911  1
  P  P253  1  0.69611047  0.08412586  0.48558322  1
  P  P254  1  0.69493185  0.08252409  0.73713511  1
  P  P255  1  0.69434163  0.08404867  0.98517771  1
  P  P256  1  0.69459548  0.41700872  0.23643333  1
  P  P257  1  0.69538825  0.41593751  0.48620841  1
  P  P258  1  0.69727887  0.41625211  0.73462581  1
  P  P259  1  0.69787596  0.41627381  0.98480741  1
  P  P260  1  0.69602659  0.74984667  0.23617777  1
  P  P261  1  0.69529364  0.75010103  0.48449250  1
  P  P262  1  0.69623144  0.75095211  0.73654285  1
  P  P263  1  0.69596348  0.74960211  0.98387450  1
  P  P264  1  0.30318209  0.24898190  0.01532797  1
  P  P265  1  0.30376117  0.24895910  0.26384335  1
  P  P266  1  0.30457628  0.25015903  0.51610745  1
  P  P267  1  0.30540616  0.25046043  0.76369561  1
  P  P268  1  0.30545769  0.58443188  0.01427766  1
  P  P269  1  0.30527203  0.58314065  0.26497819  1
  P  P270  1  0.30645339  0.58403287  0.51428671  1
  P  P271  1  0.30604421  0.58273769  0.76402195  1
  P  P272  1  0.30503132  0.91702251  0.01306590  1
  P  P273  1  0.30205415  0.91782728  0.26486311  1
  P  P274  1  0.30496630  0.91569377  0.51605330  1
  P  P275  1  0.30449994  0.91667308  0.76467598  1
  P  P276  1  0.80319969  0.25031006  0.01366644  1
  P  P277  1  0.80111804  0.24867620  0.26456609  1
  P  P278  1  0.80227379  0.25068868  0.51571423  1
  P  P279  1  0.80418844  0.25060197  0.76443328  1
  P  P280  1  0.80371316  0.58247396  0.01568675  1
  P  P281  1  0.80343565  0.58411151  0.26468560  1
  P  P282  1  0.80386027  0.58265061  0.51401629  1
  P  P283  1  0.80335355  0.58367524  0.76454636  1
  P  P284  1  0.80558117  0.91637394  0.01405447  1
  P  P285  1  0.80292135  0.91702729  0.26328453  1
  P  P286  1  0.80245475  0.91683988  0.51569781  1
  P  P287  1  0.80271810  0.91603977  0.76605829  1
  O  O288  1  0.05994873  0.24976037  0.18710751  1
  O  O289  1  0.05682614  0.25012621  0.43582303  1
  O  O290  1  0.05564487  0.25070584  0.68691842  1
  O  O291  1  0.05867298  0.24965714  0.93802508  1
  O  O292  1  0.05531575  0.58328477  0.18635657  1
  O  O293  1  0.05624776  0.58321111  0.43662332  1
  O  O294  1  0.05716453  0.58304268  0.68704648  1
  O  O295  1  0.05651747  0.58343198  0.93655607  1
  O  O296  1  0.05847885  0.91690170  0.18784651  1
  O  O297  1  0.05795468  0.91659965  0.43623005  1
  O  O298  1  0.05971008  0.91646051  0.68809856  1
  O  O299  1  0.05637064  0.91689158  0.93647659  1
  O  O300  1  0.55871329  0.24937080  0.18688603  1
  O  O301  1  0.55949336  0.24967809  0.43750786  1
  O  O302  1  0.55903429  0.25001199  0.68810432  1
  O  O303  1  0.55974321  0.25039492  0.93762239  1
  O  O304  1  0.55861734  0.58358949  0.18731252  1
  O  O305  1  0.55596949  0.58370855  0.43625881  1
  O  O306  1  0.55561079  0.58328704  0.68741540  1
  O  O307  1  0.55551441  0.58388459  0.93694255  1
  O  O308  1  0.55947226  0.91683989  0.18758207  1
  O  O309  1  0.55583043  0.91673016  0.43579095  1
  O  O310  1  0.55770791  0.91656076  0.68850707  1
  O  O311  1  0.55586400  0.91652923  0.93652677  1
  O  O312  1  0.44148630  0.08401384  0.06250249  1
  O  O313  1  0.44174001  0.08330343  0.31177093  1
  O  O314  1  0.44394073  0.08367370  0.56410477  1
  O  O315  1  0.44107031  0.08323658  0.81283378  1
  O  O316  1  0.44363976  0.41553536  0.06310425  1
  O  O317  1  0.44498333  0.41616462  0.31309746  1
  O  O318  1  0.44517093  0.41596112  0.56399814  1
  O  O319  1  0.44190398  0.41603860  0.81233420  1
  O  O320  1  0.44108981  0.75071029  0.06183776  1
  O  O321  1  0.44433468  0.75042987  0.31346914  1
  O  O322  1  0.44136267  0.75036765  0.56284163  1
  O  O323  1  0.44107065  0.75067899  0.81248943  1
  O  O324  1  0.94269014  0.08369039  0.06395439  1
  O  O325  1  0.94011461  0.08350625  0.31205789  1
  O  O326  1  0.94362671  0.08346347  0.56344262  1
  O  O327  1  0.94442057  0.08337304  0.81332807  1
  O  O328  1  0.94075656  0.41603807  0.06191602  1
  O  O329  1  0.94189684  0.41636378  0.31380008  1
  O  O330  1  0.94069063  0.41624050  0.56279166  1
  O  O331  1  0.94015252  0.41627320  0.81240731  1
  O  O332  1  0.94315476  0.75009026  0.06381530  1
  O  O333  1  0.94006920  0.75034800  0.31235459  1
  O  O334  1  0.94320647  0.75029802  0.56395666  1
  O  O335  1  0.94206847  0.75049412  0.81174426  1
  O  O336  1  0.19362073  0.08326011  0.06094754  1
  O  O337  1  0.19465556  0.08297177  0.31158988  1
  O  O338  1  0.19402216  0.08388384  0.56207806  1
  O  O339  1  0.19172921  0.08356347  0.81325587  1
  O  O340  1  0.19355478  0.41687369  0.06153227  1
  O  O341  1  0.19368262  0.41730712  0.31185009  1
  O  O342  1  0.19126775  0.41671788  0.56271451  1
  O  O343  1  0.19330027  0.41685405  0.81087953  1
  O  O344  1  0.19306242  0.74969229  0.06096843  1
  O  O345  1  0.19407670  0.74969370  0.31164717  1
  O  O346  1  0.19278181  0.74901456  0.56290276  1
  O  O347  1  0.19135790  0.75015006  0.81259805  1
  O  O348  1  0.69050455  0.08319882  0.06194057  1
  O  O349  1  0.69375796  0.08295242  0.31055917  1
  O  O350  1  0.69295590  0.08342277  0.56239507  1
  O  O351  1  0.69107394  0.08201762  0.81387469  1
  O  O352  1  0.69403733  0.41689888  0.06155477  1
  O  O353  1  0.69114182  0.41747555  0.31324885  1
  O  O354  1  0.69080137  0.41725618  0.56290785  1
  O  O355  1  0.69377812  0.41698705  0.81134960  1
  O  O356  1  0.69285810  0.74991949  0.06071822  1
  O  O357  1  0.69149180  0.74966087  0.31281921  1
  O  O358  1  0.69188534  0.74988160  0.56133021  1
  O  O359  1  0.69084731  0.75008751  0.81315360  1
  O  O360  1  0.30855513  0.24996844  0.18722544  1
  O  O361  1  0.30760344  0.25059327  0.43926216  1
  O  O362  1  0.30970159  0.25054727  0.68702985  1
  O  O363  1  0.30708022  0.24984672  0.93857938  1
  O  O364  1  0.30957136  0.58285201  0.18813733  1
  O  O365  1  0.31077491  0.58304073  0.43750667  1
  O  O366  1  0.30959899  0.58239608  0.68715766  1
  O  O367  1  0.30925812  0.58368143  0.93739789  1
  O  O368  1  0.30572464  0.91698480  0.18811717  1
  O  O369  1  0.30774395  0.91617657  0.43923257  1
  O  O370  1  0.30864843  0.91678051  0.68794731  1
  O  O371  1  0.30882011  0.91690673  0.93631335  1
  O  O372  1  0.80513586  0.24949763  0.18789149  1
  O  O373  1  0.80563305  0.25004520  0.43900384  1
  O  O374  1  0.80862636  0.24978070  0.68772712  1
  O  O375  1  0.80806060  0.24907840  0.93698438  1
  O  O376  1  0.80792642  0.58361625  0.18795984  1
  O  O377  1  0.80752514  0.58324663  0.43725905  1
  O  O378  1  0.80606237  0.58412614  0.68775769  1
  O  O379  1  0.80665921  0.58365222  0.93884257  1
  O  O380  1  0.80726432  0.91661975  0.18655965  1
  O  O381  1  0.80571815  0.91667676  0.43889088  1
  O  O382  1  0.80646618  0.91672826  0.68933166  1
  O  O383  1  0.81028151  0.91665570  0.93735782  1
  O  O384  1  0.23302145  0.24929045  0.03948217  1
  O  O385  1  0.23347163  0.24934775  0.28781763  1
  O  O386  1  0.23492542  0.24980664  0.54132756  1
  O  O387  1  0.23532094  0.25039410  0.78784879  1
  O  O388  1  0.23545967  0.58318263  0.03871259  1
  O  O389  1  0.23524816  0.58354604  0.28910952  1
  O  O390  1  0.23638341  0.58334712  0.53839688  1
  O  O391  1  0.23603827  0.58356704  0.78847754  1
  O  O392  1  0.23504663  0.91713212  0.03758418  1
  O  O393  1  0.23230577  0.91728805  0.29008725  1
  O  O394  1  0.23533415  0.91640125  0.54137900  1
  O  O395  1  0.23416954  0.91679445  0.78864111  1
  O  O396  1  0.73283633  0.25005435  0.03738852  1
  O  O397  1  0.73104223  0.24938228  0.28898856  1
  O  O398  1  0.73225929  0.25048692  0.54050699  1
  O  O399  1  0.73366030  0.24985728  0.78780951  1
  O  O400  1  0.73408969  0.58351882  0.04106283  1
  O  O401  1  0.73306227  0.58330671  0.28849734  1
  O  O402  1  0.73392833  0.58333267  0.53870383  1
  O  O403  1  0.73377573  0.58275501  0.79017223  1
  O  O404  1  0.73521997  0.91632860  0.03731371  1
  O  O405  1  0.73264389  0.91699035  0.28743717  1
  O  O406  1  0.73275540  0.91684793  0.54079826  1
  O  O407  1  0.73263460  0.91626249  0.79058069  1
  O  O408  1  0.26776071  0.08319452  0.20949223  1
  O  O409  1  0.26702049  0.08365907  0.46036460  1
  O  O410  1  0.26741758  0.08281691  0.71341140  1
  O  O411  1  0.26767686  0.08381228  0.95998765  1
  O  O412  1  0.26647416  0.41608669  0.20986995  1
  O  O413  1  0.26644476  0.41646761  0.46230771  1
  O  O414  1  0.26801275  0.41672746  0.71042477  1
  O  O415  1  0.26648159  0.41614794  0.95974884  1
  O  O416  1  0.26661719  0.75055051  0.20946332  1
  O  O417  1  0.26797082  0.75004303  0.46245016  1
  O  O418  1  0.26703898  0.74992311  0.71309554  1
  O  O419  1  0.26743748  0.75045210  0.96016647  1
  O  O420  1  0.76658809  0.08304408  0.20849443  1
  O  O421  1  0.76563974  0.08377749  0.46011631  1
  O  O422  1  0.76490819  0.08336009  0.71265357  1
  O  O423  1  0.76447290  0.08341239  0.96108352  1
  O  O424  1  0.76450043  0.41643594  0.21174348  1
  O  O425  1  0.76566186  0.41597233  0.46224065  1
  O  O426  1  0.76738481  0.41681345  0.71016224  1
  O  O427  1  0.76779743  0.41600206  0.96011893  1
  O  O428  1  0.76630424  0.75027062  0.21204700  1
  O  O429  1  0.76504969  0.75023314  0.45974505  1
  O  O430  1  0.76663562  0.75097892  0.71286640  1
  O  O431  1  0.76585137  0.74946826  0.95942568  1
  O  O432  1  0.01539830  0.08319770  0.16560707  1
  O  O433  1  0.01529259  0.08331683  0.41253193  1
  O  O434  1  0.01632363  0.08445000  0.66546391  1
  O  O435  1  0.01786310  0.08266678  0.91525828  1
  O  O436  1  0.01452427  0.41706890  0.16323224  1
  O  O437  1  0.01463563  0.41672530  0.41566058  1
  O  O438  1  0.01594261  0.41656670  0.66336212  1
  O  O439  1  0.01420758  0.41644359  0.91329965  1
  O  O440  1  0.01471144  0.74983614  0.16642799  1
  O  O441  1  0.01497444  0.74989815  0.41306155  1
  O  O442  1  0.01781747  0.74955927  0.66444309  1
  O  O443  1  0.01743762  0.75117317  0.91227023  1
  O  O444  1  0.51645071  0.08405201  0.16291626  1
  O  O445  1  0.51603153  0.08313429  0.41289105  1
  O  O446  1  0.51543800  0.08343085  0.66667758  1
  O  O447  1  0.51643239  0.08283197  0.91279050  1
  O  O448  1  0.51635153  0.41614613  0.16499006  1
  O  O449  1  0.51886545  0.41761088  0.41439412  1
  O  O450  1  0.51785399  0.41633035  0.66613220  1
  O  O451  1  0.51570049  0.41711051  0.91365052  1
  O  O452  1  0.51520504  0.74963058  0.16268210  1
  O  O453  1  0.51759776  0.74974923  0.41526310  1
  O  O454  1  0.51400245  0.74934316  0.66463924  1
  O  O455  1  0.51574500  0.75082757  0.91335704  1
  O  O456  1  0.48380581  0.24949864  0.08620102  1
  O  O457  1  0.48583796  0.25028657  0.33623116  1
  O  O458  1  0.48407465  0.25027410  0.58744331  1
  O  O459  1  0.48582154  0.24942345  0.83704456  1
  O  O460  1  0.48266553  0.58339207  0.08754776  1
  O  O461  1  0.48316061  0.58351509  0.33437227  1
  O  O462  1  0.48185319  0.58295024  0.58624894  1
  O  O463  1  0.48161578  0.58403305  0.83588617  1
  O  O464  1  0.48467945  0.91752846  0.08711727  1
  O  O465  1  0.48442654  0.91617009  0.33285657  1
  O  O466  1  0.48198252  0.91672741  0.58853652  1
  O  O467  1  0.48212422  0.91615757  0.83544815  1
  O  O468  1  0.98501020  0.24964031  0.08695106  1
  O  O469  1  0.98378605  0.25090110  0.33417381  1
  O  O470  1  0.98158694  0.25047859  0.58552666  1
  O  O471  1  0.98307754  0.24963295  0.83793426  1
  O  O472  1  0.98109906  0.58411691  0.08527823  1
  O  O473  1  0.98122400  0.58291378  0.33612353  1
  O  O474  1  0.98424872  0.58360053  0.58526305  1
  O  O475  1  0.98386245  0.58351274  0.83463336  1
  O  O476  1  0.98270138  0.91631661  0.08797275  1
  O  O477  1  0.98415344  0.91635531  0.33533571  1
  O  O478  1  0.98526305  0.91614003  0.58696945  1
  O  O479  1  0.98370920  0.91707748  0.83440897  1
  O  O480  1  0.08860744  0.31496879  0.07692844  1
  O  O481  1  0.08804838  0.31542979  0.32672606  1
  O  O482  1  0.08517386  0.31652494  0.57764160  1
  O  O483  1  0.08687891  0.31391848  0.82754929  1
  O  O484  1  0.08531262  0.64861026  0.07713996  1
  O  O485  1  0.08506056  0.64805900  0.32681763  1
  O  O486  1  0.08821655  0.64834674  0.57796737  1
  O  O487  1  0.08762260  0.64915030  0.82768246  1
  O  O488  1  0.08632738  0.98142533  0.07748275  1
  O  O489  1  0.08804318  0.98144710  0.32643690  1
  O  O490  1  0.08889303  0.98077272  0.57822469  1
  O  O491  1  0.08784621  0.98235267  0.82744870  1
  O  O492  1  0.58794008  0.31380456  0.07674995  1
  O  O493  1  0.58929059  0.31612503  0.32827532  1
  O  O494  1  0.58770129  0.31602279  0.57852501  1
  O  O495  1  0.58979433  0.31387695  0.82723177  1
  O  O496  1  0.58635705  0.64818811  0.07704797  1
  O  O497  1  0.58689393  0.64912255  0.32686590  1
  O  O498  1  0.58581692  0.64733804  0.57768783  1
  O  O499  1  0.58495642  0.65001936  0.82745196  1
  O  O500  1  0.58800773  0.98293251  0.07797037  1
  O  O501  1  0.58888676  0.98015532  0.32640163  1
  O  O502  1  0.58545579  0.98168824  0.57826816  1
  O  O503  1  0.58610202  0.98135304  0.82690153  1
  O  O504  1  0.41227617  0.02002009  0.17287595  1
  O  O505  1  0.41252422  0.01807523  0.42139265  1
  O  O506  1  0.41110813  0.01902841  0.67321537  1
  O  O507  1  0.41290654  0.01709508  0.92262726  1
  O  O508  1  0.41314966  0.35021485  0.17240200  1
  O  O509  1  0.41532193  0.35235322  0.42309214  1
  O  O510  1  0.41388955  0.35109347  0.67344301  1
  O  O511  1  0.41235949  0.35197035  0.92239882  1
  O  O512  1  0.41156259  0.68463597  0.17126629  1
  O  O513  1  0.41373607  0.68408532  0.42230995  1
  O  O514  1  0.40995713  0.68481662  0.67205181  1
  O  O515  1  0.41195014  0.68545508  0.92225800  1
  O  O516  1  0.91156128  0.01739353  0.17279298  1
  O  O517  1  0.91175367  0.01839984  0.42212448  1
  O  O518  1  0.91275357  0.01914156  0.67301525  1
  O  O519  1  0.91383011  0.01772307  0.92206773  1
  O  O520  1  0.91100699  0.35217301  0.17216634  1
  O  O521  1  0.91030701  0.35246706  0.42322496  1
  O  O522  1  0.91225911  0.35072417  0.67275190  1
  O  O523  1  0.91095098  0.35010479  0.92217691  1
  O  O524  1  0.91041515  0.68512170  0.17267487  1
  O  O525  1  0.91160765  0.68412360  0.42186660  1
  O  O526  1  0.91341605  0.68514130  0.67349961  1
  O  O527  1  0.91366402  0.68646510  0.92199569  1
  O  O528  1  0.16411449  0.01767010  0.20216057  1
  O  O529  1  0.16334617  0.01852791  0.45292710  1
  O  O530  1  0.16381593  0.01756277  0.70351764  1
  O  O531  1  0.16341778  0.01928110  0.95121497  1
  O  O532  1  0.16251034  0.35113703  0.20317722  1
  O  O533  1  0.16275665  0.35147673  0.45302500  1
  O  O534  1  0.16366407  0.35200457  0.70121751  1
  O  O535  1  0.16294112  0.35045495  0.95266607  1
  O  O536  1  0.16282049  0.68576949  0.20215239  1
  O  O537  1  0.16455363  0.68464641  0.45232512  1
  O  O538  1  0.16301190  0.68600181  0.70194997  1
  O  O539  1  0.16372320  0.68482276  0.95114865  1
  O  O540  1  0.66239048  0.01815135  0.20125101  1
  O  O541  1  0.66175357  0.01927984  0.45286022  1
  O  O542  1  0.66176785  0.01721126  0.70400202  1
  O  O543  1  0.66041269  0.01914635  0.95187005  1
  O  O544  1  0.66079723  0.35181830  0.20381551  1
  O  O545  1  0.66186556  0.35073414  0.45363454  1
  O  O546  1  0.66360280  0.35096878  0.70219108  1
  O  O547  1  0.66368618  0.35141562  0.95238299  1
  O  O548  1  0.66303899  0.68449671  0.20282451  1
  O  O549  1  0.66125381  0.68499268  0.45183772  1
  O  O550  1  0.66315484  0.68586228  0.70270702  1
  O  O551  1  0.66163251  0.68468851  0.95153951  1
  O  O552  1  0.33722351  0.31372163  0.04861804  1
  O  O553  1  0.33720667  0.31378219  0.29779746  1
  O  O554  1  0.33895072  0.31514468  0.54861241  1
  O  O555  1  0.33884400  0.31557301  0.79686386  1
  O  O556  1  0.33846281  0.65002234  0.04677235  1
  O  O557  1  0.33937523  0.64808441  0.29777118  1
  O  O558  1  0.33971778  0.64930433  0.54706909  1
  O  O559  1  0.34006569  0.64785346  0.79669720  1
  O  O560  1  0.33864927  0.98225481  0.04590570  1
  O  O561  1  0.33615062  0.98296681  0.29698233  1
  O  O562  1  0.33956657  0.98056895  0.54857079  1
  O  O563  1  0.33831968  0.98147037  0.79797050  1
  O  O564  1  0.83630941  0.31545064  0.04683019  1
  O  O565  1  0.83496275  0.31356563  0.29776546  1
  O  O566  1  0.83626857  0.31583416  0.54818822  1
  O  O567  1  0.83711069  0.31598089  0.79727001  1
  O  O568  1  0.83856227  0.64720430  0.04819512  1
  O  O569  1  0.83656366  0.64935956  0.29777930  1
  O  O570  1  0.83786508  0.64744216  0.54712069  1
  O  O571  1  0.83709551  0.64892291  0.79719664  1
  O  O572  1  0.83889825  0.98135934  0.04754583  1
  O  O573  1  0.83609353  0.98234883  0.29625662  1
  O  O574  1  0.83662224  0.98188284  0.54808561  1
  O  O575  1  0.83677652  0.98102031  0.79905034  1
  O  O576  1  0.41296461  0.15002081  0.17237679  1
  O  O577  1  0.41268122  0.14832733  0.42169475  1
  O  O578  1  0.41192615  0.14921095  0.67310495  1
  O  O579  1  0.41254238  0.14720137  0.92330686  1
  O  O580  1  0.41237322  0.48070103  0.17208313  1
  O  O581  1  0.41481076  0.48241092  0.42196520  1
  O  O582  1  0.41347053  0.48106365  0.67299871  1
  O  O583  1  0.41195800  0.48225556  0.92141718  1
  O  O584  1  0.41202798  0.81488960  0.17213340  1
  O  O585  1  0.41329096  0.81412847  0.42312255  1
  O  O586  1  0.41047967  0.81492818  0.67287904  1
  O  O587  1  0.41183556  0.81559014  0.92244000  1
  O  O588  1  0.91105391  0.14744003  0.17350319  1
  O  O589  1  0.91187449  0.14870188  0.42187661  1
  O  O590  1  0.91224531  0.14932062  0.67227608  1
  O  O591  1  0.91392838  0.14791336  0.92289447  1
  O  O592  1  0.91086323  0.48242210  0.17107172  1
  O  O593  1  0.91082133  0.48250018  0.42280315  1
  O  O594  1  0.91183325  0.48071224  0.67290315  1
  O  O595  1  0.90986810  0.48024530  0.92228912  1
  O  O596  1  0.91079385  0.81523521  0.17288973  1
  O  O597  1  0.91141135  0.81447825  0.42255674  1
  O  O598  1  0.91392574  0.81504532  0.67389083  1
  O  O599  1  0.91389118  0.81657932  0.92139126  1
  O  O600  1  0.08895536  0.18497210  0.07709547  1
  O  O601  1  0.08770683  0.18543550  0.32628607  1
  O  O602  1  0.08579050  0.18632572  0.57742506  1
  O  O603  1  0.08649544  0.18375014  0.82809718  1
  O  O604  1  0.08477108  0.51857756  0.07656187  1
  O  O605  1  0.08497695  0.51798436  0.32688204  1
  O  O606  1  0.08764324  0.51781281  0.57784087  1
  O  O607  1  0.08773570  0.51888547  0.82722957  1
  O  O608  1  0.08638175  0.85141769  0.07776899  1
  O  O609  1  0.08822992  0.85146078  0.32676293  1
  O  O610  1  0.08857356  0.85017914  0.57873609  1
  O  O611  1  0.08816297  0.85233604  0.82713128  1
  O  O612  1  0.58748894  0.18382268  0.07712204  1
  O  O613  1  0.58964847  0.18595689  0.32704918  1
  O  O614  1  0.58800174  0.18596864  0.57773432  1
  O  O615  1  0.58927448  0.18373496  0.82824142  1
  O  O616  1  0.58598744  0.51810957  0.07712561  1
  O  O617  1  0.58756341  0.51905771  0.32694498  1
  O  O618  1  0.58554622  0.51726928  0.57828292  1
  O  O619  1  0.58581938  0.51985362  0.82734866  1
  O  O620  1  0.58820471  0.85272104  0.07732090  1
  O  O621  1  0.58798825  0.85003189  0.32738504  1
  O  O622  1  0.58553256  0.85158983  0.57844570  1
  O  O623  1  0.58626377  0.85137631  0.82695829  1
  O  O624  1  0.33698967  0.18376341  0.04775563  1
  O  O625  1  0.33703604  0.18365708  0.29665949  1
  O  O626  1  0.33925539  0.18533652  0.54828505  1
  O  O627  1  0.33884212  0.18529423  0.79693143  1
  O  O628  1  0.33994640  0.51981611  0.04745876  1
  O  O629  1  0.33899131  0.51816161  0.29818965  1
  O  O630  1  0.34046340  0.51920075  0.54778448  1
  O  O631  1  0.33934297  0.51751462  0.79701453  1
  O  O632  1  0.33852061  0.85194562  0.04612839  1
  O  O633  1  0.33627901  0.85288636  0.29769149  1
  O  O634  1  0.33888411  0.85045742  0.54825130  1
  O  O635  1  0.33783178  0.85144214  0.79778001  1
  O  O636  1  0.83652033  0.18538045  0.04730266  1
  O  O637  1  0.83451784  0.18339728  0.29711377  1
  O  O638  1  0.83634638  0.18589381  0.54885193  1
  O  O639  1  0.83783037  0.18588802  0.79839487  1
  O  O640  1  0.83739177  0.51697470  0.04760431  1
  O  O641  1  0.83721681  0.51922552  0.29802942  1
  O  O642  1  0.83720659  0.51722005  0.54658221  1
  O  O643  1  0.83803997  0.51861309  0.79623893  1
  O  O644  1  0.83881925  0.85127049  0.04734796  1
  O  O645  1  0.83624089  0.85209330  0.29685721  1
  O  O646  1  0.83652667  0.85177319  0.54822794  1
  O  O647  1  0.83696049  0.85110217  0.79851156  1
  O  O648  1  0.16369628  0.14786504  0.20240222  1
  O  O649  1  0.16319833  0.14866049  0.45271876  1
  O  O650  1  0.16390862  0.14781984  0.70277802  1
  O  O651  1  0.16366745  0.14931528  0.95167295  1
  O  O652  1  0.16294127  0.48149156  0.20216129  1
  O  O653  1  0.16302240  0.48165039  0.45251360  1
  O  O654  1  0.16410611  0.48197370  0.70117944  1
  O  O655  1  0.16265603  0.48084869  0.95202782  1
  O  O656  1  0.16303186  0.81619807  0.20290700  1
  O  O657  1  0.16401309  0.81462124  0.45331450  1
  O  O658  1  0.16367027  0.81611382  0.70265208  1
  O  O659  1  0.16317695  0.81488407  0.95148805  1
  O  O660  1  0.66247377  0.14816584  0.20142061  1
  O  O661  1  0.66214518  0.14944777  0.45360604  1
  O  O662  1  0.66103607  0.14767466  0.70448608  1
  O  O663  1  0.66091423  0.14919815  0.95250971  1
  O  O664  1  0.66138173  0.48228631  0.20335152  1
  O  O665  1  0.66195503  0.48083494  0.45228190  1
  O  O666  1  0.66291587  0.48096394  0.70164924  1
  O  O667  1  0.66435914  0.48152953  0.95188491  1
  O  O668  1  0.66250468  0.81479445  0.20281799  1
  O  O669  1  0.66091492  0.81496442  0.45206569  1
  O  O670  1  0.66274969  0.81612216  0.70354713  1
  O  O671  1  0.66187419  0.81462201  0.95122489  1
