# generated using pymatgen
data_Na2MnFe(PO4)2
_symmetry_space_group_name_H-M   'P 1'
_cell_length_a   21.07841854
_cell_length_b   18.92922599
_cell_length_c   20.03780426
_cell_angle_alpha   90.00005804
_cell_angle_beta   90.00134258
_cell_angle_gamma   89.99956361
_symmetry_Int_Tables_number   1
_chemical_formula_structural   Na2MnFe(PO4)2
_chemical_formula_sum   'Na96 Mn48 Fe48 P96 O384'
_cell_volume   7995.04678612
_cell_formula_units_Z   48
loop_
 _symmetry_equiv_pos_site_id
 _symmetry_equiv_pos_as_xyz
  1  'x, y, z'
loop_
 _atom_site_type_symbol
 _atom_site_label
 _atom_site_symmetry_multiplicity
 _atom_site_fract_x
 _atom_site_fract_y
 _atom_site_fract_z
 _atom_site_occupancy
  Na  Na0  1  -0.00118569  -0.00016085  0.00022242  1
  Na  Na1  1  -0.00261260  -0.00091675  0.24920285  1
  Na  Na2  1  0.00083184  0.00035369  0.49962092  1
  Na  Na3  1  0.00302697  0.00150962  0.75004971  1
  Na  Na4  1  0.00004034  0.33308432  0.00132813  1
  Na  Na5  1  -0.00072926  0.33259674  0.25069776  1
  Na  Na6  1  -0.00029979  0.33363784  0.49913517  1
  Na  Na7  1  -0.00004481  0.33308883  0.74971766  1
  Na  Na8  1  -0.00107957  0.66629377  0.00075540  1
  Na  Na9  1  0.00050366  0.66623132  0.24975790  1
  Na  Na10  1  0.00298206  0.66737780  0.49976198  1
  Na  Na11  1  -0.00058250  0.66631077  0.75022466  1
  Na  Na12  1  0.49863517  -0.00053346  0.00095604  1
  Na  Na13  1  0.49892831  0.00015909  0.24973002  1
  Na  Na14  1  0.49940460  0.00043564  0.49880793  1
  Na  Na15  1  0.49928353  -0.00043092  0.75001146  1
  Na  Na16  1  0.50251129  0.33384279  -0.00013050  1
  Na  Na17  1  0.49813917  0.33310420  0.24980841  1
  Na  Na18  1  0.49783098  0.33311671  0.50034334  1
  Na  Na19  1  0.50027046  0.33262524  0.74931702  1
  Na  Na20  1  0.49952033  0.66623573  0.00004396  1
  Na  Na21  1  0.49826143  0.66590086  0.25066398  1
  Na  Na22  1  0.49906200  0.66629546  0.49939764  1
  Na  Na23  1  0.50130090  0.66667082  0.75011208  1
  Na  Na24  1  0.25113988  0.00080754  0.12392601  1
  Na  Na25  1  0.25180374  0.00116624  0.37616564  1
  Na  Na26  1  0.24796777  -0.00056107  0.62483794  1
  Na  Na27  1  0.24776387  -0.00030389  0.87532635  1
  Na  Na28  1  0.24802081  0.33265299  0.12390247  1
  Na  Na29  1  0.25125021  0.33410576  0.37595291  1
  Na  Na30  1  0.25038367  0.33340860  0.62604096  1
  Na  Na31  1  0.24874639  0.33310897  0.87494300  1
  Na  Na32  1  0.25197304  0.66735250  0.12537715  1
  Na  Na33  1  0.24905166  0.66553973  0.37404476  1
  Na  Na34  1  0.25075189  0.66720192  0.62622981  1
  Na  Na35  1  0.25037755  0.66670018  0.87426531  1
  Na  Na36  1  0.75291185  0.00069275  0.12514219  1
  Na  Na37  1  0.75108604  -0.00011174  0.37521855  1
  Na  Na38  1  0.74915625  -0.00049968  0.62404664  1
  Na  Na39  1  0.75186316  0.00074214  0.87493456  1
  Na  Na40  1  0.75101604  0.33312746  0.12518027  1
  Na  Na41  1  0.75219750  0.33364629  0.37458438  1
  Na  Na42  1  0.75144864  0.33378229  0.62516963  1
  Na  Na43  1  0.74974707  0.33275722  0.87482657  1
  Na  Na44  1  0.75064079  0.66695526  0.12579568  1
  Na  Na45  1  0.74885714  0.66546715  0.37398633  1
  Na  Na46  1  0.74923364  0.66607883  0.62546065  1
  Na  Na47  1  0.74866364  0.66665009  0.87487677  1
  Na  Na48  1  -0.00043870  0.16728917  0.00158717  1
  Na  Na49  1  -0.00158294  0.16766701  0.24975564  1
  Na  Na50  1  0.00114012  0.16704103  0.49823047  1
  Na  Na51  1  0.00030046  0.16758364  0.75053080  1
  Na  Na52  1  0.00083921  0.49953652  0.00087048  1
  Na  Na53  1  0.00072431  0.50001032  0.25138385  1
  Na  Na54  1  0.00108652  0.49976514  0.49862135  1
  Na  Na55  1  0.00238807  0.49849175  0.74914551  1
  Na  Na56  1  -0.00189797  0.83320883  -0.00022888  1
  Na  Na57  1  -0.00056126  0.83267256  0.24885987  1
  Na  Na58  1  -0.00031624  0.83373110  0.50140447  1
  Na  Na59  1  0.00052990  0.83261718  0.75031495  1
  Na  Na60  1  0.50052872  0.16732504  -0.00030847  1
  Na  Na61  1  0.49861825  0.16769820  0.24998178  1
  Na  Na62  1  0.49806961  0.16779906  0.49948947  1
  Na  Na63  1  0.50060445  0.16726417  0.75078474  1
  Na  Na64  1  0.50100505  0.49975483  -0.00054605  1
  Na  Na65  1  0.49825074  0.49999935  0.25109656  1
  Na  Na66  1  0.49956849  0.49964119  0.49969064  1
  Na  Na67  1  0.50208282  0.49945114  0.75001150  1
  Na  Na68  1  0.49940107  0.83326934  0.00158501  1
  Na  Na69  1  0.49819891  0.83356451  0.24909715  1
  Na  Na70  1  0.49746810  0.83360689  0.49920728  1
  Na  Na71  1  0.49952559  0.83274269  0.74900693  1
  Na  Na72  1  0.24903007  0.16774268  0.12415027  1
  Na  Na73  1  0.24998519  0.16738810  0.37601843  1
  Na  Na74  1  0.24954440  0.16732453  0.62591244  1
  Na  Na75  1  0.24939330  0.16705199  0.87436339  1
  Na  Na76  1  0.25009326  0.49933227  0.12412296  1
  Na  Na77  1  0.24945552  0.49990382  0.37508037  1
  Na  Na78  1  0.24955591  0.49961664  0.62622843  1
  Na  Na79  1  0.24795045  0.50029132  0.87505433  1
  Na  Na80  1  0.25156943  0.83253820  0.12494371  1
  Na  Na81  1  0.25278071  0.83190891  0.37502185  1
  Na  Na82  1  0.24951655  0.83352576  0.62518704  1
  Na  Na83  1  0.24920296  0.83343820  0.87512470  1
  Na  Na84  1  0.75263589  0.16681490  0.12514786  1
  Na  Na85  1  0.75310632  0.16651871  0.37463139  1
  Na  Na86  1  0.75139699  0.16778478  0.62446140  1
  Na  Na87  1  0.75114866  0.16777770  0.87460815  1
  Na  Na88  1  0.75101143  0.49918906  0.12589895  1
  Na  Na89  1  0.74986752  0.49967209  0.37399286  1
  Na  Na90  1  0.74803774  0.49976567  0.62554587  1
  Na  Na91  1  0.74650996  0.50142359  0.87531117  1
  Na  Na92  1  0.75080356  0.83333468  0.12506050  1
  Na  Na93  1  0.74981029  0.83383499  0.37494218  1
  Na  Na94  1  0.75131084  0.83216184  0.62476862  1
  Na  Na95  1  0.75070773  0.83270601  0.87521760  1
  Mn  Mn96  1  0.10783191  0.74959036  0.62251586  1
  Mn  Mn97  1  0.60741587  0.41629406  0.62209786  1
  Mn  Mn98  1  0.10829133  0.41692490  0.37248007  1
  Mn  Mn99  1  0.10769932  0.74985376  0.12244364  1
  Mn  Mn100  1  0.60849071  0.08292159  0.87292722  1
  Mn  Mn101  1  0.89313946  0.58379426  0.37794173  1
  Mn  Mn102  1  0.39116302  0.58288580  0.37787441  1
  Mn  Mn103  1  0.35739537  0.08367132  0.50309026  1
  Mn  Mn104  1  0.60664517  0.75005964  0.37270256  1
  Mn  Mn105  1  0.64298785  0.24924903  0.24848300  1
  Mn  Mn106  1  0.35789003  0.75052080  0.75295309  1
  Mn  Mn107  1  0.85808253  0.74853292  0.50177768  1
  Mn  Mn108  1  0.60799729  0.41673178  0.12364463  1
  Mn  Mn109  1  0.60713811  0.74962169  0.12301545  1
  Mn  Mn110  1  0.60760976  0.75035047  0.62220807  1
  Mn  Mn111  1  0.89227209  0.58278231  0.62669944  1
  Mn  Mn112  1  0.89274630  0.91705891  0.87679596  1
  Mn  Mn113  1  0.60857342  0.08377905  0.12298846  1
  Mn  Mn114  1  0.14162609  0.58388139  0.74779023  1
  Mn  Mn115  1  0.64209517  0.58338086  0.24746763  1
  Mn  Mn116  1  0.64250570  0.25063968  0.49733110  1
  Mn  Mn117  1  0.85815906  0.75014994  0.25302941  1
  Mn  Mn118  1  0.14260393  0.91710206  0.24777538  1
  Mn  Mn119  1  0.14193255  0.58351265  0.99806892  1
  Mn  Mn120  1  0.14172693  0.91650866  0.99786595  1
  Mn  Mn121  1  0.64177457  0.91692682  0.74797824  1
  Mn  Mn122  1  0.35720971  0.08300515  0.75258597  1
  Mn  Mn123  1  0.39159656  0.25076616  0.12665950  1
  Mn  Mn124  1  0.85787584  0.41762403  0.75224123  1
  Mn  Mn125  1  0.85871730  0.08296966  0.75202012  1
  Mn  Mn126  1  0.60735453  0.08397287  0.37219984  1
  Mn  Mn127  1  0.64289752  0.91693601  0.99736035  1
  Mn  Mn128  1  0.10711868  0.08323490  0.12343213  1
  Mn  Mn129  1  0.10776273  0.08244904  0.37173728  1
  Mn  Mn130  1  0.85862023  0.08389351  0.50267996  1
  Mn  Mn131  1  0.35759788  0.41694154  0.00163277  1
  Mn  Mn132  1  0.35729337  0.08352126  0.00150514  1
  Mn  Mn133  1  0.14153666  0.24947249  0.74781784  1
  Mn  Mn134  1  0.85783336  0.41736482  0.00235687  1
  Mn  Mn135  1  0.89281348  0.91745813  0.62782896  1
  Mn  Mn136  1  0.89160426  0.58242906  0.87741075  1
  Mn  Mn137  1  0.39179049  0.91664167  0.12798503  1
  Mn  Mn138  1  0.39335372  0.58303253  0.87732791  1
  Mn  Mn139  1  0.60770756  0.08344918  0.62261246  1
  Mn  Mn140  1  0.64198212  0.91626256  0.49692267  1
  Mn  Mn141  1  0.39140229  0.91693999  0.62769247  1
  Mn  Mn142  1  0.14224297  0.91587171  0.49663688  1
  Mn  Mn143  1  0.35760337  0.41666299  0.75275073  1
  Fe  Fe144  1  0.60750007  0.75034371  0.87394388  1
  Fe  Fe145  1  0.35680318  0.74986350  0.25213815  1
  Fe  Fe146  1  0.14291334  0.25033188  0.24891250  1
  Fe  Fe147  1  0.39142604  0.24994394  0.37667461  1
  Fe  Fe148  1  0.64200541  0.58273178  0.49841620  1
  Fe  Fe149  1  0.64237443  0.58317027  0.99929380  1
  Fe  Fe150  1  0.10677723  0.08345513  0.87379108  1
  Fe  Fe151  1  0.85825284  0.41647968  0.25201566  1
  Fe  Fe152  1  0.14317894  0.25085849  0.49853187  1
  Fe  Fe153  1  0.89268837  0.91619251  0.37658172  1
  Fe  Fe154  1  0.64239589  0.58334234  0.74777932  1
  Fe  Fe155  1  0.10742793  0.41591886  0.62258792  1
  Fe  Fe156  1  0.14149506  0.24995144  0.99783799  1
  Fe  Fe157  1  0.39196509  0.91689323  0.87657020  1
  Fe  Fe158  1  0.89190697  0.91622768  0.12702099  1
  Fe  Fe159  1  0.89288237  0.25028177  0.87667871  1
  Fe  Fe160  1  0.35691220  0.41733809  0.50222929  1
  Fe  Fe161  1  0.85716707  0.41742640  0.50153144  1
  Fe  Fe162  1  0.89382645  0.25025152  0.62610516  1
  Fe  Fe163  1  0.39364879  0.24973710  0.87680815  1
  Fe  Fe164  1  0.60661432  0.41600906  0.37350296  1
  Fe  Fe165  1  0.39228590  0.91738659  0.37605776  1
  Fe  Fe166  1  0.10838360  0.75066388  0.37329385  1
  Fe  Fe167  1  0.89303597  0.25075301  0.12710272  1
  Fe  Fe168  1  0.89352878  0.24981357  0.37700584  1
  Fe  Fe169  1  0.10709256  0.74988507  0.87382002  1
  Fe  Fe170  1  0.35783922  0.74978156  0.00076444  1
  Fe  Fe171  1  0.85772615  0.08335692  0.25196326  1
  Fe  Fe172  1  0.35665184  0.74899356  0.50177329  1
  Fe  Fe173  1  0.64333284  0.24999316  0.74797796  1
  Fe  Fe174  1  0.14346329  0.58297228  0.49904758  1
  Fe  Fe175  1  0.14219490  0.91649237  0.74895115  1
  Fe  Fe176  1  0.85695735  0.74955697  0.75186088  1
  Fe  Fe177  1  0.60805229  0.41640188  0.87350165  1
  Fe  Fe178  1  0.10714582  0.41668618  0.12428844  1
  Fe  Fe179  1  0.39258586  0.58276371  0.62657145  1
  Fe  Fe180  1  0.14336968  0.58283565  0.24765690  1
  Fe  Fe181  1  0.35737212  0.08410512  0.25137680  1
  Fe  Fe182  1  0.10750119  0.08436306  0.62309553  1
  Fe  Fe183  1  0.64297038  0.91711298  0.24867477  1
  Fe  Fe184  1  0.35658562  0.41625691  0.25133600  1
  Fe  Fe185  1  0.85842265  0.08330791  0.00152864  1
  Fe  Fe186  1  0.89238601  0.58272935  0.12677735  1
  Fe  Fe187  1  0.39230623  0.25022796  0.62728476  1
  Fe  Fe188  1  0.39219760  0.58267442  0.12631959  1
  Fe  Fe189  1  0.85713069  0.74984558  0.00118929  1
  Fe  Fe190  1  0.10689969  0.41654832  0.87367897  1
  Fe  Fe191  1  0.64387512  0.24990735  0.99825880  1
  P  P192  1  0.05439528  0.25083136  0.11164225  1
  P  P193  1  0.05440056  0.25023321  0.36036970  1
  P  P194  1  0.05331128  0.25027788  0.60901977  1
  P  P195  1  0.05314740  0.25008111  0.86160497  1
  P  P196  1  0.05340113  0.58237721  0.11174305  1
  P  P197  1  0.05638149  0.58435648  0.36062907  1
  P  P198  1  0.05403116  0.58223758  0.60892968  1
  P  P199  1  0.05301226  0.58334093  0.86036821  1
  P  P200  1  0.05159001  0.91660145  0.11008463  1
  P  P201  1  0.05206196  0.91560526  0.35931643  1
  P  P202  1  0.05497793  0.91761164  0.61113603  1
  P  P203  1  0.05389683  0.91657946  0.85996511  1
  P  P204  1  0.55430571  0.25012116  0.10947557  1
  P  P205  1  0.55155100  0.25128628  0.36009646  1
  P  P206  1  0.55302848  0.24995089  0.61058225  1
  P  P207  1  0.55512367  0.25054656  0.86064131  1
  P  P208  1  0.55219622  0.58300094  0.10979989  1
  P  P209  1  0.55402873  0.58197233  0.36126487  1
  P  P210  1  0.55358823  0.58324603  0.61000057  1
  P  P211  1  0.55603044  0.58358075  0.86102760  1
  P  P212  1  0.55464090  0.91699232  0.11125227  1
  P  P213  1  0.55210123  0.91669602  0.35885554  1
  P  P214  1  0.55261385  0.91668614  0.60915827  1
  P  P215  1  0.55181305  0.91580109  0.86037375  1
  P  P216  1  0.44595327  0.08412086  0.14052338  1
  P  P217  1  0.44453675  0.08391057  0.38851469  1
  P  P218  1  0.44634499  0.08441315  0.64047885  1
  P  P219  1  0.44688574  0.08352391  0.88996572  1
  P  P220  1  0.44580602  0.41746018  0.14044815  1
  P  P221  1  0.44477177  0.41571014  0.38961504  1
  P  P222  1  0.44488566  0.41706551  0.63891879  1
  P  P223  1  0.44837980  0.41554469  0.88962355  1
  P  P224  1  0.44420436  0.74853051  0.13952332  1
  P  P225  1  0.44375596  0.75052156  0.38922303  1
  P  P226  1  0.44488417  0.74847540  0.63872652  1
  P  P227  1  0.44761530  0.75063277  0.89055773  1
  P  P228  1  0.94440329  0.08350164  0.13933287  1
  P  P229  1  0.94555530  0.08301162  0.38839574  1
  P  P230  1  0.94860547  0.08488747  0.63975467  1
  P  P231  1  0.94743926  0.08439023  0.89057244  1
  P  P232  1  0.94720553  0.41678749  0.14088994  1
  P  P233  1  0.94537498  0.41612839  0.38940954  1
  P  P234  1  0.94692489  0.41609340  0.63831724  1
  P  P235  1  0.94785589  0.41610614  0.89020591  1
  P  P236  1  0.94481754  0.74938347  0.13864680  1
  P  P237  1  0.94873982  0.75053494  0.39023701  1
  P  P238  1  0.94599824  0.74943448  0.64087301  1
  P  P239  1  0.94594313  0.74954130  0.88942893  1
  P  P240  1  0.19819588  0.08415682  0.23501506  1
  P  P241  1  0.19502645  0.08478521  0.48628612  1
  P  P242  1  0.19431076  0.08266265  0.73576889  1
  P  P243  1  0.19514860  0.08430548  0.98446711  1
  P  P244  1  0.19710373  0.41639740  0.23458524  1
  P  P245  1  0.19661531  0.41654227  0.48661210  1
  P  P246  1  0.19421224  0.41630360  0.73561613  1
  P  P247  1  0.19426063  0.41601999  0.98556754  1
  P  P248  1  0.19671082  0.74965623  0.23597852  1
  P  P249  1  0.19748658  0.74870623  0.48448112  1
  P  P250  1  0.19517251  0.75092611  0.73637153  1
  P  P251  1  0.19745779  0.74960452  0.98445646  1
  P  P252  1  0.69846010  0.08289352  0.23519222  1
  P  P253  1  0.69701327  0.08404625  0.48431968  1
  P  P254  1  0.69729951  0.08447502  0.73468497  1
  P  P255  1  0.69901405  0.08425949  0.98524205  1
  P  P256  1  0.69715986  0.41586067  0.23640984  1
  P  P257  1  0.69695683  0.41698640  0.48405239  1
  P  P258  1  0.69506692  0.41621812  0.73625771  1
  P  P259  1  0.69626701  0.41650119  0.98510187  1
  P  P260  1  0.69637456  0.75099787  0.23517004  1
  P  P261  1  0.69657838  0.74863982  0.48438503  1
  P  P262  1  0.69597458  0.74957224  0.73612808  1
  P  P263  1  0.69714258  0.74928429  0.98513916  1
  P  P264  1  0.30275935  0.25029378  0.01325261  1
  P  P265  1  0.30236221  0.25058641  0.26514288  1
  P  P266  1  0.30388409  0.25110424  0.51511752  1
  P  P267  1  0.30479315  0.25006746  0.76518866  1
  P  P268  1  0.30395523  0.58397017  0.01508466  1
  P  P269  1  0.30345469  0.58244039  0.26347012  1
  P  P270  1  0.30257652  0.58300027  0.51582978  1
  P  P271  1  0.30431878  0.58304082  0.76451538  1
  P  P272  1  0.30444345  0.91587586  0.01370237  1
  P  P273  1  0.30368720  0.91719876  0.26554458  1
  P  P274  1  0.30422885  0.91580554  0.51392570  1
  P  P275  1  0.30207043  0.91700614  0.76606205  1
  P  P276  1  0.80505981  0.24992312  0.01428704  1
  P  P277  1  0.80629896  0.25026624  0.26437792  1
  P  P278  1  0.80570682  0.25155235  0.51436086  1
  P  P279  1  0.80492242  0.25048306  0.76425125  1
  P  P280  1  0.80235017  0.58391987  0.01562733  1
  P  P281  1  0.80516110  0.58242046  0.26411175  1
  P  P282  1  0.80176843  0.58202236  0.51490632  1
  P  P283  1  0.80189872  0.58368063  0.76497984  1
  P  P284  1  0.80454424  0.91653264  0.01512972  1
  P  P285  1  0.80414858  0.91731326  0.26473821  1
  P  P286  1  0.80481218  0.91619009  0.51410145  1
  P  P287  1  0.80329210  0.91582071  0.76487365  1
  O  O288  1  0.05937651  0.25000321  0.18832759  1
  O  O289  1  0.05941281  0.25079407  0.43698983  1
  O  O290  1  0.05614871  0.25033183  0.68588096  1
  O  O291  1  0.05705415  0.25009894  0.93833778  1
  O  O292  1  0.05866347  0.58318742  0.18840886  1
  O  O293  1  0.06069637  0.58328903  0.43738598  1
  O  O294  1  0.05653134  0.58310178  0.68575156  1
  O  O295  1  0.05562642  0.58375823  0.93718431  1
  O  O296  1  0.05600245  0.91656251  0.18674710  1
  O  O297  1  0.05605074  0.91628599  0.43608195  1
  O  O298  1  0.05866397  0.91664870  0.68789985  1
  O  O299  1  0.05591682  0.91622521  0.93682759  1
  O  O300  1  0.55757014  0.24990370  0.18627649  1
  O  O301  1  0.55558025  0.25075288  0.43677800  1
  O  O302  1  0.55849885  0.24995315  0.68719858  1
  O  O303  1  0.56010182  0.24981063  0.93735958  1
  O  O304  1  0.55590956  0.58310050  0.18658988  1
  O  O305  1  0.55830113  0.58262736  0.43800847  1
  O  O306  1  0.55861036  0.58325664  0.68675828  1
  O  O307  1  0.55959668  0.58360421  0.93786722  1
  O  O308  1  0.55941396  0.91728184  0.18795551  1
  O  O309  1  0.55589301  0.91655075  0.43563311  1
  O  O310  1  0.55625264  0.91632346  0.68598332  1
  O  O311  1  0.55589172  0.91649007  0.93712311  1
  O  O312  1  0.44259464  0.08408391  0.06374541  1
  O  O313  1  0.44060648  0.08417707  0.31174180  1
  O  O314  1  0.44329270  0.08391829  0.56359797  1
  O  O315  1  0.44377847  0.08349600  0.81321337  1
  O  O316  1  0.44312886  0.41667156  0.06364350  1
  O  O317  1  0.44004621  0.41647396  0.31290636  1
  O  O318  1  0.44076164  0.41733416  0.56211842  1
  O  O319  1  0.44444590  0.41610785  0.81294150  1
  O  O320  1  0.44074781  0.74945251  0.06273196  1
  O  O321  1  0.43976189  0.74934141  0.31234511  1
  O  O322  1  0.44055035  0.74889119  0.56194361  1
  O  O323  1  0.44411867  0.74997095  0.81375349  1
  O  O324  1  0.94115677  0.08355614  0.06246531  1
  O  O325  1  0.94169388  0.08305745  0.31159437  1
  O  O326  1  0.94502619  0.08397054  0.56301875  1
  O  O327  1  0.94430729  0.08395675  0.81379394  1
  O  O328  1  0.94378534  0.41694906  0.06413342  1
  O  O329  1  0.94159233  0.41693822  0.31264829  1
  O  O330  1  0.94203881  0.41752051  0.56170268  1
  O  O331  1  0.94416273  0.41679226  0.81347366  1
  O  O332  1  0.94066875  0.74923782  0.06187072  1
  O  O333  1  0.94470387  0.74950150  0.31350315  1
  O  O334  1  0.94308592  0.74920129  0.56403796  1
  O  O335  1  0.94097449  0.74931217  0.81274529  1
  O  O336  1  0.19237498  0.08377948  0.06129982  1
  O  O337  1  0.19444964  0.08332803  0.31175502  1
  O  O338  1  0.19108878  0.08431027  0.56307442  1
  O  O339  1  0.19013518  0.08392233  0.81253992  1
  O  O340  1  0.19028977  0.41659769  0.06233734  1
  O  O341  1  0.19404004  0.41640128  0.31140222  1
  O  O342  1  0.19213686  0.41609117  0.56329833  1
  O  O343  1  0.18971761  0.41625048  0.81241712  1
  O  O344  1  0.19369577  0.74964993  0.06126065  1
  O  O345  1  0.19212603  0.75044182  0.31262464  1
  O  O346  1  0.19383862  0.74993869  0.56123191  1
  O  O347  1  0.19072092  0.74985959  0.81309895  1
  O  O348  1  0.69534731  0.08381185  0.06191953  1
  O  O349  1  0.69422113  0.08363700  0.31188280  1
  O  O350  1  0.69349222  0.08434775  0.56111495  1
  O  O351  1  0.69427813  0.08392027  0.81152395  1
  O  O352  1  0.69399344  0.41630885  0.06194001  1
  O  O353  1  0.69170394  0.41578537  0.31297434  1
  O  O354  1  0.69311563  0.41598370  0.56085517  1
  O  O355  1  0.69139060  0.41599939  0.81302063  1
  O  O356  1  0.69341684  0.75000845  0.06184400  1
  O  O357  1  0.69273550  0.75029317  0.31191588  1
  O  O358  1  0.69374190  0.74942485  0.56122386  1
  O  O359  1  0.69128107  0.75063997  0.81281199  1
  O  O360  1  0.30546183  0.25048554  0.18839244  1
  O  O361  1  0.30814856  0.25033994  0.43836827  1
  O  O362  1  0.30907618  0.25015647  0.68839355  1
  O  O363  1  0.30838475  0.25050495  0.93666708  1
  O  O364  1  0.30773686  0.58250109  0.18684301  1
  O  O365  1  0.30550360  0.58260446  0.43898768  1
  O  O366  1  0.30861043  0.58275711  0.68780387  1
  O  O367  1  0.30714992  0.58296846  0.93826651  1
  O  O368  1  0.30586414  0.91722317  0.18862021  1
  O  O369  1  0.30856532  0.91689131  0.43723062  1
  O  O370  1  0.30590643  0.91709322  0.68928056  1
  O  O371  1  0.30843727  0.91658093  0.93695023  1
  O  O372  1  0.80984361  0.25077052  0.18749608  1
  O  O373  1  0.80989315  0.25031306  0.43758327  1
  O  O374  1  0.80999759  0.25053879  0.68756450  1
  O  O375  1  0.80964788  0.25067630  0.93751741  1
  O  O376  1  0.80939667  0.58279626  0.18733283  1
  O  O377  1  0.80610605  0.58281950  0.43822114  1
  O  O378  1  0.80601656  0.58257861  0.68832824  1
  O  O379  1  0.80565961  0.58309447  0.93886568  1
  O  O380  1  0.80867723  0.91631232  0.18798762  1
  O  O381  1  0.80936646  0.91627473  0.43728714  1
  O  O382  1  0.80639101  0.91666353  0.68806296  1
  O  O383  1  0.80740682  0.91658155  0.93831381  1
  O  O384  1  0.23231832  0.25005061  0.03661764  1
  O  O385  1  0.23232547  0.25087258  0.29023794  1
  O  O386  1  0.23356907  0.25064567  0.53910111  1
  O  O387  1  0.23446634  0.25011232  0.78849265  1
  O  O388  1  0.23418688  0.58346003  0.04008099  1
  O  O389  1  0.23320559  0.58247434  0.28774349  1
  O  O390  1  0.23263231  0.58307471  0.54088197  1
  O  O391  1  0.23424856  0.58318070  0.78849155  1
  O  O392  1  0.23447360  0.91640788  0.03833769  1
  O  O393  1  0.23417799  0.91673584  0.29146453  1
  O  O394  1  0.23417331  0.91619743  0.53806594  1
  O  O395  1  0.23198218  0.91674622  0.79025302  1
  O  O396  1  0.73467772  0.25043314  0.03805856  1
  O  O397  1  0.73630739  0.24992708  0.28894076  1
  O  O398  1  0.73560128  0.25098789  0.53838779  1
  O  O399  1  0.73448946  0.25053644  0.78763801  1
  O  O400  1  0.73229247  0.58298144  0.04047576  1
  O  O401  1  0.73501706  0.58291561  0.28791538  1
  O  O402  1  0.73173810  0.58226031  0.53945053  1
  O  O403  1  0.73177048  0.58350127  0.78919698  1
  O  O404  1  0.73479704  0.91678979  0.04035063  1
  O  O405  1  0.73380031  0.91693298  0.28859242  1
  O  O406  1  0.73470157  0.91598543  0.53799739  1
  O  O407  1  0.73375166  0.91663925  0.79042624  1
  O  O408  1  0.26812935  0.08420593  0.21009801  1
  O  O409  1  0.26510600  0.08432452  0.46221169  1
  O  O410  1  0.26435086  0.08341056  0.71153397  1
  O  O411  1  0.26482671  0.08369265  0.95925707  1
  O  O412  1  0.26706467  0.41619308  0.20963138  1
  O  O413  1  0.26685036  0.41697775  0.46245626  1
  O  O414  1  0.26443826  0.41628861  0.71221913  1
  O  O415  1  0.26430708  0.41691132  0.96116514  1
  O  O416  1  0.26715535  0.74998334  0.21238953  1
  O  O417  1  0.26758567  0.74867869  0.46002496  1
  O  O418  1  0.26521420  0.75067424  0.71226881  1
  O  O419  1  0.26752096  0.74973401  0.95996769  1
  O  O420  1  0.76862281  0.08364707  0.21100721  1
  O  O421  1  0.76690284  0.08376330  0.45989604  1
  O  O422  1  0.76693166  0.08383807  0.70927442  1
  O  O423  1  0.76909943  0.08388963  0.96051802  1
  O  O424  1  0.76757226  0.41598598  0.21287658  1
  O  O425  1  0.76710735  0.41673367  0.45983725  1
  O  O426  1  0.76498072  0.41661964  0.71159464  1
  O  O427  1  0.76588474  0.41703315  0.95937441  1
  O  O428  1  0.76623824  0.75030397  0.21067223  1
  O  O429  1  0.76615837  0.74899914  0.45880203  1
  O  O430  1  0.76622554  0.74921611  0.71204732  1
  O  O431  1  0.76734114  0.74983536  0.96069902  1
  O  O432  1  0.01436481  0.08372111  0.16415650  1
  O  O433  1  0.01553281  0.08349461  0.41281059  1
  O  O434  1  0.01849831  0.08484142  0.66464125  1
  O  O435  1  0.01738120  0.08361729  0.91555119  1
  O  O436  1  0.01726413  0.41635705  0.16574603  1
  O  O437  1  0.01564014  0.41686168  0.41311889  1
  O  O438  1  0.01723404  0.41574075  0.66218715  1
  O  O439  1  0.01776693  0.41629273  0.91511225  1
  O  O440  1  0.01487174  0.74939666  0.16296604  1
  O  O441  1  0.01873004  0.75048325  0.41489433  1
  O  O442  1  0.01587163  0.74928436  0.66546879  1
  O  O443  1  0.01637236  0.74995906  0.91310200  1
  O  O444  1  0.51575666  0.08410841  0.16535508  1
  O  O445  1  0.51447926  0.08420570  0.41311825  1
  O  O446  1  0.51589895  0.08371283  0.66586739  1
  O  O447  1  0.51653723  0.08348338  0.91542152  1
  O  O448  1  0.51544117  0.41670098  0.16585699  1
  O  O449  1  0.51508336  0.41624666  0.41352509  1
  O  O450  1  0.51491224  0.41649317  0.66311678  1
  O  O451  1  0.51848889  0.41649227  0.91400510  1
  O  O452  1  0.51416563  0.74947578  0.16417204  1
  O  O453  1  0.51382891  0.74974666  0.41330714  1
  O  O454  1  0.51488215  0.74919301  0.66297401  1
  O  O455  1  0.51762862  0.74987233  0.91535407  1
  O  O456  1  0.48442912  0.25055190  0.08479886  1
  O  O457  1  0.48141948  0.25060533  0.33575577  1
  O  O458  1  0.48255914  0.25055596  0.58730837  1
  O  O459  1  0.48462957  0.24987313  0.83716812  1
  O  O460  1  0.48220944  0.58279095  0.08522489  1
  O  O461  1  0.48380973  0.58265232  0.33749527  1
  O  O462  1  0.48322250  0.58289040  0.58645252  1
  O  O463  1  0.48599213  0.58313485  0.83642645  1
  O  O464  1  0.48435194  0.91670584  0.08785185  1
  O  O465  1  0.48190057  0.91687681  0.33473685  1
  O  O466  1  0.48280485  0.91703768  0.58452702  1
  O  O467  1  0.48178449  0.91627208  0.83559993  1
  O  O468  1  0.98372523  0.25035226  0.08863968  1
  O  O469  1  0.98387864  0.25000544  0.33724600  1
  O  O470  1  0.98343563  0.25047065  0.58386134  1
  O  O471  1  0.98303972  0.25016898  0.83693040  1
  O  O472  1  0.98303923  0.58257161  0.08801293  1
  O  O473  1  0.98614395  0.58328804  0.33699910  1
  O  O474  1  0.98443214  0.58322713  0.58344132  1
  O  O475  1  0.98354188  0.58266128  0.83442421  1
  O  O476  1  0.98144906  0.91665461  0.08597746  1
  O  O477  1  0.98205882  0.91593650  0.33474639  1
  O  O478  1  0.98505025  0.91717301  0.58651757  1
  O  O479  1  0.98436564  0.91702854  0.83408600  1
  O  O480  1  0.08725620  0.31608605  0.07832400  1
  O  O481  1  0.08752913  0.31533620  0.32676537  1
  O  O482  1  0.08761557  0.31524263  0.57636655  1
  O  O483  1  0.08676004  0.31499721  0.82831453  1
  O  O484  1  0.08667685  0.64724299  0.07786146  1
  O  O485  1  0.08937100  0.64972560  0.32764897  1
  O  O486  1  0.08912556  0.64690449  0.57661380  1
  O  O487  1  0.08698365  0.64863380  0.82801108  1
  O  O488  1  0.08534919  0.98174541  0.07750013  1
  O  O489  1  0.08588036  0.98071401  0.32637266  1
  O  O490  1  0.08838065  0.98293337  0.57849951  1
  O  O491  1  0.08850081  0.98171866  0.82820676  1
  O  O492  1  0.58870840  0.31509652  0.07720342  1
  O  O493  1  0.58509846  0.31654832  0.32742668  1
  O  O494  1  0.58635847  0.31491049  0.57694886  1
  O  O495  1  0.58800160  0.31587047  0.82729498  1
  O  O496  1  0.58623318  0.64795519  0.07698469  1
  O  O497  1  0.58763890  0.64681228  0.32776150  1
  O  O498  1  0.58694128  0.64818306  0.57653206  1
  O  O499  1  0.58927526  0.64899495  0.82811060  1
  O  O500  1  0.58774200  0.98205875  0.07765789  1
  O  O501  1  0.58622351  0.98173046  0.32622177  1
  O  O502  1  0.58678164  0.98173474  0.57682131  1
  O  O503  1  0.58595329  0.98079784  0.82759322  1
  O  O504  1  0.41160864  0.01919270  0.17308214  1
  O  O505  1  0.41112348  0.01855004  0.42134614  1
  O  O506  1  0.41177494  0.01942476  0.67275778  1
  O  O507  1  0.41264324  0.01840510  0.92220902  1
  O  O508  1  0.41098562  0.35269390  0.17297570  1
  O  O509  1  0.41128173  0.35059525  0.42261939  1
  O  O510  1  0.41106709  0.35197803  0.67171327  1
  O  O511  1  0.41493653  0.35034036  0.92248229  1
  O  O512  1  0.41093664  0.68304288  0.17214755  1
  O  O513  1  0.40980428  0.68567243  0.42266504  1
  O  O514  1  0.41175257  0.68320987  0.67183955  1
  O  O515  1  0.41320411  0.68570591  0.92319450  1
  O  O516  1  0.91066847  0.01826960  0.17197165  1
  O  O517  1  0.91236500  0.01771486  0.42138245  1
  O  O518  1  0.91477183  0.01992918  0.67285817  1
  O  O519  1  0.91292564  0.01948143  0.92302880  1
  O  O520  1  0.91303308  0.35170911  0.17333071  1
  O  O521  1  0.91225610  0.35079400  0.42219384  1
  O  O522  1  0.91349099  0.35087625  0.67121325  1
  O  O523  1  0.91397019  0.35111636  0.92276737  1
  O  O524  1  0.91143725  0.68429599  0.17185464  1
  O  O525  1  0.91505946  0.68533536  0.42327286  1
  O  O526  1  0.91167335  0.68443364  0.67335225  1
  O  O527  1  0.91261188  0.68455818  0.92302018  1
  O  O528  1  0.16431761  0.01909974  0.20206768  1
  O  O529  1  0.16138113  0.01980122  0.45293674  1
  O  O530  1  0.16104994  0.01727089  0.70319199  1
  O  O531  1  0.16057047  0.01936494  0.95217978  1
  O  O532  1  0.16280728  0.35145338  0.20213642  1
  O  O533  1  0.16343927  0.35150459  0.45293375  1
  O  O534  1  0.16081748  0.35121582  0.70226369  1
  O  O535  1  0.16086844  0.35073603  0.95264129  1
  O  O536  1  0.16370029  0.68434543  0.20277645  1
  O  O537  1  0.16366540  0.68349842  0.45229670  1
  O  O538  1  0.16172446  0.68597670  0.70278289  1
  O  O539  1  0.16349965  0.68457523  0.95173914  1
  O  O540  1  0.66510686  0.01764524  0.20243577  1
  O  O541  1  0.66288310  0.01897915  0.45191897  1
  O  O542  1  0.66274642  0.01947150  0.70251769  1
  O  O543  1  0.66502042  0.01924489  0.95234587  1
  O  O544  1  0.66406386  0.35082983  0.20284364  1
  O  O545  1  0.66298524  0.35209747  0.45079392  1
  O  O546  1  0.66171889  0.35099010  0.70302250  1
  O  O547  1  0.66229284  0.35128081  0.95260925  1
  O  O548  1  0.66222074  0.68596279  0.20244054  1
  O  O549  1  0.66244204  0.68330532  0.45256667  1
  O  O550  1  0.66231956  0.68435251  0.70331099  1
  O  O551  1  0.66349989  0.68398803  0.95278800  1
  O  O552  1  0.33570707  0.31540185  0.04698514  1
  O  O553  1  0.33647426  0.31569172  0.29769467  1
  O  O554  1  0.33725743  0.31631292  0.54802472  1
  O  O555  1  0.33836313  0.31495786  0.79859986  1
  O  O556  1  0.33789581  0.64927343  0.04711539  1
  O  O557  1  0.33685466  0.64742497  0.29693579  1
  O  O558  1  0.33677412  0.64809384  0.54804215  1
  O  O559  1  0.33799104  0.64810117  0.79742778  1
  O  O560  1  0.33831015  0.98082190  0.04680590  1
  O  O561  1  0.33785218  0.98245837  0.29763109  1
  O  O562  1  0.33765036  0.98080756  0.54753603  1
  O  O563  1  0.33583956  0.98201073  0.79899435  1
  O  O564  1  0.83866959  0.31484059  0.04790991  1
  O  O565  1  0.84003277  0.31523285  0.29748440  1
  O  O566  1  0.83895740  0.31706012  0.54697886  1
  O  O567  1  0.83828654  0.31545653  0.79791323  1
  O  O568  1  0.83613587  0.64916777  0.04787255  1
  O  O569  1  0.83870906  0.64744032  0.29749741  1
  O  O570  1  0.83568428  0.64694476  0.54788069  1
  O  O571  1  0.83561532  0.64880336  0.79756117  1
  O  O572  1  0.83898174  0.98151542  0.04742579  1
  O  O573  1  0.83757350  0.98256265  0.29750936  1
  O  O574  1  0.83811668  0.98148210  0.54727232  1
  O  O575  1  0.83802483  0.98070752  0.79717582  1
  O  O576  1  0.41169085  0.14917323  0.17296123  1
  O  O577  1  0.41065614  0.14894533  0.42151062  1
  O  O578  1  0.41239765  0.14966732  0.67258483  1
  O  O579  1  0.41281014  0.14885006  0.92227601  1
  O  O580  1  0.41181163  0.48269326  0.17271911  1
  O  O581  1  0.41103013  0.48064659  0.42323862  1
  O  O582  1  0.41184719  0.48238556  0.67216874  1
  O  O583  1  0.41421704  0.48042206  0.92245507  1
  O  O584  1  0.40979064  0.81321587  0.17267532  1
  O  O585  1  0.41051546  0.81595337  0.42162753  1
  O  O586  1  0.41108066  0.81353553  0.67185939  1
  O  O587  1  0.41360916  0.81570101  0.92302133  1
  O  O588  1  0.91056476  0.14858028  0.17207202  1
  O  O589  1  0.91192918  0.14822760  0.42127785  1
  O  O590  1  0.91472218  0.15012370  0.67193707  1
  O  O591  1  0.91358460  0.14947159  0.92315515  1
  O  O592  1  0.91321782  0.48175545  0.17366088  1
  O  O593  1  0.91151793  0.48086006  0.42298497  1
  O  O594  1  0.91384860  0.48104350  0.67244482  1
  O  O595  1  0.91399636  0.48115524  0.92313976  1
  O  O596  1  0.91146054  0.81475316  0.17157205  1
  O  O597  1  0.91461743  0.81554222  0.42244373  1
  O  O598  1  0.91194556  0.81450036  0.67339109  1
  O  O599  1  0.91231350  0.81455155  0.92257279  1
  O  O600  1  0.08768305  0.18602350  0.07768403  1
  O  O601  1  0.08772857  0.18537073  0.32670867  1
  O  O602  1  0.08751090  0.18527225  0.57664175  1
  O  O603  1  0.08662289  0.18489775  0.82855956  1
  O  O604  1  0.08661164  0.51708415  0.07889412  1
  O  O605  1  0.09035867  0.51951556  0.32715465  1
  O  O606  1  0.08796253  0.51686212  0.57686367  1
  O  O607  1  0.08767447  0.51829884  0.82849820  1
  O  O608  1  0.08532357  0.85159944  0.07711673  1
  O  O609  1  0.08598745  0.85053376  0.32687600  1
  O  O610  1  0.08869967  0.85260097  0.57781322  1
  O  O611  1  0.08813222  0.85145448  0.82770369  1
  O  O612  1  0.58838910  0.18514410  0.07664803  1
  O  O613  1  0.58574000  0.18644849  0.32707297  1
  O  O614  1  0.58591304  0.18489009  0.57686349  1
  O  O615  1  0.58884639  0.18574028  0.82700054  1
  O  O616  1  0.58654475  0.51810611  0.07730263  1
  O  O617  1  0.58705156  0.51650616  0.32834058  1
  O  O618  1  0.58720194  0.51826426  0.57666309  1
  O  O619  1  0.58995940  0.51857192  0.82811361  1
  O  O620  1  0.58786402  0.85183592  0.07803178  1
  O  O621  1  0.58584122  0.85162038  0.32604723  1
  O  O622  1  0.58622079  0.85145008  0.57641682  1
  O  O623  1  0.58544151  0.85054121  0.82780435  1
  O  O624  1  0.33601830  0.18535944  0.04684183  1
  O  O625  1  0.33627932  0.18561271  0.29804633  1
  O  O626  1  0.33758085  0.18623803  0.54870014  1
  O  O627  1  0.33827593  0.18506763  0.79839523  1
  O  O628  1  0.33839347  0.51912051  0.04785104  1
  O  O629  1  0.33664114  0.51724503  0.29685886  1
  O  O630  1  0.33674353  0.51806379  0.54852545  1
  O  O631  1  0.33767120  0.51805170  0.79799307  1
  O  O632  1  0.33786863  0.85054492  0.04633792  1
  O  O633  1  0.33851188  0.85219763  0.29735580  1
  O  O634  1  0.33735155  0.85028995  0.54655366  1
  O  O635  1  0.33634975  0.85216592  0.79879073  1
  O  O636  1  0.83849195  0.18482674  0.04723915  1
  O  O637  1  0.84020314  0.18509796  0.29698392  1
  O  O638  1  0.83985808  0.18696308  0.54800028  1
  O  O639  1  0.83836705  0.18548277  0.79773105  1
  O  O640  1  0.83701691  0.51918593  0.04842581  1
  O  O641  1  0.83849713  0.51728329  0.29708706  1
  O  O642  1  0.83542417  0.51677125  0.54764004  1
  O  O643  1  0.83545405  0.51864860  0.79838397  1
  O  O644  1  0.83844851  0.85124094  0.04753830  1
  O  O645  1  0.83785403  0.85249108  0.29841202  1
  O  O646  1  0.83849152  0.85116799  0.54696409  1
  O  O647  1  0.83710147  0.85042968  0.79692832  1
  O  O648  1  0.16408555  0.14928370  0.20286850  1
  O  O649  1  0.16187568  0.15011550  0.45344479  1
  O  O650  1  0.16037330  0.14755715  0.70230703  1
  O  O651  1  0.16102540  0.14941682  0.95211483  1
  O  O652  1  0.16298065  0.48143119  0.20195820  1
  O  O653  1  0.16313304  0.48161591  0.45350404  1
  O  O654  1  0.16059878  0.48116040  0.70228425  1
  O  O655  1  0.16014276  0.48084357  0.95246032  1
  O  O656  1  0.16341390  0.81456554  0.20221862  1
  O  O657  1  0.16365796  0.81358145  0.45096697  1
  O  O658  1  0.16186326  0.81622698  0.70355571  1
  O  O659  1  0.16306708  0.81446927  0.95197210  1
  O  O660  1  0.66466763  0.14788900  0.20216468  1
  O  O661  1  0.66335665  0.14923940  0.45151137  1
  O  O662  1  0.66354138  0.14994720  0.70253262  1
  O  O663  1  0.66531810  0.14938974  0.95263217  1
  O  O664  1  0.66383403  0.48091668  0.20289297  1
  O  O665  1  0.66284682  0.48207678  0.45174225  1
  O  O666  1  0.66110028  0.48135709  0.70362271  1
  O  O667  1  0.66145782  0.48148022  0.95326116  1
  O  O668  1  0.66283867  0.81630369  0.20275159  1
  O  O669  1  0.66213056  0.81359131  0.45192452  1
  O  O670  1  0.66280199  0.81459407  0.70236060  1
  O  O671  1  0.66305298  0.81408596  0.95184315  1
