# generated using pymatgen
data_Na2MnFe(PO4)2
_symmetry_space_group_name_H-M   'P 1'
_cell_length_a   21.07905910
_cell_length_b   18.93128684
_cell_length_c   20.03904043
_cell_angle_alpha   89.99993013
_cell_angle_beta   90.00238669
_cell_angle_gamma   90.00078063
_symmetry_Int_Tables_number   1
_chemical_formula_structural   Na2MnFe(PO4)2
_chemical_formula_sum   'Na96 Mn48 Fe48 P96 O384'
_cell_volume   7996.65350296
_cell_formula_units_Z   48
loop_
 _symmetry_equiv_pos_site_id
 _symmetry_equiv_pos_as_xyz
  1  'x, y, z'
loop_
 _atom_site_type_symbol
 _atom_site_label
 _atom_site_symmetry_multiplicity
 _atom_site_fract_x
 _atom_site_fract_y
 _atom_site_fract_z
 _atom_site_occupancy
  Na  Na0  1  -0.00343049  -0.00074932  0.00084773  1
  Na  Na1  1  -0.00295193  -0.00119895  0.24988424  1
  Na  Na2  1  0.00083792  0.00050458  0.49918966  1
  Na  Na3  1  -0.00152912  -0.00051103  0.75027162  1
  Na  Na4  1  -0.00178672  0.33268568  -0.00026432  1
  Na  Na5  1  0.00061185  0.33334194  0.24844240  1
  Na  Na6  1  0.00139784  0.33408352  0.49977605  1
  Na  Na7  1  -0.00127740  0.33300356  0.75117052  1
  Na  Na8  1  0.00182742  0.66725909  -0.00008336  1
  Na  Na9  1  -0.00121244  0.66600701  0.25053750  1
  Na  Na10  1  0.00137379  0.66670741  0.49966996  1
  Na  Na11  1  0.00148624  0.66605891  0.75034323  1
  Na  Na12  1  0.49696182  -0.00102082  0.00064112  1
  Na  Na13  1  0.49805841  -0.00069351  0.24973747  1
  Na  Na14  1  0.49980265  -0.00010899  0.49904342  1
  Na  Na15  1  0.49923384  0.00016817  0.74943199  1
  Na  Na16  1  0.50079622  0.33353868  -0.00002116  1
  Na  Na17  1  0.50168360  0.33491616  0.24840223  1
  Na  Na18  1  0.50034065  0.33340809  0.50094381  1
  Na  Na19  1  0.50088553  0.33337902  0.75117369  1
  Na  Na20  1  0.49997829  0.66641014  -0.00050504  1
  Na  Na21  1  0.49934718  0.66667556  0.25043541  1
  Na  Na22  1  0.50135421  0.66677767  0.49989631  1
  Na  Na23  1  0.50126105  0.66616684  0.75054287  1
  Na  Na24  1  0.25337167  0.00092557  0.12527649  1
  Na  Na25  1  0.25353834  0.00081769  0.37400161  1
  Na  Na26  1  0.25068645  -0.00013396  0.62469923  1
  Na  Na27  1  0.25170720  0.00067510  0.87556887  1
  Na  Na28  1  0.24945167  0.33279200  0.12413000  1
  Na  Na29  1  0.24831424  0.33290658  0.37605852  1
  Na  Na30  1  0.24945660  0.33344569  0.62537879  1
  Na  Na31  1  0.25138465  0.33405371  0.87410159  1
  Na  Na32  1  0.25031711  0.66740281  0.12562675  1
  Na  Na33  1  0.24805764  0.66636225  0.37478608  1
  Na  Na34  1  0.24704514  0.66639215  0.62569218  1
  Na  Na35  1  0.24798726  0.66670272  0.87571745  1
  Na  Na36  1  0.75307257  0.00008227  0.12446934  1
  Na  Na37  1  0.75015964  -0.00124848  0.37448723  1
  Na  Na38  1  0.74905043  -0.00051005  0.62485321  1
  Na  Na39  1  0.75236298  0.00057972  0.87557494  1
  Na  Na40  1  0.75080759  0.33376901  0.12540093  1
  Na  Na41  1  0.74850652  0.33290284  0.37476790  1
  Na  Na42  1  0.74924493  0.33408252  0.62526961  1
  Na  Na43  1  0.74963150  0.33314417  0.87548881  1
  Na  Na44  1  0.75040559  0.66646675  0.12438978  1
  Na  Na45  1  0.75108818  0.66658603  0.37437539  1
  Na  Na46  1  0.75008122  0.66584579  0.62483876  1
  Na  Na47  1  0.74906467  0.66504607  0.87536034  1
  Na  Na48  1  -0.00140197  0.16754396  0.00062867  1
  Na  Na49  1  -0.00100675  0.16669877  0.24909939  1
  Na  Na50  1  0.00026040  0.16692120  0.49885865  1
  Na  Na51  1  -0.00100446  0.16735682  0.75091657  1
  Na  Na52  1  -0.00254461  0.50105560  -0.00094042  1
  Na  Na53  1  -0.00183621  0.50070984  0.24936400  1
  Na  Na54  1  -0.00051145  0.50036663  0.50067320  1
  Na  Na55  1  -0.00118702  0.50043664  0.75141157  1
  Na  Na56  1  -0.00082571  0.83371939  0.00026327  1
  Na  Na57  1  0.00005187  0.83311348  0.25063566  1
  Na  Na58  1  0.00249243  0.83252211  0.49887906  1
  Na  Na59  1  0.00181132  0.83262979  0.74963855  1
  Na  Na60  1  0.49955289  0.16684450  -0.00069802  1
  Na  Na61  1  0.49872286  0.16657197  0.24916677  1
  Na  Na62  1  0.49725063  0.16710119  0.50052462  1
  Na  Na63  1  0.49833642  0.16755971  0.75053381  1
  Na  Na64  1  0.50044543  0.50037460  0.00004000  1
  Na  Na65  1  0.49965291  0.50104492  0.24942020  1
  Na  Na66  1  0.50376646  0.49938110  0.50062324  1
  Na  Na67  1  0.50342759  0.49948677  0.75054386  1
  Na  Na68  1  0.49872384  0.83286534  0.00096652  1
  Na  Na69  1  0.49864045  0.83378360  0.24968258  1
  Na  Na70  1  0.50046090  0.83312979  0.49903554  1
  Na  Na71  1  0.49943606  0.83317748  0.75003807  1
  Na  Na72  1  0.25060228  0.16720631  0.12385589  1
  Na  Na73  1  0.25099486  0.16676570  0.37553925  1
  Na  Na74  1  0.25372707  0.16583182  0.62567159  1
  Na  Na75  1  0.25274054  0.16663894  0.87466464  1
  Na  Na76  1  0.25134836  0.49979959  0.12542715  1
  Na  Na77  1  0.25004347  0.49990895  0.37476199  1
  Na  Na78  1  0.24674182  0.50115970  0.62511346  1
  Na  Na79  1  0.24809529  0.50096380  0.87513266  1
  Na  Na80  1  0.25099044  0.83225002  0.12565674  1
  Na  Na81  1  0.24902836  0.83331219  0.37476527  1
  Na  Na82  1  0.24665478  0.83362905  0.62468717  1
  Na  Na83  1  0.24951966  0.83226161  0.87575240  1
  Na  Na84  1  0.75166463  0.16627400  0.12496958  1
  Na  Na85  1  0.75087806  0.16577534  0.37436840  1
  Na  Na86  1  0.74865510  0.16747278  0.62501118  1
  Na  Na87  1  0.75065009  0.16694010  0.87520868  1
  Na  Na88  1  0.75153293  0.50010298  0.12574860  1
  Na  Na89  1  0.75012106  0.50074985  0.37483506  1
  Na  Na90  1  0.74914091  0.50068439  0.62531975  1
  Na  Na91  1  0.75153485  0.49931751  0.87444908  1
  Na  Na92  1  0.75020718  0.83386169  0.12388933  1
  Na  Na93  1  0.75036255  0.83337231  0.37421881  1
  Na  Na94  1  0.74895878  0.83401948  0.62496276  1
  Na  Na95  1  0.75118930  0.83247978  0.87629415  1
  Mn  Mn96  1  0.85836592  0.74932655  0.00271633  1
  Mn  Mn97  1  0.14257339  0.25013704  0.74832294  1
  Mn  Mn98  1  0.35790521  0.41634134  0.25262061  1
  Mn  Mn99  1  0.89184612  0.25056153  0.62728535  1
  Mn  Mn100  1  0.85765096  0.08345263  0.50243316  1
  Mn  Mn101  1  0.35802669  0.41748727  0.75214803  1
  Mn  Mn102  1  0.35643706  0.74964322  0.50232512  1
  Mn  Mn103  1  0.10689278  0.41669011  0.87342474  1
  Mn  Mn104  1  0.85735652  0.41640963  0.50248912  1
  Mn  Mn105  1  0.39159658  0.91609201  0.62681644  1
  Mn  Mn106  1  0.10834761  0.08303549  0.37209045  1
  Mn  Mn107  1  0.39241304  0.58280645  0.62717798  1
  Mn  Mn108  1  0.14296173  0.91779803  0.24758170  1
  Mn  Mn109  1  0.39229434  0.58322362  0.37815073  1
  Mn  Mn110  1  0.14199521  0.58276278  0.24715534  1
  Mn  Mn111  1  0.10729723  0.41717639  0.12184351  1
  Mn  Mn112  1  0.10777716  0.41679360  0.37244560  1
  Mn  Mn113  1  0.89265777  0.91615120  0.62673260  1
  Mn  Mn114  1  0.60698637  0.08335879  0.62280116  1
  Mn  Mn115  1  0.10734210  0.08269565  0.12274860  1
  Mn  Mn116  1  0.85876214  0.74969384  0.75218939  1
  Mn  Mn117  1  0.64242456  0.24856298  0.24734429  1
  Mn  Mn118  1  0.60800614  0.41767899  0.12200134  1
  Mn  Mn119  1  0.64252454  0.91706328  0.99784993  1
  Mn  Mn120  1  0.39189412  0.25054510  0.37700022  1
  Mn  Mn121  1  0.39123837  0.91642862  0.87756904  1
  Mn  Mn122  1  0.64286700  0.58450823  0.24730036  1
  Mn  Mn123  1  0.85809647  0.75011917  0.50246214  1
  Mn  Mn124  1  0.60767365  0.08335872  0.87331970  1
  Mn  Mn125  1  0.39208821  0.58273635  0.87710778  1
  Mn  Mn126  1  0.64224580  0.91665656  0.74824536  1
  Mn  Mn127  1  0.35651751  0.74962730  0.75186271  1
  Mn  Mn128  1  0.60768288  0.08264943  0.12248859  1
  Mn  Mn129  1  0.89244523  0.25026695  0.37726889  1
  Mn  Mn130  1  0.60846302  0.74998144  0.62266789  1
  Mn  Mn131  1  0.60779298  0.74999990  0.87300150  1
  Mn  Mn132  1  0.35798262  0.41730865  0.50298927  1
  Mn  Mn133  1  0.14228258  0.91722668  0.99844032  1
  Mn  Mn134  1  0.85787233  0.08394346  0.75198188  1
  Mn  Mn135  1  0.60808767  0.75000070  0.37187329  1
  Mn  Mn136  1  0.60704655  0.08368095  0.37222451  1
  Mn  Mn137  1  0.14147329  0.91745573  0.74808193  1
  Mn  Mn138  1  0.10868616  0.08364736  0.62274715  1
  Mn  Mn139  1  0.85791512  0.41674423  0.25270860  1
  Mn  Mn140  1  0.39199527  0.25044742  0.12695475  1
  Mn  Mn141  1  0.10744792  0.08314006  0.87354157  1
  Mn  Mn142  1  0.14278986  0.24948270  0.49842953  1
  Mn  Mn143  1  0.64098096  0.24967724  0.49714713  1
  Fe  Fe144  1  0.14257188  0.58264215  0.99920596  1
  Fe  Fe145  1  0.39246961  0.58406396  0.12591543  1
  Fe  Fe146  1  0.35711227  0.75001986  0.25217151  1
  Fe  Fe147  1  0.64356562  0.25029989  0.99853053  1
  Fe  Fe148  1  0.89303363  0.58370028  0.37731229  1
  Fe  Fe149  1  0.14286697  0.25031121  0.99805441  1
  Fe  Fe150  1  0.85774623  0.08411327  0.00175414  1
  Fe  Fe151  1  0.89272567  0.58395557  0.12625983  1
  Fe  Fe152  1  0.14146824  0.58320912  0.49803210  1
  Fe  Fe153  1  0.64270605  0.25018504  0.74880676  1
  Fe  Fe154  1  0.89269876  0.24992114  0.12684368  1
  Fe  Fe155  1  0.89246654  0.91640592  0.87619891  1
  Fe  Fe156  1  0.85776178  0.75071713  0.25131080  1
  Fe  Fe157  1  0.64380855  0.58302185  0.74830980  1
  Fe  Fe158  1  0.35685020  0.74936627  0.00234019  1
  Fe  Fe159  1  0.39306947  0.25114451  0.62733798  1
  Fe  Fe160  1  0.89278904  0.58379575  0.87711645  1
  Fe  Fe161  1  0.39246529  0.91542850  0.12710930  1
  Fe  Fe162  1  0.35737430  0.08300833  0.50183052  1
  Fe  Fe163  1  0.10716684  0.75041282  0.87440097  1
  Fe  Fe164  1  0.60676966  0.75004162  0.12365888  1
  Fe  Fe165  1  0.10720183  0.74949564  0.62274663  1
  Fe  Fe166  1  0.89315157  0.58317904  0.62675092  1
  Fe  Fe167  1  0.85690941  0.41648937  0.75150437  1
  Fe  Fe168  1  0.89144226  0.24994327  0.87743280  1
  Fe  Fe169  1  0.10656101  0.41661331  0.62409542  1
  Fe  Fe170  1  0.10712239  0.75006594  0.12406774  1
  Fe  Fe171  1  0.64313021  0.91628826  0.24788160  1
  Fe  Fe172  1  0.35757285  0.41733524  0.00088179  1
  Fe  Fe173  1  0.35744577  0.08357607  0.25164975  1
  Fe  Fe174  1  0.14120326  0.58274433  0.74827068  1
  Fe  Fe175  1  0.60832512  0.41655433  0.87381631  1
  Fe  Fe176  1  0.39357795  0.25108227  0.87716632  1
  Fe  Fe177  1  0.64222648  0.91626572  0.49750857  1
  Fe  Fe178  1  0.89281498  0.91607317  0.37726604  1
  Fe  Fe179  1  0.35742291  0.08365470  0.00200584  1
  Fe  Fe180  1  0.64308555  0.58274818  0.99850060  1
  Fe  Fe181  1  0.85728546  0.08258547  0.25190899  1
  Fe  Fe182  1  0.85676815  0.41622629  0.00141943  1
  Fe  Fe183  1  0.89246080  0.91583480  0.12744926  1
  Fe  Fe184  1  0.14257413  0.24959253  0.24795414  1
  Fe  Fe185  1  0.39295951  0.91609621  0.37703379  1
  Fe  Fe186  1  0.60808649  0.41638467  0.62356774  1
  Fe  Fe187  1  0.35786234  0.08289392  0.75209329  1
  Fe  Fe188  1  0.64352057  0.58405229  0.49814690  1
  Fe  Fe189  1  0.60754639  0.41666310  0.37341688  1
  Fe  Fe190  1  0.10649978  0.75001307  0.37271566  1
  Fe  Fe191  1  0.14272345  0.91699164  0.49739315  1
  P  P192  1  0.05388689  0.24972523  0.11006423  1
  P  P193  1  0.05421709  0.24969046  0.35860619  1
  P  P194  1  0.05309308  0.25095625  0.61032685  1
  P  P195  1  0.05293165  0.25001661  0.86173351  1
  P  P196  1  0.05237002  0.58395079  0.10945180  1
  P  P197  1  0.05318302  0.58382495  0.36076816  1
  P  P198  1  0.05364957  0.58249372  0.61100906  1
  P  P199  1  0.05409696  0.58371851  0.86148779  1
  P  P200  1  0.05192891  0.91606829  0.11060554  1
  P  P201  1  0.05366937  0.91625958  0.36055760  1
  P  P202  1  0.05422102  0.91633164  0.60887167  1
  P  P203  1  0.05193859  0.91648468  0.86084187  1
  P  P204  1  0.55417122  0.24969209  0.10878793  1
  P  P205  1  0.55266133  0.25074807  0.35925070  1
  P  P206  1  0.55348033  0.25054598  0.61174685  1
  P  P207  1  0.55484279  0.25074833  0.86123646  1
  P  P208  1  0.55298719  0.58497073  0.10947980  1
  P  P209  1  0.55492280  0.58275287  0.36084799  1
  P  P210  1  0.55592668  0.58259582  0.61079647  1
  P  P211  1  0.55579652  0.58224611  0.86088166  1
  P  P212  1  0.55321226  0.91566775  0.11135603  1
  P  P213  1  0.55391354  0.91671895  0.35953911  1
  P  P214  1  0.55362428  0.91662508  0.60884567  1
  P  P215  1  0.55259748  0.91679795  0.86018714  1
  P  P216  1  0.44450219  0.08272455  0.13924196  1
  P  P217  1  0.44434106  0.08257499  0.38919776  1
  P  P218  1  0.44439530  0.08379911  0.63937525  1
  P  P219  1  0.44475423  0.08423324  0.88962480  1
  P  P220  1  0.44526950  0.41806515  0.13831693  1
  P  P221  1  0.44815014  0.41691232  0.39054817  1
  P  P222  1  0.44860922  0.41678806  0.64063504  1
  P  P223  1  0.44787444  0.41645324  0.89045479  1
  P  P224  1  0.44543982  0.74922131  0.13944384  1
  P  P225  1  0.44545068  0.75056355  0.38906306  1
  P  P226  1  0.44676617  0.74940487  0.64007279  1
  P  P227  1  0.44547385  0.74938691  0.89083679  1
  P  P228  1  0.94437696  0.08359383  0.13931499  1
  P  P229  1  0.94545687  0.08233726  0.38864382  1
  P  P230  1  0.94741887  0.08346772  0.63997049  1
  P  P231  1  0.94558842  0.08365589  0.89085881  1
  P  P232  1  0.94475687  0.41670978  0.13801314  1
  P  P233  1  0.94666466  0.41739880  0.39009188  1
  P  P234  1  0.94679353  0.41745989  0.64094892  1
  P  P235  1  0.94382784  0.41668236  0.88929332  1
  P  P236  1  0.94736408  0.74968220  0.14053340  1
  P  P237  1  0.94620619  0.75010628  0.38870869  1
  P  P238  1  0.94844604  0.74908950  0.63961054  1
  P  P239  1  0.94774118  0.74952681  0.88994513  1
  P  P240  1  0.19827405  0.08404910  0.23456432  1
  P  P241  1  0.19820804  0.08269794  0.48478610  1
  P  P242  1  0.19835237  0.08383350  0.73538605  1
  P  P243  1  0.19797874  0.08406943  0.98526121  1
  P  P244  1  0.19650088  0.41571969  0.23449535  1
  P  P245  1  0.19520411  0.41754486  0.48643872  1
  P  P246  1  0.19556554  0.41721943  0.73486400  1
  P  P247  1  0.19764525  0.41681972  0.98508913  1
  P  P248  1  0.19572199  0.75030949  0.23565592  1
  P  P249  1  0.19352028  0.74969412  0.48526160  1
  P  P250  1  0.19339339  0.74928053  0.73604603  1
  P  P251  1  0.19539773  0.74928967  0.98675197  1
  P  P252  1  0.69787348  0.08151588  0.23467800  1
  P  P253  1  0.69615390  0.08241473  0.48442527  1
  P  P254  1  0.69649151  0.08429429  0.73527016  1
  P  P255  1  0.69824437  0.08391619  0.98539381  1
  P  P256  1  0.69558436  0.41691820  0.23591082  1
  P  P257  1  0.69481609  0.41771331  0.48550123  1
  P  P258  1  0.69599128  0.41654483  0.73625419  1
  P  P259  1  0.69739447  0.41688990  0.98496690  1
  P  P260  1  0.69765078  0.75107959  0.23381384  1
  P  P261  1  0.69684964  0.74986226  0.48450796  1
  P  P262  1  0.69742588  0.74907880  0.73535375  1
  P  P263  1  0.69564041  0.74910156  0.98657820  1
  P  P264  1  0.30395339  0.25088298  0.01315605  1
  P  P265  1  0.30202981  0.24971618  0.26491394  1
  P  P266  1  0.30460499  0.24981608  0.51597821  1
  P  P267  1  0.30601154  0.25007102  0.76459448  1
  P  P268  1  0.30256773  0.58338750  0.01528917  1
  P  P269  1  0.30456468  0.58428386  0.26401440  1
  P  P270  1  0.30110119  0.58374172  0.51549328  1
  P  P271  1  0.30116393  0.58340412  0.76513148  1
  P  P272  1  0.30394746  0.91601664  0.01592413  1
  P  P273  1  0.30576800  0.91609494  0.26422036  1
  P  P274  1  0.30287024  0.91652162  0.51347820  1
  P  P275  1  0.30259761  0.91659826  0.76509118  1
  P  P276  1  0.80410882  0.25041706  0.01448374  1
  P  P277  1  0.80461350  0.24912562  0.26389954  1
  P  P278  1  0.80236925  0.25022697  0.51514627  1
  P  P279  1  0.80265151  0.25125209  0.76550577  1
  P  P280  1  0.80411070  0.58235434  0.01424964  1
  P  P281  1  0.80588756  0.58484469  0.26423921  1
  P  P282  1  0.80436683  0.58335748  0.51467930  1
  P  P283  1  0.80484435  0.58247457  0.76424247  1
  P  P284  1  0.80592206  0.91707229  0.01438088  1
  P  P285  1  0.80467793  0.91591591  0.26406317  1
  P  P286  1  0.80301449  0.91639271  0.51396336  1
  P  P287  1  0.80401863  0.91636964  0.76578380  1
  O  O288  1  0.05902295  0.24958175  0.18672458  1
  O  O289  1  0.05782196  0.24950155  0.43541761  1
  O  O290  1  0.05606552  0.25006484  0.68713864  1
  O  O291  1  0.05873244  0.25013290  0.93838071  1
  O  O292  1  0.05593558  0.58282593  0.18618514  1
  O  O293  1  0.05759160  0.58301498  0.43747910  1
  O  O294  1  0.05744920  0.58246089  0.68780153  1
  O  O295  1  0.05901535  0.58265709  0.93816110  1
  O  O296  1  0.05619180  0.91696876  0.18725151  1
  O  O297  1  0.05881003  0.91752155  0.43719220  1
  O  O298  1  0.05651143  0.91749332  0.68576186  1
  O  O299  1  0.05564762  0.91739055  0.93753819  1
  O  O300  1  0.55732917  0.24950228  0.18560547  1
  O  O301  1  0.55508151  0.24946086  0.43611747  1
  O  O302  1  0.55823507  0.24986101  0.68842844  1
  O  O303  1  0.55993581  0.24994156  0.93792100  1
  O  O304  1  0.55680295  0.58422269  0.18621880  1
  O  O305  1  0.55930481  0.58391266  0.43757793  1
  O  O306  1  0.56002648  0.58357444  0.68762252  1
  O  O307  1  0.55980611  0.58283055  0.93766135  1
  O  O308  1  0.55833843  0.91663989  0.18798488  1
  O  O309  1  0.55891513  0.91645302  0.43625738  1
  O  O310  1  0.55692340  0.91660686  0.68566888  1
  O  O311  1  0.55605363  0.91688441  0.93700711  1
  O  O312  1  0.44036225  0.08372988  0.06238732  1
  O  O313  1  0.44054988  0.08360141  0.31234279  1
  O  O314  1  0.44062331  0.08261835  0.56250640  1
  O  O315  1  0.44125600  0.08315125  0.81278447  1
  O  O316  1  0.44080800  0.41716659  0.06158302  1
  O  O317  1  0.44414449  0.41721792  0.31377651  1
  O  O318  1  0.44455147  0.41758219  0.56394146  1
  O  O319  1  0.44414509  0.41734493  0.81377824  1
  O  O320  1  0.44092711  0.74915301  0.06270986  1
  O  O321  1  0.44122012  0.74990146  0.31230800  1
  O  O322  1  0.44313960  0.74927778  0.56327572  1
  O  O323  1  0.44211707  0.74923377  0.81405148  1
  O  O324  1  0.94071640  0.08403500  0.06249690  1
  O  O325  1  0.94108267  0.08269131  0.31185951  1
  O  O326  1  0.94425295  0.08370957  0.56315173  1
  O  O327  1  0.94314183  0.08400571  0.81401742  1
  O  O328  1  0.94086498  0.41654039  0.06123031  1
  O  O329  1  0.94366760  0.41655810  0.31327130  1
  O  O330  1  0.94331087  0.41679475  0.56419707  1
  O  O331  1  0.94031654  0.41629368  0.81252343  1
  O  O332  1  0.94415209  0.74974633  0.06374946  1
  O  O333  1  0.94186303  0.75035821  0.31207136  1
  O  O334  1  0.94470238  0.74956572  0.56289954  1
  O  O335  1  0.94471435  0.74919773  0.81325559  1
  O  O336  1  0.19379856  0.08346458  0.06192503  1
  O  O337  1  0.19462274  0.08308305  0.31126426  1
  O  O338  1  0.19469110  0.08304904  0.56152044  1
  O  O339  1  0.19402043  0.08387227  0.81207565  1
  O  O340  1  0.19397037  0.41668203  0.06177635  1
  O  O341  1  0.19336328  0.41678989  0.31131103  1
  O  O342  1  0.19078832  0.41712676  0.56313899  1
  O  O343  1  0.19245643  0.41654844  0.81166407  1
  O  O344  1  0.19051585  0.75012740  0.06348193  1
  O  O345  1  0.19045708  0.75012054  0.31233687  1
  O  O346  1  0.18982998  0.74956256  0.56218312  1
  O  O347  1  0.18973655  0.75013798  0.81293502  1
  O  O348  1  0.69435727  0.08299701  0.06206556  1
  O  O349  1  0.69360967  0.08221397  0.31132701  1
  O  O350  1  0.69286374  0.08317677  0.56121895  1
  O  O351  1  0.69371140  0.08370322  0.81206095  1
  O  O352  1  0.69417595  0.41722722  0.06173755  1
  O  O353  1  0.69137863  0.41702048  0.31267820  1
  O  O354  1  0.69133068  0.41673806  0.56237444  1
  O  O355  1  0.69202230  0.41643727  0.81298443  1
  O  O356  1  0.69128882  0.74989759  0.06326043  1
  O  O357  1  0.69389962  0.75021030  0.31054430  1
  O  O358  1  0.69410472  0.74999665  0.56128446  1
  O  O359  1  0.69441831  0.74951527  0.81215824  1
  O  O360  1  0.30579308  0.25051296  0.18818493  1
  O  O361  1  0.30700717  0.25112429  0.43913610  1
  O  O362  1  0.30985348  0.25139062  0.68779378  1
  O  O363  1  0.30874684  0.25118374  0.93649795  1
  O  O364  1  0.30878164  0.58396108  0.18729484  1
  O  O365  1  0.30564582  0.58348234  0.43877235  1
  O  O366  1  0.30555933  0.58327339  0.68849210  1
  O  O367  1  0.30574139  0.58355210  0.93856224  1
  O  O368  1  0.30935176  0.91558682  0.18738866  1
  O  O369  1  0.30778482  0.91574096  0.43683070  1
  O  O370  1  0.30535143  0.91572287  0.68828948  1
  O  O371  1  0.30600249  0.91575122  0.93908667  1
  O  O372  1  0.80858822  0.25015280  0.18710527  1
  O  O373  1  0.80618138  0.25031160  0.43837683  1
  O  O374  1  0.80607908  0.25084086  0.68876896  1
  O  O375  1  0.80801925  0.25020001  0.93769781  1
  O  O376  1  0.80987197  0.58409410  0.18740753  1
  O  O377  1  0.80928726  0.58346244  0.43793674  1
  O  O378  1  0.80959382  0.58349041  0.68751251  1
  O  O379  1  0.80869826  0.58370731  0.93752906  1
  O  O380  1  0.80919009  0.91556203  0.18726093  1
  O  O381  1  0.80836642  0.91597918  0.43728293  1
  O  O382  1  0.80687913  0.91616032  0.68893979  1
  O  O383  1  0.81005311  0.91581247  0.93760064  1
  O  O384  1  0.23360424  0.25035753  0.03711914  1
  O  O385  1  0.23215122  0.24959626  0.28992184  1
  O  O386  1  0.23493890  0.24969571  0.54135407  1
  O  O387  1  0.23591737  0.25060718  0.78882045  1
  O  O388  1  0.23248684  0.58339089  0.04026543  1
  O  O389  1  0.23445955  0.58348073  0.28809426  1
  O  O390  1  0.23087545  0.58409372  0.53929104  1
  O  O391  1  0.23099622  0.58329550  0.78928564  1
  O  O392  1  0.23436796  0.91648249  0.04178161  1
  O  O393  1  0.23571284  0.91669660  0.28857489  1
  O  O394  1  0.23255872  0.91636473  0.53731789  1
  O  O395  1  0.23308158  0.91676186  0.79088574  1
  O  O396  1  0.73379592  0.25053953  0.03868300  1
  O  O397  1  0.73467333  0.24916683  0.28837484  1
  O  O398  1  0.73257798  0.25058839  0.53975849  1
  O  O399  1  0.73258737  0.25051527  0.79012518  1
  O  O400  1  0.73375147  0.58279346  0.03810665  1
  O  O401  1  0.73574459  0.58398463  0.28812623  1
  O  O402  1  0.73396438  0.58349065  0.53800438  1
  O  O403  1  0.73438539  0.58217939  0.78771324  1
  O  O404  1  0.73575565  0.91690422  0.03829718  1
  O  O405  1  0.73425753  0.91595508  0.28771112  1
  O  O406  1  0.73263150  0.91639659  0.53735833  1
  O  O407  1  0.73443442  0.91652416  0.79126323  1
  O  O408  1  0.26834157  0.08370259  0.21004519  1
  O  O409  1  0.26824876  0.08350818  0.46014935  1
  O  O410  1  0.26845439  0.08342664  0.71115621  1
  O  O411  1  0.26823120  0.08365330  0.96120092  1
  O  O412  1  0.26620543  0.41623672  0.20950041  1
  O  O413  1  0.26520809  0.41676709  0.46199584  1
  O  O414  1  0.26534721  0.41719560  0.70990530  1
  O  O415  1  0.26763593  0.41735040  0.96012607  1
  O  O416  1  0.26626743  0.75032789  0.21269778  1
  O  O417  1  0.26353102  0.74957980  0.46088171  1
  O  O418  1  0.26328704  0.74985730  0.71130241  1
  O  O419  1  0.26589458  0.74948069  0.96331852  1
  O  O420  1  0.76804461  0.08201507  0.21057039  1
  O  O421  1  0.76583498  0.08254545  0.45927792  1
  O  O422  1  0.76606632  0.08390526  0.70968009  1
  O  O423  1  0.76838988  0.08381227  0.96105843  1
  O  O424  1  0.76566318  0.41709568  0.21194193  1
  O  O425  1  0.76474403  0.41693312  0.46083864  1
  O  O426  1  0.76628645  0.41712100  0.71197126  1
  O  O427  1  0.76743616  0.41645901  0.96026877  1
  O  O428  1  0.76778884  0.75069801  0.20950242  1
  O  O429  1  0.76644370  0.74980466  0.45901700  1
  O  O430  1  0.76699311  0.74961853  0.70978440  1
  O  O431  1  0.76578123  0.74905007  0.96245534  1
  O  O432  1  0.01442826  0.08291165  0.16376055  1
  O  O433  1  0.01554331  0.08315462  0.41264912  1
  O  O434  1  0.01696761  0.08337436  0.66550832  1
  O  O435  1  0.01516462  0.08368605  0.91666571  1
  O  O436  1  0.01471743  0.41689087  0.16257312  1
  O  O437  1  0.01628175  0.41741867  0.41526311  1
  O  O438  1  0.01671789  0.41695358  0.66590382  1
  O  O439  1  0.01385214  0.41691983  0.91388327  1
  O  O440  1  0.01741526  0.74947512  0.16538911  1
  O  O441  1  0.01644945  0.75006126  0.41282807  1
  O  O442  1  0.01848594  0.74907566  0.66418281  1
  O  O443  1  0.01764313  0.74996901  0.91520563  1
  O  O444  1  0.51462697  0.08316418  0.16327000  1
  O  O445  1  0.51432728  0.08328623  0.41355065  1
  O  O446  1  0.51438367  0.08348054  0.66382577  1
  O  O447  1  0.51468203  0.08325968  0.91434390  1
  O  O448  1  0.51543141  0.41812217  0.16215435  1
  O  O449  1  0.51811430  0.41662776  0.41510370  1
  O  O450  1  0.51865035  0.41666413  0.66518962  1
  O  O451  1  0.51803836  0.41667314  0.91481358  1
  O  O452  1  0.51577571  0.74982152  0.16354978  1
  O  O453  1  0.51554588  0.75010091  0.41296974  1
  O  O454  1  0.51653044  0.74962403  0.66492334  1
  O  O455  1  0.51535042  0.74961189  0.91546596  1
  O  O456  1  0.48429160  0.24989344  0.08426685  1
  O  O457  1  0.48322417  0.25082962  0.33330663  1
  O  O458  1  0.48319965  0.25051643  0.58775971  1
  O  O459  1  0.48433951  0.25072168  0.83794583  1
  O  O460  1  0.48284968  0.58396887  0.08514298  1
  O  O461  1  0.48489963  0.58353950  0.33667017  1
  O  O462  1  0.48590025  0.58315832  0.58637367  1
  O  O463  1  0.48566255  0.58287196  0.83673774  1
  O  O464  1  0.48269855  0.91552708  0.08801762  1
  O  O465  1  0.48341113  0.91659297  0.33642673  1
  O  O466  1  0.48380445  0.91636110  0.58405876  1
  O  O467  1  0.48290425  0.91667437  0.83520212  1
  O  O468  1  0.98323653  0.24997427  0.08717631  1
  O  O469  1  0.98433117  0.24996793  0.33412768  1
  O  O470  1  0.98357415  0.25079558  0.58458770  1
  O  O471  1  0.98229995  0.25019192  0.83902013  1
  O  O472  1  0.98221060  0.58407373  0.08503840  1
  O  O473  1  0.98292435  0.58362514  0.33680276  1
  O  O474  1  0.98335978  0.58313539  0.58667784  1
  O  O475  1  0.98357054  0.58305131  0.83810315  1
  O  O476  1  0.98165932  0.91632260  0.08666030  1
  O  O477  1  0.98328075  0.91586644  0.33706359  1
  O  O478  1  0.98465784  0.91654362  0.58314996  1
  O  O479  1  0.98198580  0.91614463  0.83589940  1
  O  O480  1  0.08713108  0.31470080  0.07634684  1
  O  O481  1  0.08834415  0.31471730  0.32605426  1
  O  O482  1  0.08716167  0.31639158  0.57856687  1
  O  O483  1  0.08598878  0.31506409  0.82816752  1
  O  O484  1  0.08660231  0.64905379  0.07748705  1
  O  O485  1  0.08646319  0.64907171  0.32780317  1
  O  O486  1  0.08759156  0.64729773  0.57779999  1
  O  O487  1  0.08705283  0.64904765  0.82853521  1
  O  O488  1  0.08551254  0.98099419  0.07720726  1
  O  O489  1  0.08665817  0.98122603  0.32652319  1
  O  O490  1  0.08897450  0.98110340  0.57626455  1
  O  O491  1  0.08547409  0.98162631  0.82773393  1
  O  O492  1  0.58844917  0.31478321  0.07648788  1
  O  O493  1  0.58727401  0.31589946  0.32782725  1
  O  O494  1  0.58694676  0.31572425  0.57884641  1
  O  O495  1  0.58815475  0.31596606  0.82814633  1
  O  O496  1  0.58651052  0.65029245  0.07705048  1
  O  O497  1  0.58876873  0.64753269  0.32721305  1
  O  O498  1  0.59003224  0.64722282  0.57719575  1
  O  O499  1  0.58987199  0.64695859  0.82752939  1
  O  O500  1  0.58612890  0.98068787  0.07731857  1
  O  O501  1  0.58709578  0.98179736  0.32603840  1
  O  O502  1  0.58752962  0.98175104  0.57623472  1
  O  O503  1  0.58657298  0.98189663  0.82771653  1
  O  O504  1  0.41108359  0.01744151  0.17185966  1
  O  O505  1  0.41102291  0.01700438  0.42174421  1
  O  O506  1  0.41043834  0.01890329  0.67262166  1
  O  O507  1  0.41012023  0.01980466  0.92285143  1
  O  O508  1  0.41223561  0.35281948  0.17187855  1
  O  O509  1  0.41414299  0.35183638  0.42299083  1
  O  O510  1  0.41466164  0.35177436  0.67313075  1
  O  O511  1  0.41390861  0.35139873  0.92307917  1
  O  O512  1  0.41226489  0.68396101  0.17266999  1
  O  O513  1  0.41172401  0.68582667  0.42261513  1
  O  O514  1  0.41288747  0.68434153  0.67283365  1
  O  O515  1  0.41150917  0.68426679  0.92351088  1
  O  O516  1  0.91031798  0.01853732  0.17197317  1
  O  O517  1  0.91236824  0.01687261  0.42154417  1
  O  O518  1  0.91306885  0.01831223  0.67191792  1
  O  O519  1  0.91124061  0.01845917  0.92276794  1
  O  O520  1  0.91129332  0.35155275  0.17113058  1
  O  O521  1  0.91269944  0.35233438  0.42281164  1
  O  O522  1  0.91223459  0.35274449  0.67383123  1
  O  O523  1  0.91011311  0.35172133  0.92251141  1
  O  O524  1  0.91312028  0.68472190  0.17288327  1
  O  O525  1  0.91297789  0.68490390  0.42195162  1
  O  O526  1  0.91459713  0.68412985  0.67237207  1
  O  O527  1  0.91403408  0.68430326  0.92275874  1
  O  O528  1  0.16452596  0.01897095  0.20150087  1
  O  O529  1  0.16475114  0.01758608  0.45173817  1
  O  O530  1  0.16442459  0.01888390  0.70259232  1
  O  O531  1  0.16437039  0.01881520  0.95246627  1
  O  O532  1  0.16260631  0.35043401  0.20241272  1
  O  O533  1  0.16131649  0.35257856  0.45340669  1
  O  O534  1  0.16135591  0.35226532  0.70218737  1
  O  O535  1  0.16386237  0.35177952  0.95217527  1
  O  O536  1  0.16239801  0.68540065  0.20198871  1
  O  O537  1  0.15959507  0.68464088  0.45242266  1
  O  O538  1  0.15986973  0.68381594  0.70358570  1
  O  O539  1  0.16206708  0.68410583  0.95372421  1
  O  O540  1  0.66449418  0.01624061  0.20180712  1
  O  O541  1  0.66210870  0.01727775  0.45209288  1
  O  O542  1  0.66205686  0.01936540  0.70288529  1
  O  O543  1  0.66445951  0.01896639  0.95230196  1
  O  O544  1  0.66213528  0.35187094  0.20280023  1
  O  O545  1  0.66032114  0.35314584  0.45229398  1
  O  O546  1  0.66265972  0.35131645  0.70303789  1
  O  O547  1  0.66321330  0.35186656  0.95247608  1
  O  O548  1  0.66341520  0.68625655  0.20084073  1
  O  O549  1  0.66279974  0.68457041  0.45229541  1
  O  O550  1  0.66363584  0.68370037  0.70320510  1
  O  O551  1  0.66223870  0.68385165  0.95379965  1
  O  O552  1  0.33693302  0.31606756  0.04665478  1
  O  O553  1  0.33575923  0.31478824  0.29798053  1
  O  O554  1  0.33894424  0.31470568  0.54888055  1
  O  O555  1  0.34005398  0.31482034  0.79804323  1
  O  O556  1  0.33660368  0.64836070  0.04822116  1
  O  O557  1  0.33756470  0.64966680  0.29712630  1
  O  O558  1  0.33476985  0.64872330  0.54842160  1
  O  O559  1  0.33478648  0.64838761  0.79812635  1
  O  O560  1  0.33882103  0.98100645  0.04762854  1
  O  O561  1  0.33982294  0.98121449  0.29659552  1
  O  O562  1  0.33628973  0.98172941  0.54636799  1
  O  O563  1  0.33712548  0.98173061  0.79689074  1
  O  O564  1  0.83767781  0.31553182  0.04746351  1
  O  O565  1  0.83808122  0.31414325  0.29727182  1
  O  O566  1  0.83641993  0.31521887  0.54783878  1
  O  O567  1  0.83630446  0.31642422  0.79817593  1
  O  O568  1  0.83789070  0.64708812  0.04804206  1
  O  O569  1  0.83886684  0.65041947  0.29696152  1
  O  O570  1  0.83789349  0.64826260  0.54815930  1
  O  O571  1  0.83800784  0.64740610  0.79827295  1
  O  O572  1  0.83942901  0.98227928  0.04697922  1
  O  O573  1  0.83817934  0.98096347  0.29721348  1
  O  O574  1  0.83627373  0.98140664  0.54731075  1
  O  O575  1  0.83857280  0.98139153  0.79786286  1
  O  O576  1  0.41065940  0.14765685  0.17255266  1
  O  O577  1  0.41016091  0.14720763  0.42248724  1
  O  O578  1  0.41095767  0.14912615  0.67191715  1
  O  O579  1  0.41159088  0.14994017  0.92196573  1
  O  O580  1  0.41183221  0.48325964  0.17109357  1
  O  O581  1  0.41445789  0.48190374  0.42372927  1
  O  O582  1  0.41497436  0.48189104  0.67373271  1
  O  O583  1  0.41367688  0.48128927  0.92345669  1
  O  O584  1  0.41160437  0.81408896  0.17273632  1
  O  O585  1  0.41221763  0.81600263  0.42185617  1
  O  O586  1  0.41260301  0.81455407  0.67233122  1
  O  O587  1  0.41116472  0.81421225  0.92355446  1
  O  O588  1  0.91099919  0.14886937  0.17225769  1
  O  O589  1  0.91166223  0.14726618  0.42179603  1
  O  O590  1  0.91315704  0.14849333  0.67240265  1
  O  O591  1  0.91102879  0.14867191  0.92321268  1
  O  O592  1  0.91117584  0.48197195  0.17070327  1
  O  O593  1  0.91244031  0.48256318  0.42211779  1
  O  O594  1  0.91288653  0.48268320  0.67331878  1
  O  O595  1  0.90997829  0.48186892  0.92191603  1
  O  O596  1  0.91340477  0.81472870  0.17329424  1
  O  O597  1  0.91292465  0.81518924  0.42218572  1
  O  O598  1  0.91486235  0.81428398  0.67236031  1
  O  O599  1  0.91340035  0.81436413  0.92234484  1
  O  O600  1  0.08701299  0.18463779  0.07653947  1
  O  O601  1  0.08815780  0.18465480  0.32571848  1
  O  O602  1  0.08744609  0.18605746  0.57759822  1
  O  O603  1  0.08596665  0.18500565  0.82807129  1
  O  O604  1  0.08610319  0.51910600  0.07594228  1
  O  O605  1  0.08659257  0.51899741  0.32706674  1
  O  O606  1  0.08673220  0.51714701  0.57790080  1
  O  O607  1  0.08753984  0.51896103  0.82753376  1
  O  O608  1  0.08543577  0.85084471  0.07809322  1
  O  O609  1  0.08713918  0.85107480  0.32775777  1
  O  O610  1  0.08837104  0.85088519  0.57730900  1
  O  O611  1  0.08610298  0.85142910  0.82874637  1
  O  O612  1  0.58831829  0.18472311  0.07619868  1
  O  O613  1  0.58678206  0.18556611  0.32669620  1
  O  O614  1  0.58648415  0.18557763  0.57781955  1
  O  O615  1  0.58793863  0.18582680  0.82727869  1
  O  O616  1  0.58757224  0.52036471  0.07636753  1
  O  O617  1  0.58805151  0.51729857  0.32813614  1
  O  O618  1  0.58949845  0.51716886  0.57848034  1
  O  O619  1  0.58926035  0.51689249  0.82820317  1
  O  O620  1  0.58650773  0.85053486  0.07827575  1
  O  O621  1  0.58742757  0.85185292  0.32588883  1
  O  O622  1  0.58805868  0.85172919  0.57625089  1
  O  O623  1  0.58668433  0.85169143  0.82780532  1
  O  O624  1  0.33746927  0.18583823  0.04638622  1
  O  O625  1  0.33621045  0.18461140  0.29704357  1
  O  O626  1  0.33902967  0.18451934  0.54738713  1
  O  O627  1  0.33953304  0.18470635  0.79698355  1
  O  O628  1  0.33682564  0.51834986  0.04761867  1
  O  O629  1  0.33837024  0.51934493  0.29726154  1
  O  O630  1  0.33472316  0.51866340  0.54857024  1
  O  O631  1  0.33502867  0.51839882  0.79811320  1
  O  O632  1  0.33812233  0.85077073  0.04817590  1
  O  O633  1  0.33909550  0.85096117  0.29754204  1
  O  O634  1  0.33594040  0.85158134  0.54740973  1
  O  O635  1  0.33659642  0.85151536  0.79768329  1
  O  O636  1  0.83775133  0.18542862  0.04760040  1
  O  O637  1  0.83813090  0.18371719  0.29625526  1
  O  O638  1  0.83612178  0.18507552  0.54775844  1
  O  O639  1  0.83711173  0.18647191  0.79830492  1
  O  O640  1  0.83732345  0.51708187  0.04703952  1
  O  O641  1  0.83994465  0.52022079  0.29775517  1
  O  O642  1  0.83757916  0.51834733  0.54823441  1
  O  O643  1  0.83832378  0.51743848  0.79723729  1
  O  O644  1  0.83950535  0.85209495  0.04804849  1
  O  O645  1  0.83803976  0.85080410  0.29743718  1
  O  O646  1  0.83626541  0.85137665  0.54758473  1
  O  O647  1  0.83842154  0.85139377  0.79827327  1
  O  O648  1  0.16439600  0.14908228  0.20209785  1
  O  O649  1  0.16405272  0.14771993  0.45226773  1
  O  O650  1  0.16505867  0.14904832  0.70235983  1
  O  O651  1  0.16450762  0.14913811  0.95230019  1
  O  O652  1  0.16220870  0.48067197  0.20176286  1
  O  O653  1  0.16202993  0.48293243  0.45329253  1
  O  O654  1  0.16111515  0.48227662  0.70280731  1
  O  O655  1  0.16336744  0.48197509  0.95295501  1
  O  O656  1  0.16250887  0.81532666  0.20208621  1
  O  O657  1  0.15992061  0.81488308  0.45234557  1
  O  O658  1  0.15924837  0.81398930  0.70283101  1
  O  O659  1  0.16203320  0.81424581  0.95297600  1
  O  O660  1  0.66399889  0.14641883  0.20160689  1
  O  O661  1  0.66210303  0.14757996  0.45178054  1
  O  O662  1  0.66248956  0.14971073  0.70330415  1
  O  O663  1  0.66456093  0.14911138  0.95293534  1
  O  O664  1  0.66223203  0.48204279  0.20263951  1
  O  O665  1  0.66159100  0.48329982  0.45304749  1
  O  O666  1  0.66221006  0.48146100  0.70308378  1
  O  O667  1  0.66362106  0.48190640  0.95208652  1
  O  O668  1  0.66358943  0.81618979  0.20140471  1
  O  O669  1  0.66260172  0.81485552  0.45198735  1
  O  O670  1  0.66287224  0.81398415  0.70304679  1
  O  O671  1  0.66230367  0.81417145  0.95314595  1
