# generated using pymatgen
data_Na2MnFe(PO4)2
_symmetry_space_group_name_H-M   'P 1'
_cell_length_a   21.07754533
_cell_length_b   18.92906438
_cell_length_c   20.03714869
_cell_angle_alpha   90.00060429
_cell_angle_beta   90.00336924
_cell_angle_gamma   89.99908270
_symmetry_Int_Tables_number   1
_chemical_formula_structural   Na2MnFe(PO4)2
_chemical_formula_sum   'Na96 Mn48 Fe48 P96 O384'
_cell_volume   7994.38575675
_cell_formula_units_Z   48
loop_
 _symmetry_equiv_pos_site_id
 _symmetry_equiv_pos_as_xyz
  1  'x, y, z'
loop_
 _atom_site_type_symbol
 _atom_site_label
 _atom_site_symmetry_multiplicity
 _atom_site_fract_x
 _atom_site_fract_y
 _atom_site_fract_z
 _atom_site_occupancy
  Na  Na0  1  0.00238911  0.00008847  0.00058341  1
  Na  Na1  1  0.00104864  -0.00004538  0.24921867  1
  Na  Na2  1  -0.00068930  -0.00003050  0.50015262  1
  Na  Na3  1  0.00079390  0.00003152  0.74965229  1
  Na  Na4  1  0.00017946  0.33312910  -0.00062706  1
  Na  Na5  1  -0.00000426  0.33306547  0.24980998  1
  Na  Na6  1  0.00260391  0.33416509  0.50074674  1
  Na  Na7  1  0.00321596  0.33464736  0.74981963  1
  Na  Na8  1  -0.00084453  0.66637456  0.00066395  1
  Na  Na9  1  0.00152479  0.66793120  0.25082717  1
  Na  Na10  1  0.00073313  0.66727142  0.49969851  1
  Na  Na11  1  0.00046053  0.66704638  0.74943852  1
  Na  Na12  1  0.49893417  -0.00082696  0.00107112  1
  Na  Na13  1  0.49887567  -0.00124251  0.24964217  1
  Na  Na14  1  0.50256467  0.00027296  0.49974624  1
  Na  Na15  1  0.50119324  -0.00054345  0.75001760  1
  Na  Na16  1  0.49937350  0.33388113  0.00033862  1
  Na  Na17  1  0.49969338  0.33378666  0.25033508  1
  Na  Na18  1  0.50018395  0.33334497  0.49950153  1
  Na  Na19  1  0.49886903  0.33281291  0.74983652  1
  Na  Na20  1  0.49990077  0.66761953  -0.00078579  1
  Na  Na21  1  0.49958984  0.66736129  0.25058891  1
  Na  Na22  1  0.50168725  0.66738811  0.49944891  1
  Na  Na23  1  0.50235033  0.66761884  0.74961022  1
  Na  Na24  1  0.25173384  -0.00074329  0.12449968  1
  Na  Na25  1  0.25106819  -0.00023211  0.37537122  1
  Na  Na26  1  0.24881453  -0.00100574  0.62510922  1
  Na  Na27  1  0.25153569  -0.00008207  0.87411633  1
  Na  Na28  1  0.25147029  0.33407045  0.12540009  1
  Na  Na29  1  0.25006698  0.33355664  0.37627592  1
  Na  Na30  1  0.25001413  0.33380156  0.62560213  1
  Na  Na31  1  0.24979943  0.33343950  0.87355008  1
  Na  Na32  1  0.24961016  0.66737663  0.12524942  1
  Na  Na33  1  0.24731775  0.66671917  0.37536593  1
  Na  Na34  1  0.24687238  0.66600927  0.62470938  1
  Na  Na35  1  0.25092481  0.66799442  0.87537087  1
  Na  Na36  1  0.74783205  -0.00132666  0.12396197  1
  Na  Na37  1  0.74954582  -0.00056353  0.37563740  1
  Na  Na38  1  0.74756539  -0.00068587  0.62607224  1
  Na  Na39  1  0.74770846  -0.00062687  0.87480695  1
  Na  Na40  1  0.75008214  0.33332395  0.12428725  1
  Na  Na41  1  0.74788032  0.33219979  0.37443300  1
  Na  Na42  1  0.74839776  0.33315890  0.62572145  1
  Na  Na43  1  0.74797705  0.33261317  0.87494134  1
  Na  Na44  1  0.74926289  0.66681988  0.12311386  1
  Na  Na45  1  0.75138270  0.66756709  0.37566016  1
  Na  Na46  1  0.74977765  0.66659826  0.62648136  1
  Na  Na47  1  0.74875417  0.66645919  0.87500944  1
  Na  Na48  1  -0.00031023  0.16676765  -0.00070814  1
  Na  Na49  1  -0.00122095  0.16664350  0.25038003  1
  Na  Na50  1  -0.00097889  0.16696424  0.50091010  1
  Na  Na51  1  0.00283122  0.16507896  0.74937186  1
  Na  Na52  1  0.00139053  0.50024208  0.00102224  1
  Na  Na53  1  0.00167517  0.50025297  0.25000977  1
  Na  Na54  1  0.00196000  0.50025973  0.50051489  1
  Na  Na55  1  0.00146970  0.50062928  0.74950052  1
  Na  Na56  1  0.00122376  0.83338507  0.00046265  1
  Na  Na57  1  0.00176699  0.83304092  0.24953521  1
  Na  Na58  1  0.00098855  0.83253294  0.49921859  1
  Na  Na59  1  -0.00004904  0.83334758  0.75010826  1
  Na  Na60  1  0.49959057  0.16665065  0.00085798  1
  Na  Na61  1  0.49970878  0.16634815  0.24990068  1
  Na  Na62  1  0.50087775  0.16702874  0.49873740  1
  Na  Na63  1  0.50330217  0.16533184  0.75012720  1
  Na  Na64  1  0.49921939  0.49956261  -0.00025743  1
  Na  Na65  1  0.49861870  0.50059834  0.25045809  1
  Na  Na66  1  0.50146333  0.49986561  0.49976360  1
  Na  Na67  1  0.50071099  0.49941348  0.74947684  1
  Na  Na68  1  0.49966933  0.83288296  -0.00004571  1
  Na  Na69  1  0.49903087  0.83354042  0.25026214  1
  Na  Na70  1  0.50085062  0.83334500  0.49988355  1
  Na  Na71  1  0.50071192  0.83290256  0.75045583  1
  Na  Na72  1  0.25262564  0.16488432  0.12462947  1
  Na  Na73  1  0.25111377  0.16595148  0.37620241  1
  Na  Na74  1  0.24895272  0.16643764  0.62556917  1
  Na  Na75  1  0.24835647  0.16720490  0.87335159  1
  Na  Na76  1  0.25091875  0.49945073  0.12527313  1
  Na  Na77  1  0.24751645  0.50056852  0.37552963  1
  Na  Na78  1  0.24791623  0.50005013  0.62541942  1
  Na  Na79  1  0.24988676  0.50014328  0.87459820  1
  Na  Na80  1  0.25046121  0.83392367  0.12504434  1
  Na  Na81  1  0.24990671  0.83327436  0.37537325  1
  Na  Na82  1  0.25048720  0.83279825  0.62410830  1
  Na  Na83  1  0.25246638  0.83298086  0.87549250  1
  Na  Na84  1  0.74994292  0.16650014  0.12456212  1
  Na  Na85  1  0.74963081  0.16651850  0.37504467  1
  Na  Na86  1  0.74806308  0.16673884  0.62614584  1
  Na  Na87  1  0.74736604  0.16721423  0.87494884  1
  Na  Na88  1  0.75016252  0.50025020  0.12366087  1
  Na  Na89  1  0.75028873  0.50086283  0.37503170  1
  Na  Na90  1  0.75011494  0.50061268  0.62616582  1
  Na  Na91  1  0.74901275  0.50075368  0.87415318  1
  Na  Na92  1  0.74773134  0.83383517  0.12317456  1
  Na  Na93  1  0.74984013  0.83256448  0.37549922  1
  Na  Na94  1  0.74775149  0.83371530  0.62620108  1
  Na  Na95  1  0.74757797  0.83392602  0.87551719  1
  Mn  Mn96  1  0.10759903  0.08335539  0.37248133  1
  Mn  Mn97  1  0.89314338  0.58326537  0.37704284  1
  Mn  Mn98  1  0.39150567  0.58404470  0.12767268  1
  Mn  Mn99  1  0.10900408  0.08331709  0.12261998  1
  Mn  Mn100  1  0.14233493  0.24991525  0.49796689  1
  Mn  Mn101  1  0.39207395  0.58327980  0.62727570  1
  Mn  Mn102  1  0.85816618  0.41628863  0.00095878  1
  Mn  Mn103  1  0.35840126  0.08349529  0.50313609  1
  Mn  Mn104  1  0.14254617  0.24918690  0.24744928  1
  Mn  Mn105  1  0.85704752  0.75051051  0.75244322  1
  Mn  Mn106  1  0.89191674  0.91674472  0.37659221  1
  Mn  Mn107  1  0.85684992  0.08324745  0.75258342  1
  Mn  Mn108  1  0.89246206  0.91683695  0.12698202  1
  Mn  Mn109  1  0.39354167  0.91698850  0.62703522  1
  Mn  Mn110  1  0.60689141  0.08265608  0.12297929  1
  Mn  Mn111  1  0.39220936  0.58354333  0.87627365  1
  Mn  Mn112  1  0.60825899  0.08300781  0.37232674  1
  Mn  Mn113  1  0.60716968  0.41753410  0.12284861  1
  Mn  Mn114  1  0.85801659  0.41717047  0.25252888  1
  Mn  Mn115  1  0.85800942  0.41633906  0.75255384  1
  Mn  Mn116  1  0.89219811  0.25066963  0.62765894  1
  Mn  Mn117  1  0.89269975  0.58346772  0.12751444  1
  Mn  Mn118  1  0.39148101  0.24960670  0.12768530  1
  Mn  Mn119  1  0.64165388  0.24986622  0.99781912  1
  Mn  Mn120  1  0.14179567  0.91641514  0.49747335  1
  Mn  Mn121  1  0.35697389  0.41714263  0.50250684  1
  Mn  Mn122  1  0.60758401  0.41671700  0.62238619  1
  Mn  Mn123  1  0.10849221  0.41627194  0.12271317  1
  Mn  Mn124  1  0.89163433  0.91630935  0.62725294  1
  Mn  Mn125  1  0.39256686  0.24959984  0.37729334  1
  Mn  Mn126  1  0.60824675  0.41708334  0.37248686  1
  Mn  Mn127  1  0.85738303  0.08217331  0.25178179  1
  Mn  Mn128  1  0.64218737  0.58369449  0.24712268  1
  Mn  Mn129  1  0.14285428  0.58374693  0.99729076  1
  Mn  Mn130  1  0.35709490  0.74921600  0.50244795  1
  Mn  Mn131  1  0.85766711  0.08315611  0.00116626  1
  Mn  Mn132  1  0.85802780  0.41664380  0.50249796  1
  Mn  Mn133  1  0.64142272  0.58334977  0.99714318  1
  Mn  Mn134  1  0.35813934  0.08315257  0.75200182  1
  Mn  Mn135  1  0.60849702  0.75005833  0.37251407  1
  Mn  Mn136  1  0.14244128  0.24920227  0.99775673  1
  Mn  Mn137  1  0.10835870  0.75008568  0.87287533  1
  Mn  Mn138  1  0.89157922  0.25053586  0.37758891  1
  Mn  Mn139  1  0.14255678  0.91611524  0.74817133  1
  Mn  Mn140  1  0.85706870  0.75048900  0.00175847  1
  Mn  Mn141  1  0.89289246  0.24998587  0.87628506  1
  Mn  Mn142  1  0.39133974  0.58397619  0.37785199  1
  Mn  Mn143  1  0.39213579  0.24910588  0.87684731  1
  Fe  Fe144  1  0.85638750  0.08304823  0.50195707  1
  Fe  Fe145  1  0.60676353  0.08335735  0.87368467  1
  Fe  Fe146  1  0.64203149  0.91621604  0.24807522  1
  Fe  Fe147  1  0.14426570  0.91690542  0.99787486  1
  Fe  Fe148  1  0.35658133  0.74988570  0.25201748  1
  Fe  Fe149  1  0.35754491  0.08286014  0.25239614  1
  Fe  Fe150  1  0.14315519  0.58386334  0.24840909  1
  Fe  Fe151  1  0.64256455  0.25030223  0.49836927  1
  Fe  Fe152  1  0.39341162  0.24971506  0.62665186  1
  Fe  Fe153  1  0.64370195  0.58336357  0.49871378  1
  Fe  Fe154  1  0.64271431  0.24974157  0.24761329  1
  Fe  Fe155  1  0.60763634  0.08324067  0.62273248  1
  Fe  Fe156  1  0.35647635  0.41737172  0.75138382  1
  Fe  Fe157  1  0.14390925  0.91664692  0.24837375  1
  Fe  Fe158  1  0.14148979  0.58343341  0.49819282  1
  Fe  Fe159  1  0.35780168  0.08329395  0.00069770  1
  Fe  Fe160  1  0.14285865  0.25034167  0.74784116  1
  Fe  Fe161  1  0.39266195  0.91603847  0.12723973  1
  Fe  Fe162  1  0.60665050  0.74990974  0.12374900  1
  Fe  Fe163  1  0.14222648  0.58380544  0.74869373  1
  Fe  Fe164  1  0.10821053  0.08309443  0.87331976  1
  Fe  Fe165  1  0.10709246  0.75040322  0.37237965  1
  Fe  Fe166  1  0.35780412  0.74916281  0.75064095  1
  Fe  Fe167  1  0.60636158  0.74974586  0.87290616  1
  Fe  Fe168  1  0.10704539  0.08280560  0.62286714  1
  Fe  Fe169  1  0.89345054  0.58340732  0.62663232  1
  Fe  Fe170  1  0.10740824  0.75035841  0.62350475  1
  Fe  Fe171  1  0.35800677  0.75020701  0.00227480  1
  Fe  Fe172  1  0.64259663  0.58318947  0.74783836  1
  Fe  Fe173  1  0.89248769  0.91656258  0.87695206  1
  Fe  Fe174  1  0.10766477  0.41647664  0.37270994  1
  Fe  Fe175  1  0.10769244  0.41694773  0.62351178  1
  Fe  Fe176  1  0.10815228  0.75046520  0.12349558  1
  Fe  Fe177  1  0.60761105  0.75000826  0.62295643  1
  Fe  Fe178  1  0.39289890  0.91647151  0.37658877  1
  Fe  Fe179  1  0.64147531  0.25050652  0.74794622  1
  Fe  Fe180  1  0.35682891  0.41681258  0.25230167  1
  Fe  Fe181  1  0.39339865  0.91666996  0.87650576  1
  Fe  Fe182  1  0.64111992  0.91685210  0.99764066  1
  Fe  Fe183  1  0.60679920  0.41668489  0.87288446  1
  Fe  Fe184  1  0.64171022  0.91663895  0.74866672  1
  Fe  Fe185  1  0.85755268  0.75020015  0.50207670  1
  Fe  Fe186  1  0.64317400  0.91615617  0.49798588  1
  Fe  Fe187  1  0.85729565  0.75046670  0.25068862  1
  Fe  Fe188  1  0.10848580  0.41663096  0.87350321  1
  Fe  Fe189  1  0.35753315  0.41659943  0.00098307  1
  Fe  Fe190  1  0.89304324  0.58353137  0.87574649  1
  Fe  Fe191  1  0.89232281  0.24993633  0.12643734  1
  P  P192  1  0.05224373  0.24961777  0.10964682  1
  P  P193  1  0.05319631  0.25038448  0.35996302  1
  P  P194  1  0.05489970  0.24990017  0.61146957  1
  P  P195  1  0.05480298  0.24979943  0.85921711  1
  P  P196  1  0.05556667  0.58463124  0.11144214  1
  P  P197  1  0.05561414  0.58368991  0.36061477  1
  P  P198  1  0.05461050  0.58398898  0.61089108  1
  P  P199  1  0.05323942  0.58320132  0.85959919  1
  P  P200  1  0.05632532  0.91586776  0.11044054  1
  P  P201  1  0.05393435  0.91626530  0.35885110  1
  P  P202  1  0.05331660  0.91634338  0.61007230  1
  P  P203  1  0.05362585  0.91709146  0.86125114  1
  P  P204  1  0.55379223  0.25010989  0.11117755  1
  P  P205  1  0.55550668  0.25000747  0.35994875  1
  P  P206  1  0.55388680  0.24950106  0.61014223  1
  P  P207  1  0.55352591  0.25020380  0.85976238  1
  P  P208  1  0.55245051  0.58452352  0.10976932  1
  P  P209  1  0.55434698  0.58372112  0.36080987  1
  P  P210  1  0.55497604  0.58412886  0.61015787  1
  P  P211  1  0.55360575  0.58316853  0.85911773  1
  P  P212  1  0.55360354  0.91533093  0.11072849  1
  P  P213  1  0.55427569  0.91634046  0.36015081  1
  P  P214  1  0.55589246  0.91634054  0.61058831  1
  P  P215  1  0.55353793  0.91657604  0.86103559  1
  P  P216  1  0.44430050  0.08209893  0.13951686  1
  P  P217  1  0.44572843  0.08201309  0.38898784  1
  P  P218  1  0.44879560  0.08408426  0.63989604  1
  P  P219  1  0.44758375  0.08244514  0.89024285  1
  P  P220  1  0.44424837  0.41687552  0.13996666  1
  P  P221  1  0.44530625  0.41700207  0.38943124  1
  P  P222  1  0.44576150  0.41605761  0.64032918  1
  P  P223  1  0.44568336  0.41666554  0.88879490  1
  P  P224  1  0.44557348  0.75081879  0.13980910  1
  P  P225  1  0.44532052  0.75097194  0.38913953  1
  P  P226  1  0.44779598  0.74991417  0.64023118  1
  P  P227  1  0.44564521  0.75043870  0.88878978  1
  P  P228  1  0.94694025  0.08378241  0.13961010  1
  P  P229  1  0.94547712  0.08312736  0.39103375  1
  P  P230  1  0.94587331  0.08319209  0.63914706  1
  P  P231  1  0.94826835  0.08241102  0.88947869  1
  P  P232  1  0.94690213  0.41599129  0.13987446  1
  P  P233  1  0.94853983  0.41701978  0.39045122  1
  P  P234  1  0.94804383  0.41780804  0.63995487  1
  P  P235  1  0.94884909  0.41768180  0.88941268  1
  P  P236  1  0.94758551  0.75051495  0.14048534  1
  P  P237  1  0.94600664  0.75036119  0.38910916  1
  P  P238  1  0.94642616  0.74935937  0.63883591  1
  P  P239  1  0.94663399  0.75006866  0.88985667  1
  P  P240  1  0.19868555  0.08213214  0.23517669  1
  P  P241  1  0.19578538  0.08302401  0.48589346  1
  P  P242  1  0.19494365  0.08335101  0.73531264  1
  P  P243  1  0.19817061  0.08208357  0.98412165  1
  P  P244  1  0.19673407  0.41709609  0.23640891  1
  P  P245  1  0.19413756  0.41737603  0.48590375  1
  P  P246  1  0.19545510  0.41714283  0.73590046  1
  P  P247  1  0.19781621  0.41639270  0.98431247  1
  P  P248  1  0.19615944  0.75057066  0.23588217  1
  P  P249  1  0.19404850  0.74938653  0.48540797  1
  P  P250  1  0.19748103  0.74973816  0.73463225  1
  P  P251  1  0.19758173  0.75142912  0.98642193  1
  P  P252  1  0.69622742  0.08263588  0.23470374  1
  P  P253  1  0.69607173  0.08321011  0.48649067  1
  P  P254  1  0.69358486  0.08325372  0.73611992  1
  P  P255  1  0.69515414  0.08244899  0.98431711  1
  P  P256  1  0.69695536  0.41642261  0.23434228  1
  P  P257  1  0.69687213  0.41727823  0.48526943  1
  P  P258  1  0.69502284  0.41686624  0.73624102  1
  P  P259  1  0.69569404  0.41683247  0.98372089  1
  P  P260  1  0.69717786  0.75063496  0.23384250  1
  P  P261  1  0.69674491  0.74953866  0.48676647  1
  P  P262  1  0.69399156  0.74993608  0.73623283  1
  P  P263  1  0.69364404  0.75076330  0.98514356  1
  P  P264  1  0.30349708  0.24976595  0.01423460  1
  P  P265  1  0.30333441  0.24971926  0.26561958  1
  P  P266  1  0.30419713  0.25000585  0.51656594  1
  P  P267  1  0.30361106  0.25048252  0.76314960  1
  P  P268  1  0.30380980  0.58353919  0.01469605  1
  P  P269  1  0.30203041  0.58395958  0.26533367  1
  P  P270  1  0.30094114  0.58339559  0.51549873  1
  P  P271  1  0.30183739  0.58368040  0.76444517  1
  P  P272  1  0.30548512  0.91696233  0.01389502  1
  P  P273  1  0.30452587  0.91606362  0.26444780  1
  P  P274  1  0.30454271  0.91640093  0.51425573  1
  P  P275  1  0.30485421  0.91547703  0.76513022  1
  P  P276  1  0.80394710  0.24974583  0.01501912  1
  P  P277  1  0.80312814  0.24965186  0.26381478  1
  P  P278  1  0.80174960  0.24944530  0.51546369  1
  P  P279  1  0.80137403  0.24990319  0.76510959  1
  P  P280  1  0.80470049  0.58327737  0.01320557  1
  P  P281  1  0.80344214  0.58495370  0.26475201  1
  P  P282  1  0.80365846  0.58420789  0.51597820  1
  P  P283  1  0.80398002  0.58355655  0.76444635  1
  P  P284  1  0.80277414  0.91686991  0.01348205  1
  P  P285  1  0.80151354  0.91530478  0.26443873  1
  P  P286  1  0.80208211  0.91634152  0.51521248  1
  P  P287  1  0.80189302  0.91664677  0.76587625  1
  O  O288  1  0.05633028  0.24931887  0.18636947  1
  O  O289  1  0.05649739  0.24955806  0.43674856  1
  O  O290  1  0.05897284  0.24989425  0.68824775  1
  O  O291  1  0.05715730  0.24981572  0.93607969  1
  O  O292  1  0.05985751  0.58419055  0.18823918  1
  O  O293  1  0.05835808  0.58379064  0.43750547  1
  O  O294  1  0.05893824  0.58421855  0.68765762  1
  O  O295  1  0.05686642  0.58393179  0.93638483  1
  O  O296  1  0.06072655  0.91680043  0.18719101  1
  O  O297  1  0.05651904  0.91693684  0.43565537  1
  O  O298  1  0.05639246  0.91611226  0.68685033  1
  O  O299  1  0.05906282  0.91654547  0.93787579  1
  O  O300  1  0.55826883  0.25008158  0.18793632  1
  O  O301  1  0.55988028  0.25013334  0.43681166  1
  O  O302  1  0.55816449  0.25034418  0.68689874  1
  O  O303  1  0.55581706  0.25052300  0.93660924  1
  O  O304  1  0.55540036  0.58392228  0.18658541  1
  O  O305  1  0.55952768  0.58365763  0.43753111  1
  O  O306  1  0.55887549  0.58321620  0.68693961  1
  O  O307  1  0.55566775  0.58309363  0.93596039  1
  O  O308  1  0.55820606  0.91600045  0.18745691  1
  O  O309  1  0.55957653  0.91622119  0.43687192  1
  O  O310  1  0.55890686  0.91617866  0.68745648  1
  O  O311  1  0.55701675  0.91659126  0.93783189  1
  O  O312  1  0.44066789  0.08321474  0.06272298  1
  O  O313  1  0.44140672  0.08258470  0.31219320  1
  O  O314  1  0.44518440  0.08367913  0.56316615  1
  O  O315  1  0.44422128  0.08303991  0.81349892  1
  O  O316  1  0.44015296  0.41673663  0.06309629  1
  O  O317  1  0.44037617  0.41733153  0.31264028  1
  O  O318  1  0.44290860  0.41715519  0.56351159  1
  O  O319  1  0.44027646  0.41687557  0.81211987  1
  O  O320  1  0.44123046  0.75004627  0.06299158  1
  O  O321  1  0.44058639  0.74989213  0.31238747  1
  O  O322  1  0.44355512  0.74958871  0.56352157  1
  O  O323  1  0.44106421  0.74948371  0.81210436  1
  O  O324  1  0.94376168  0.08280217  0.06284753  1
  O  O325  1  0.94227388  0.08276922  0.31419074  1
  O  O326  1  0.94014400  0.08323881  0.56249998  1
  O  O327  1  0.94414833  0.08261531  0.81275760  1
  O  O328  1  0.94385037  0.41672657  0.06307769  1
  O  O329  1  0.94425150  0.41697244  0.31373873  1
  O  O330  1  0.94416919  0.41699979  0.56325961  1
  O  O331  1  0.94492865  0.41718838  0.81268379  1
  O  O332  1  0.94302349  0.75063607  0.06378737  1
  O  O333  1  0.94102940  0.75064133  0.31246771  1
  O  O334  1  0.94157360  0.75021894  0.56211956  1
  O  O335  1  0.94351572  0.75035478  0.81303306  1
  O  O336  1  0.19489021  0.08264081  0.06088184  1
  O  O337  1  0.19461636  0.08283883  0.31185062  1
  O  O338  1  0.19096862  0.08271371  0.56266802  1
  O  O339  1  0.19107449  0.08252673  0.81214262  1
  O  O340  1  0.19418784  0.41640246  0.06109040  1
  O  O341  1  0.19197357  0.41624166  0.31310678  1
  O  O342  1  0.19036116  0.41662559  0.56278609  1
  O  O343  1  0.19137597  0.41710801  0.81266698  1
  O  O344  1  0.19281705  0.75082440  0.06302576  1
  O  O345  1  0.19173424  0.75077681  0.31261007  1
  O  O346  1  0.19015106  0.75046470  0.56222988  1
  O  O347  1  0.19422127  0.75068751  0.81142096  1
  O  O348  1  0.69223937  0.08280522  0.06109072  1
  O  O349  1  0.69410764  0.08263353  0.31157520  1
  O  O350  1  0.69180913  0.08340869  0.56322995  1
  O  O351  1  0.68971895  0.08319484  0.81292294  1
  O  O352  1  0.69254776  0.41714534  0.06051888  1
  O  O353  1  0.69400547  0.41719756  0.31115859  1
  O  O354  1  0.69402707  0.41727621  0.56207749  1
  O  O355  1  0.69088450  0.41676697  0.81294996  1
  O  O356  1  0.68978795  0.74991383  0.06190578  1
  O  O357  1  0.69408919  0.74993219  0.31063886  1
  O  O358  1  0.69228468  0.74964868  0.56345110  1
  O  O359  1  0.69009413  0.74990431  0.81303545  1
  O  O360  1  0.30580543  0.24970346  0.18872499  1
  O  O361  1  0.30756042  0.24967319  0.43976702  1
  O  O362  1  0.30873872  0.24940816  0.68656487  1
  O  O363  1  0.30579588  0.24976805  0.93741137  1
  O  O364  1  0.30555283  0.58408752  0.18861190  1
  O  O365  1  0.30501083  0.58365235  0.43881098  1
  O  O366  1  0.30524331  0.58355600  0.68777703  1
  O  O367  1  0.30660570  0.58394077  0.93790700  1
  O  O368  1  0.30860299  0.91596374  0.18766387  1
  O  O369  1  0.30883575  0.91659056  0.43751548  1
  O  O370  1  0.30780135  0.91635237  0.68831754  1
  O  O371  1  0.30993981  0.91670431  0.93714319  1
  O  O372  1  0.80817466  0.24995321  0.18714011  1
  O  O373  1  0.80547825  0.25007874  0.43869026  1
  O  O374  1  0.80586660  0.25014388  0.68842060  1
  O  O375  1  0.80735765  0.24978038  0.93819279  1
  O  O376  1  0.80628534  0.58405661  0.18791524  1
  O  O377  1  0.80754724  0.58375466  0.43923156  1
  O  O378  1  0.80941800  0.58345323  0.68780490  1
  O  O379  1  0.80941273  0.58331709  0.93644012  1
  O  O380  1  0.80533516  0.91605129  0.18772589  1
  O  O381  1  0.80579542  0.91613315  0.43852582  1
  O  O382  1  0.80617426  0.91651843  0.68916418  1
  O  O383  1  0.80837299  0.91685303  0.93684761  1
  O  O384  1  0.23411396  0.24942002  0.04047918  1
  O  O385  1  0.23388640  0.24960868  0.29152694  1
  O  O386  1  0.23432985  0.25004823  0.54102904  1
  O  O387  1  0.23316037  0.25059766  0.78664013  1
  O  O388  1  0.23423565  0.58349366  0.04027037  1
  O  O389  1  0.23196977  0.58409464  0.28999624  1
  O  O390  1  0.23083861  0.58317962  0.53966980  1
  O  O391  1  0.23191416  0.58386652  0.78965630  1
  O  O392  1  0.23514665  0.91663524  0.03783275  1
  O  O393  1  0.23420160  0.91612384  0.28856482  1
  O  O394  1  0.23448346  0.91599906  0.53824460  1
  O  O395  1  0.23507779  0.91625098  0.79012029  1
  O  O396  1  0.73402269  0.24975028  0.03947389  1
  O  O397  1  0.73274917  0.24930999  0.28747663  1
  O  O398  1  0.73161335  0.24995962  0.53994943  1
  O  O399  1  0.73112536  0.24993620  0.78888304  1
  O  O400  1  0.73448135  0.58350664  0.03681401  1
  O  O401  1  0.73391672  0.58453927  0.29035460  1
  O  O402  1  0.73350581  0.58376235  0.54031781  1
  O  O403  1  0.73333845  0.58374328  0.78727513  1
  O  O404  1  0.73218206  0.91658799  0.03631568  1
  O  O405  1  0.73158700  0.91577605  0.28945400  1
  O  O406  1  0.73200428  0.91623604  0.53989901  1
  O  O407  1  0.73144954  0.91657095  0.78927430  1
  O  O408  1  0.26879563  0.08208343  0.21076763  1
  O  O409  1  0.26593762  0.08310396  0.46232717  1
  O  O410  1  0.26512544  0.08241337  0.71126261  1
  O  O411  1  0.26816545  0.08307249  0.95920236  1
  O  O412  1  0.26705556  0.41697158  0.21255727  1
  O  O413  1  0.26418435  0.41700751  0.46176822  1
  O  O414  1  0.26583233  0.41699433  0.71189166  1
  O  O415  1  0.26787318  0.41666521  0.95974302  1
  O  O416  1  0.26657040  0.75056672  0.21197912  1
  O  O417  1  0.26412194  0.74996745  0.46130985  1
  O  O418  1  0.26747557  0.74969766  0.70967220  1
  O  O419  1  0.26798941  0.75107768  0.96275265  1
  O  O420  1  0.76556719  0.08238867  0.20853171  1
  O  O421  1  0.76621894  0.08298971  0.46202484  1
  O  O422  1  0.76367908  0.08302530  0.71182784  1
  O  O423  1  0.76481225  0.08308644  0.95899251  1
  O  O424  1  0.76654920  0.41692586  0.20891421  1
  O  O425  1  0.76643757  0.41681834  0.45955317  1
  O  O426  1  0.76502505  0.41689508  0.71177773  1
  O  O427  1  0.76546390  0.41664637  0.95871091  1
  O  O428  1  0.76699637  0.75035349  0.20850230  1
  O  O429  1  0.76701910  0.74980676  0.46263363  1
  O  O430  1  0.76413236  0.75012340  0.71209228  1
  O  O431  1  0.76374127  0.75036709  0.96095691  1
  O  O432  1  0.01667151  0.08330151  0.16480786  1
  O  O433  1  0.01532521  0.08324767  0.41571197  1
  O  O434  1  0.01645319  0.08282724  0.66205067  1
  O  O435  1  0.01840623  0.08328568  0.91399158  1
  O  O436  1  0.01665571  0.41656123  0.16502697  1
  O  O437  1  0.01865099  0.41726944  0.41462457  1
  O  O438  1  0.01826319  0.41764567  0.66411617  1
  O  O439  1  0.01891805  0.41690942  0.91417590  1
  O  O440  1  0.01788288  0.75060020  0.16424395  1
  O  O441  1  0.01659796  0.75011662  0.41217023  1
  O  O442  1  0.01679111  0.74981356  0.66266045  1
  O  O443  1  0.01634279  0.74980939  0.91512590  1
  O  O444  1  0.51428021  0.08242999  0.16394762  1
  O  O445  1  0.51582608  0.08291345  0.41297748  1
  O  O446  1  0.51881631  0.08286022  0.66446053  1
  O  O447  1  0.51756804  0.08304077  0.91512411  1
  O  O448  1  0.51430023  0.41724369  0.16404161  1
  O  O449  1  0.51546439  0.41665369  0.41305524  1
  O  O450  1  0.51560795  0.41632886  0.66505535  1
  O  O451  1  0.51618079  0.41684142  0.91206407  1
  O  O452  1  0.51584922  0.75063989  0.16377303  1
  O  O453  1  0.51546921  0.75072633  0.41288200  1
  O  O454  1  0.51803240  0.75032685  0.66409419  1
  O  O455  1  0.51615232  0.75004997  0.91224615  1
  O  O456  1  0.48372043  0.25011764  0.08707383  1
  O  O457  1  0.48531577  0.24986853  0.33633516  1
  O  O458  1  0.48364035  0.25036160  0.58600421  1
  O  O459  1  0.48388901  0.24937284  0.83418547  1
  O  O460  1  0.48289494  0.58406610  0.08429974  1
  O  O461  1  0.48414273  0.58397145  0.33724953  1
  O  O462  1  0.48494672  0.58349948  0.58573634  1
  O  O463  1  0.48401380  0.58346476  0.83338089  1
  O  O464  1  0.48316951  0.91584858  0.08719586  1
  O  O465  1  0.48388265  0.91622490  0.33681768  1
  O  O466  1  0.48601584  0.91659931  0.58566321  1
  O  O467  1  0.48334981  0.91624843  0.83641559  1
  O  O468  1  0.98233225  0.24976651  0.08487240  1
  O  O469  1  0.98343644  0.25000709  0.33502201  1
  O  O470  1  0.98492394  0.25034170  0.58694523  1
  O  O471  1  0.98519017  0.24967834  0.83340489  1
  O  O472  1  0.98554863  0.58386379  0.08728165  1
  O  O473  1  0.98578286  0.58397905  0.33557791  1
  O  O474  1  0.98433765  0.58376673  0.58664096  1
  O  O475  1  0.98320455  0.58390943  0.83487702  1
  O  O476  1  0.98608244  0.91654216  0.08669590  1
  O  O477  1  0.98424691  0.91656644  0.33357184  1
  O  O478  1  0.98366290  0.91628886  0.58470225  1
  O  O479  1  0.98327473  0.91661867  0.83738665  1
  O  O480  1  0.08631953  0.31469393  0.07714483  1
  O  O481  1  0.08710460  0.31568150  0.32776720  1
  O  O482  1  0.08865028  0.31511175  0.57889523  1
  O  O483  1  0.08915422  0.31504727  0.82721955  1
  O  O484  1  0.08863847  0.65005417  0.07842091  1
  O  O485  1  0.08973021  0.64882198  0.32802190  1
  O  O486  1  0.08797710  0.64906424  0.57757706  1
  O  O487  1  0.08759738  0.64802786  0.82668917  1
  O  O488  1  0.09042352  0.98051314  0.07687583  1
  O  O489  1  0.08854733  0.98107885  0.32625437  1
  O  O490  1  0.08744247  0.98149223  0.57771093  1
  O  O491  1  0.08687739  0.98217112  0.82796110  1
  O  O492  1  0.58721891  0.31509657  0.07795601  1
  O  O493  1  0.58908974  0.31492043  0.32669965  1
  O  O494  1  0.58785267  0.31426999  0.57669377  1
  O  O495  1  0.58734775  0.31537740  0.82701855  1
  O  O496  1  0.58641733  0.64986952  0.07777926  1
  O  O497  1  0.58770848  0.64882106  0.32752612  1
  O  O498  1  0.58849370  0.64951085  0.57754199  1
  O  O499  1  0.58813900  0.64827541  0.82716108  1
  O  O500  1  0.58717824  0.98018885  0.07706163  1
  O  O501  1  0.58751192  0.98136743  0.32663961  1
  O  O502  1  0.58986204  0.98140806  0.57787804  1
  O  O503  1  0.58698454  0.98170701  0.82799900  1
  O  O504  1  0.41092508  0.01660720  0.17198184  1
  O  O505  1  0.41284151  0.01657743  0.42199244  1
  O  O506  1  0.41446690  0.01924907  0.67258350  1
  O  O507  1  0.41373377  0.01731864  0.92272431  1
  O  O508  1  0.41070237  0.35176837  0.17313730  1
  O  O509  1  0.41188579  0.35185953  0.42241470  1
  O  O510  1  0.41177909  0.35081142  0.67247629  1
  O  O511  1  0.41257325  0.35158122  0.92238158  1
  O  O512  1  0.41185090  0.68604366  0.17341494  1
  O  O513  1  0.41183895  0.68609665  0.42290032  1
  O  O514  1  0.41417308  0.68485412  0.67343892  1
  O  O515  1  0.41217641  0.68563002  0.92259107  1
  O  O516  1  0.91278533  0.01869810  0.17235464  1
  O  O517  1  0.91132197  0.01798397  0.42352397  1
  O  O518  1  0.91269592  0.01813269  0.67270084  1
  O  O519  1  0.91477084  0.01730316  0.92252033  1
  O  O520  1  0.91308960  0.35060052  0.17200699  1
  O  O521  1  0.91487337  0.35193894  0.42342498  1
  O  O522  1  0.91429744  0.35286437  0.67315394  1
  O  O523  1  0.91467541  0.35254727  0.92178620  1
  O  O524  1  0.91388521  0.68556485  0.17361371  1
  O  O525  1  0.91276346  0.68538729  0.42278564  1
  O  O526  1  0.91332919  0.68406939  0.67187144  1
  O  O527  1  0.91249432  0.68481811  0.92188554  1
  O  O528  1  0.16505371  0.01702784  0.20245573  1
  O  O529  1  0.16243827  0.01810522  0.45238776  1
  O  O530  1  0.16081428  0.01857632  0.70211818  1
  O  O531  1  0.16460707  0.01669745  0.95158910  1
  O  O532  1  0.16358355  0.35207192  0.20263737  1
  O  O533  1  0.16043617  0.35246878  0.45252951  1
  O  O534  1  0.16187689  0.35221683  0.70253924  1
  O  O535  1  0.16387591  0.35138420  0.95163435  1
  O  O536  1  0.16274203  0.68545290  0.20270212  1
  O  O537  1  0.16068474  0.68394758  0.45292796  1
  O  O538  1  0.16298378  0.68471280  0.70261857  1
  O  O539  1  0.16423153  0.68647810  0.95279767  1
  O  O540  1  0.66165246  0.01740706  0.20292927  1
  O  O541  1  0.66253737  0.01797048  0.45351101  1
  O  O542  1  0.65992596  0.01809056  0.70316968  1
  O  O543  1  0.66092196  0.01731194  0.95204378  1
  O  O544  1  0.66286665  0.35114691  0.20236195  1
  O  O545  1  0.66229771  0.35225088  0.45325613  1
  O  O546  1  0.66137241  0.35174305  0.70318645  1
  O  O547  1  0.66123351  0.35179258  0.95155617  1
  O  O548  1  0.66261478  0.68585430  0.20106140  1
  O  O549  1  0.66354051  0.68437063  0.45341441  1
  O  O550  1  0.66057155  0.68481062  0.70301172  1
  O  O551  1  0.65973852  0.68598777  0.95168876  1
  O  O552  1  0.33769951  0.31497590  0.04634915  1
  O  O553  1  0.33754593  0.31493221  0.29769993  1
  O  O554  1  0.33823903  0.31511447  0.54892127  1
  O  O555  1  0.33686485  0.31558243  0.79629057  1
  O  O556  1  0.33786820  0.64869025  0.04724803  1
  O  O557  1  0.33571982  0.64919758  0.29802132  1
  O  O558  1  0.33461822  0.64841373  0.54847864  1
  O  O559  1  0.33600908  0.64876505  0.79686730  1
  O  O560  1  0.33860482  0.98231243  0.04691270  1
  O  O561  1  0.33825665  0.98100955  0.29766797  1
  O  O562  1  0.33791450  0.98142391  0.54769579  1
  O  O563  1  0.33957866  0.98024131  0.79783392  1
  O  O564  1  0.83805500  0.31478825  0.04757590  1
  O  O565  1  0.83615286  0.31479094  0.29757971  1
  O  O566  1  0.83575199  0.31450758  0.54826207  1
  O  O567  1  0.83524727  0.31486455  0.79801201  1
  O  O568  1  0.83808182  0.64832106  0.04656508  1
  O  O569  1  0.83744023  0.65039121  0.29657534  1
  O  O570  1  0.83742262  0.64934769  0.54875013  1
  O  O571  1  0.83716549  0.64857469  0.79805145  1
  O  O572  1  0.83572172  0.98194693  0.04712372  1
  O  O573  1  0.83558788  0.98018763  0.29744223  1
  O  O574  1  0.83555807  0.98158871  0.54804861  1
  O  O575  1  0.83554135  0.98166865  0.79885546  1
  O  O576  1  0.41031389  0.14682723  0.17300965  1
  O  O577  1  0.41198466  0.14692402  0.42221678  1
  O  O578  1  0.41546399  0.14932817  0.67277711  1
  O  O579  1  0.41322699  0.14726573  0.92304105  1
  O  O580  1  0.41032293  0.48178291  0.17306973  1
  O  O581  1  0.41208193  0.48208325  0.42292278  1
  O  O582  1  0.41143711  0.48094526  0.67323898  1
  O  O583  1  0.41232217  0.48163991  0.92233980  1
  O  O584  1  0.41201015  0.81594971  0.17269186  1
  O  O585  1  0.41209850  0.81633914  0.42189854  1
  O  O586  1  0.41385262  0.81478400  0.67316517  1
  O  O587  1  0.41266844  0.81563113  0.92220113  1
  O  O588  1  0.91293506  0.14903627  0.17169001  1
  O  O589  1  0.91111165  0.14806028  0.42356389  1
  O  O590  1  0.91310634  0.14833322  0.67294483  1
  O  O591  1  0.91411609  0.14752080  0.92183217  1
  O  O592  1  0.91280828  0.48102203  0.17261624  1
  O  O593  1  0.91484066  0.48214698  0.42320418  1
  O  O594  1  0.91442944  0.48304964  0.67243813  1
  O  O595  1  0.91534253  0.48291313  0.92201036  1
  O  O596  1  0.91379109  0.81553398  0.17355736  1
  O  O597  1  0.91280669  0.81536696  0.42283343  1
  O  O598  1  0.91283815  0.81416218  0.67252998  1
  O  O599  1  0.91265237  0.81527358  0.92238564  1
  O  O600  1  0.08626116  0.18458607  0.07689457  1
  O  O601  1  0.08727204  0.18535240  0.32713256  1
  O  O602  1  0.08818856  0.18460912  0.57843217  1
  O  O603  1  0.08945138  0.18477432  0.82724150  1
  O  O604  1  0.08945927  0.51971531  0.07831981  1
  O  O605  1  0.08954254  0.51857995  0.32796309  1
  O  O606  1  0.08826064  0.51886438  0.57796096  1
  O  O607  1  0.08714887  0.51806352  0.82717719  1
  O  O608  1  0.08952101  0.85047278  0.07747366  1
  O  O609  1  0.08823550  0.85104566  0.32684204  1
  O  O610  1  0.08741562  0.85119511  0.57773950  1
  O  O611  1  0.08704426  0.85204945  0.82766362  1
  O  O612  1  0.58710263  0.18489009  0.07815223  1
  O  O613  1  0.58902004  0.18488004  0.32686825  1
  O  O614  1  0.58706866  0.18410153  0.57727911  1
  O  O615  1  0.58825739  0.18521112  0.82787176  1
  O  O616  1  0.58687788  0.51965567  0.07721044  1
  O  O617  1  0.58751398  0.51867969  0.32728391  1
  O  O618  1  0.58912025  0.51937757  0.57688598  1
  O  O619  1  0.58792282  0.51812346  0.82681742  1
  O  O620  1  0.58680014  0.85023043  0.07748449  1
  O  O621  1  0.58772239  0.85146855  0.32656491  1
  O  O622  1  0.58957963  0.85115038  0.57766801  1
  O  O623  1  0.58737347  0.85164947  0.82792688  1
  O  O624  1  0.33813679  0.18463527  0.04609606  1
  O  O625  1  0.33771814  0.18443852  0.29747687  1
  O  O626  1  0.33844257  0.18511158  0.54940062  1
  O  O627  1  0.33652621  0.18532894  0.79701981  1
  O  O628  1  0.33782249  0.51818997  0.04661708  1
  O  O629  1  0.33575355  0.51888689  0.29811359  1
  O  O630  1  0.33486231  0.51847408  0.54826338  1
  O  O631  1  0.33579208  0.51859434  0.79708790  1
  O  O632  1  0.33914772  0.85212532  0.04755878  1
  O  O633  1  0.33793797  0.85096155  0.29771024  1
  O  O634  1  0.33826473  0.85141408  0.54724167  1
  O  O635  1  0.33860337  0.85006627  0.79722392  1
  O  O636  1  0.83794955  0.18467925  0.04762356  1
  O  O637  1  0.83643905  0.18454086  0.29705499  1
  O  O638  1  0.83525844  0.18423367  0.54811516  1
  O  O639  1  0.83490225  0.18474811  0.79793850  1
  O  O640  1  0.83798836  0.51815430  0.04640884  1
  O  O641  1  0.83796294  0.52012418  0.29748232  1
  O  O642  1  0.83776077  0.51924010  0.54892608  1
  O  O643  1  0.83721633  0.51858249  0.79812629  1
  O  O644  1  0.83596242  0.85194471  0.04721730  1
  O  O645  1  0.83531198  0.85007013  0.29690816  1
  O  O646  1  0.83586474  0.85123495  0.54811980  1
  O  O647  1  0.83557843  0.85166243  0.79891664  1
  O  O648  1  0.16515727  0.14722403  0.20192014  1
  O  O649  1  0.16249833  0.14822348  0.45277464  1
  O  O650  1  0.16171927  0.14874032  0.70260128  1
  O  O651  1  0.16342262  0.14673290  0.95152721  1
  O  O652  1  0.16357580  0.48239168  0.20345321  1
  O  O653  1  0.16057032  0.48260784  0.45330402  1
  O  O654  1  0.16207605  0.48239281  0.70292101  1
  O  O655  1  0.16360582  0.48133460  0.95162674  1
  O  O656  1  0.16292334  0.81560727  0.20238015  1
  O  O657  1  0.16006306  0.81395775  0.45171586  1
  O  O658  1  0.16338148  0.81462861  0.70161534  1
  O  O659  1  0.16450838  0.81652045  0.95289143  1
  O  O660  1  0.66178326  0.14771421  0.20266601  1
  O  O661  1  0.66260429  0.14827227  0.45333880  1
  O  O662  1  0.66002152  0.14842976  0.70305452  1
  O  O663  1  0.66046234  0.14729844  0.95195111  1
  O  O664  1  0.66262155  0.48149409  0.20187131  1
  O  O665  1  0.66304820  0.48274959  0.45307493  1
  O  O666  1  0.66151344  0.48207370  0.70322617  1
  O  O667  1  0.66135912  0.48170078  0.95106537  1
  O  O668  1  0.66273050  0.81573266  0.20170758  1
  O  O669  1  0.66317437  0.81453170  0.45338068  1
  O  O670  1  0.66036942  0.81507909  0.70330616  1
  O  O671  1  0.65995661  0.81598176  0.95248770  1
