# generated using pymatgen
data_Na2MnFe(PO4)2
_symmetry_space_group_name_H-M   'P 1'
_cell_length_a   21.08666241
_cell_length_b   18.93894725
_cell_length_c   20.04501288
_cell_angle_alpha   89.99987324
_cell_angle_beta   89.99559127
_cell_angle_gamma   89.99932962
_symmetry_Int_Tables_number   1
_chemical_formula_structural   Na2MnFe(PO4)2
_chemical_formula_sum   'Na96 Mn48 Fe48 P96 O384'
_cell_volume   8005.16002433
_cell_formula_units_Z   48
loop_
 _symmetry_equiv_pos_site_id
 _symmetry_equiv_pos_as_xyz
  1  'x, y, z'
loop_
 _atom_site_type_symbol
 _atom_site_label
 _atom_site_symmetry_multiplicity
 _atom_site_fract_x
 _atom_site_fract_y
 _atom_site_fract_z
 _atom_site_occupancy
  Na  Na0  1  0.00094348  0.00094077  -0.00072211  1
  Na  Na1  1  -0.00332279  -0.00012740  0.25072380  1
  Na  Na2  1  -0.00468371  -0.00105011  0.50057698  1
  Na  Na3  1  0.00020673  0.00061690  0.74947815  1
  Na  Na4  1  0.00257611  0.33383617  -0.00033693  1
  Na  Na5  1  0.00017639  0.33345302  0.24996803  1
  Na  Na6  1  0.00122734  0.33352704  0.50023598  1
  Na  Na7  1  0.00366166  0.33390457  0.74996065  1
  Na  Na8  1  -0.00039092  0.66660757  -0.00025044  1
  Na  Na9  1  0.00036529  0.66718283  0.24957113  1
  Na  Na10  1  0.00004854  0.66666795  0.50133022  1
  Na  Na11  1  0.00132785  0.66778300  0.74966202  1
  Na  Na12  1  0.49984705  -0.00049877  -0.00025414  1
  Na  Na13  1  0.50033973  0.00047683  0.25009289  1
  Na  Na14  1  0.50103035  -0.00009309  0.50033528  1
  Na  Na15  1  0.50244769  0.00081465  0.74964418  1
  Na  Na16  1  0.49826558  0.33233119  0.00048782  1
  Na  Na17  1  0.50027253  0.33342489  0.25122928  1
  Na  Na18  1  0.50078408  0.33390618  0.49958982  1
  Na  Na19  1  0.49968802  0.33386762  0.74922290  1
  Na  Na20  1  0.49802509  0.66590631  -0.00032936  1
  Na  Na21  1  0.49975727  0.66713479  0.24984020  1
  Na  Na22  1  0.50037777  0.66650065  0.50005300  1
  Na  Na23  1  0.50117806  0.66727877  0.75047656  1
  Na  Na24  1  0.25268066  0.00063653  0.12429185  1
  Na  Na25  1  0.25166787  0.00030450  0.37419633  1
  Na  Na26  1  0.25089612  0.00067683  0.62559637  1
  Na  Na27  1  0.25091324  -0.00029896  0.87513845  1
  Na  Na28  1  0.24946556  0.33309342  0.12503403  1
  Na  Na29  1  0.24993635  0.33338906  0.37402294  1
  Na  Na30  1  0.25022833  0.33380865  0.62487451  1
  Na  Na31  1  0.24987184  0.33320655  0.87605016  1
  Na  Na32  1  0.24894447  0.66723348  0.12592561  1
  Na  Na33  1  0.24775094  0.66650941  0.37492230  1
  Na  Na34  1  0.24694154  0.66638389  0.62414888  1
  Na  Na35  1  0.24778574  0.66662080  0.87534086  1
  Na  Na36  1  0.74912869  0.00067002  0.12527094  1
  Na  Na37  1  0.75197925  0.00123495  0.37575281  1
  Na  Na38  1  0.75058003  0.00026755  0.62461799  1
  Na  Na39  1  0.74678684  -0.00079518  0.87470528  1
  Na  Na40  1  0.74995479  0.33314771  0.12440444  1
  Na  Na41  1  0.74952333  0.33316873  0.37584334  1
  Na  Na42  1  0.74733504  0.33253916  0.62492949  1
  Na  Na43  1  0.74891203  0.33365324  0.87427694  1
  Na  Na44  1  0.75245125  0.66692920  0.12628695  1
  Na  Na45  1  0.75214288  0.66678585  0.37471331  1
  Na  Na46  1  0.75116547  0.66705766  0.62384722  1
  Na  Na47  1  0.75206866  0.66764508  0.87500702  1
  Na  Na48  1  0.00062696  0.16622163  -0.00064302  1
  Na  Na49  1  -0.00280468  0.16718599  0.25050216  1
  Na  Na50  1  -0.00230569  0.16681146  0.50088842  1
  Na  Na51  1  0.00067845  0.16596324  0.74911594  1
  Na  Na52  1  0.00124053  0.49956032  0.00056525  1
  Na  Na53  1  -0.00045940  0.49995264  0.25045684  1
  Na  Na54  1  0.00062901  0.49985471  0.50036394  1
  Na  Na55  1  0.00297577  0.49905615  0.75022001  1
  Na  Na56  1  0.00171382  0.83254419  -0.00120852  1
  Na  Na57  1  -0.00015911  0.83304830  0.24925223  1
  Na  Na58  1  -0.00112501  0.83365135  0.50102834  1
  Na  Na59  1  0.00132787  0.83289509  0.74977216  1
  Na  Na60  1  0.49918830  0.16628308  0.00141791  1
  Na  Na61  1  0.50058165  0.16653211  0.25023317  1
  Na  Na62  1  0.50229743  0.16563544  0.49912924  1
  Na  Na63  1  0.50039174  0.16619355  0.74902188  1
  Na  Na64  1  0.49996068  0.49929864  -0.00090360  1
  Na  Na65  1  0.49721978  0.50148427  0.25011337  1
  Na  Na66  1  0.49847414  0.50027316  0.50034105  1
  Na  Na67  1  0.50049651  0.49911834  0.74944991  1
  Na  Na68  1  0.49926044  0.83389370  -0.00002747  1
  Na  Na69  1  0.49987829  0.83372503  0.24997368  1
  Na  Na70  1  0.50247714  0.83236025  0.50083561  1
  Na  Na71  1  0.50106575  0.83383382  0.75056673  1
  Na  Na72  1  0.25286700  0.16567307  0.12426103  1
  Na  Na73  1  0.25192150  0.16585398  0.37391482  1
  Na  Na74  1  0.24958614  0.16692086  0.62558305  1
  Na  Na75  1  0.25096215  0.16659055  0.87476384  1
  Na  Na76  1  0.24868500  0.50025695  0.12606814  1
  Na  Na77  1  0.24963494  0.49989991  0.37473885  1
  Na  Na78  1  0.24946298  0.49961940  0.62427978  1
  Na  Na79  1  0.24870405  0.49982918  0.87579158  1
  Na  Na80  1  0.24917485  0.83367083  0.12503715  1
  Na  Na81  1  0.24867964  0.83349239  0.37430969  1
  Na  Na82  1  0.24769557  0.83414159  0.62523938  1
  Na  Na83  1  0.24921440  0.83359830  0.87579519  1
  Na  Na84  1  0.74901257  0.16654744  0.12483533  1
  Na  Na85  1  0.75025977  0.16635952  0.37549598  1
  Na  Na86  1  0.74943602  0.16611585  0.62527683  1
  Na  Na87  1  0.74866844  0.16591575  0.87565427  1
  Na  Na88  1  0.75307851  0.49886649  0.12496115  1
  Na  Na89  1  0.75252828  0.49920088  0.37558066  1
  Na  Na90  1  0.74889738  0.50037793  0.62450785  1
  Na  Na91  1  0.74798405  0.50097273  0.87446942  1
  Na  Na92  1  0.74986547  0.83310947  0.12604871  1
  Na  Na93  1  0.75086157  0.83291585  0.37518412  1
  Na  Na94  1  0.75060942  0.83334419  0.62365091  1
  Na  Na95  1  0.75003179  0.83350359  0.87407027  1
  Mn  Mn96  1  0.10790613  0.08335719  0.12321885  1
  Mn  Mn97  1  0.39266567  0.91588523  0.37767853  1
  Mn  Mn98  1  0.64243085  0.58400963  0.99861459  1
  Mn  Mn99  1  0.64278780  0.58223356  0.24790648  1
  Mn  Mn100  1  0.60785350  0.41711751  0.12328136  1
  Mn  Mn101  1  0.89170129  0.25045727  0.12693357  1
  Mn  Mn102  1  0.14307371  0.24904641  0.99820824  1
  Mn  Mn103  1  0.35764065  0.75049542  0.50246784  1
  Mn  Mn104  1  0.39137624  0.58349761  0.87681177  1
  Mn  Mn105  1  0.89320162  0.25027296  0.87651187  1
  Mn  Mn106  1  0.35817993  0.08338117  0.75237936  1
  Mn  Mn107  1  0.10727202  0.08305321  0.62227854  1
  Mn  Mn108  1  0.14273050  0.91764877  0.99793397  1
  Mn  Mn109  1  0.14206534  0.58324722  0.49698525  1
  Mn  Mn110  1  0.60842272  0.74976791  0.87295863  1
  Mn  Mn111  1  0.10675526  0.08323917  0.37284859  1
  Mn  Mn112  1  0.64354757  0.91667073  0.49758421  1
  Mn  Mn113  1  0.64082876  0.25011492  0.99730963  1
  Mn  Mn114  1  0.14142348  0.91743688  0.24783502  1
  Mn  Mn115  1  0.89211014  0.25037697  0.62805165  1
  Mn  Mn116  1  0.85824688  0.41617168  0.50291711  1
  Mn  Mn117  1  0.35686268  0.41675292  0.25200262  1
  Mn  Mn118  1  0.64267470  0.91711318  0.24807360  1
  Mn  Mn119  1  0.64261090  0.58318094  0.49708622  1
  Mn  Mn120  1  0.89309746  0.58260897  0.87667915  1
  Mn  Mn121  1  0.35706022  0.74968104  0.75170787  1
  Mn  Mn122  1  0.39306585  0.91604195  0.62718777  1
  Mn  Mn123  1  0.64122117  0.24952645  0.74785247  1
  Mn  Mn124  1  0.39205317  0.58400664  0.62751744  1
  Mn  Mn125  1  0.64212949  0.58441727  0.74761196  1
  Mn  Mn126  1  0.35732864  0.75014546  0.00219213  1
  Mn  Mn127  1  0.35771715  0.41682056  0.00262754  1
  Mn  Mn128  1  0.89150143  0.91669404  0.12634898  1
  Mn  Mn129  1  0.14184625  0.24908504  0.24794664  1
  Mn  Mn130  1  0.14245395  0.24908230  0.49711188  1
  Mn  Mn131  1  0.85786130  0.41640492  0.75239302  1
  Mn  Mn132  1  0.89233508  0.91698626  0.87706330  1
  Mn  Mn133  1  0.60766746  0.74987282  0.12238285  1
  Mn  Mn134  1  0.39315100  0.25041292  0.37760753  1
  Mn  Mn135  1  0.14148735  0.58344884  0.99831590  1
  Mn  Mn136  1  0.14143946  0.91797425  0.49763363  1
  Mn  Mn137  1  0.39280625  0.24982677  0.62661341  1
  Mn  Mn138  1  0.85857378  0.75009145  0.25306885  1
  Mn  Mn139  1  0.60763460  0.41754633  0.37222750  1
  Mn  Mn140  1  0.89315680  0.58296450  0.62791670  1
  Mn  Mn141  1  0.85826047  0.41687804  0.00121778  1
  Mn  Mn142  1  0.85711858  0.08295817  0.00148763  1
  Mn  Mn143  1  0.35695430  0.75015527  0.25248132  1
  Fe  Fe144  1  0.14348830  0.24973396  0.74853327  1
  Fe  Fe145  1  0.39316060  0.91633668  0.12683517  1
  Fe  Fe146  1  0.60861643  0.74947096  0.62303140  1
  Fe  Fe147  1  0.89378653  0.58329224  0.37651981  1
  Fe  Fe148  1  0.10625083  0.75031199  0.37386581  1
  Fe  Fe149  1  0.10724280  0.75036512  0.87238534  1
  Fe  Fe150  1  0.60661958  0.41608263  0.87322803  1
  Fe  Fe151  1  0.85656751  0.08427197  0.25163320  1
  Fe  Fe152  1  0.39181149  0.58412785  0.37642052  1
  Fe  Fe153  1  0.89181267  0.25040971  0.37697093  1
  Fe  Fe154  1  0.60671432  0.41689306  0.62309246  1
  Fe  Fe155  1  0.89250115  0.91649623  0.62806015  1
  Fe  Fe156  1  0.35846604  0.08305418  0.00151420  1
  Fe  Fe157  1  0.39164431  0.58352662  0.12712786  1
  Fe  Fe158  1  0.10658475  0.41670579  0.12389714  1
  Fe  Fe159  1  0.60802051  0.08354907  0.62262334  1
  Fe  Fe160  1  0.14274914  0.91699732  0.74833396  1
  Fe  Fe161  1  0.35842433  0.08310756  0.25181705  1
  Fe  Fe162  1  0.10857288  0.08325057  0.87263394  1
  Fe  Fe163  1  0.64184317  0.91585842  0.99850024  1
  Fe  Fe164  1  0.35846497  0.08358193  0.50130020  1
  Fe  Fe165  1  0.85804496  0.75045268  0.00117960  1
  Fe  Fe166  1  0.64292502  0.25006264  0.49805847  1
  Fe  Fe167  1  0.64340320  0.25057018  0.24879217  1
  Fe  Fe168  1  0.60638149  0.08378991  0.87358181  1
  Fe  Fe169  1  0.10872144  0.41630762  0.87267043  1
  Fe  Fe170  1  0.14250529  0.58324604  0.74832066  1
  Fe  Fe171  1  0.60669018  0.08318233  0.12378387  1
  Fe  Fe172  1  0.10856057  0.41654904  0.62305028  1
  Fe  Fe173  1  0.89328647  0.58297818  0.12662227  1
  Fe  Fe174  1  0.89219209  0.91634517  0.37701334  1
  Fe  Fe175  1  0.60796158  0.74954616  0.37360440  1
  Fe  Fe176  1  0.10691034  0.41669960  0.37326486  1
  Fe  Fe177  1  0.64294293  0.91610787  0.74822696  1
  Fe  Fe178  1  0.39233895  0.24957377  0.87619556  1
  Fe  Fe179  1  0.60792877  0.08262648  0.37286512  1
  Fe  Fe180  1  0.85620877  0.08319142  0.75229735  1
  Fe  Fe181  1  0.14160682  0.58338060  0.24834024  1
  Fe  Fe182  1  0.85835313  0.41548518  0.25205695  1
  Fe  Fe183  1  0.85802773  0.75023085  0.50185263  1
  Fe  Fe184  1  0.35680749  0.41683915  0.75146619  1
  Fe  Fe185  1  0.85753471  0.75055365  0.75140586  1
  Fe  Fe186  1  0.35681360  0.41620408  0.50151573  1
  Fe  Fe187  1  0.39321025  0.24991992  0.12750168  1
  Fe  Fe188  1  0.10651675  0.75008640  0.12321822  1
  Fe  Fe189  1  0.85640960  0.08358388  0.50198366  1
  Fe  Fe190  1  0.39311761  0.91704736  0.87616968  1
  Fe  Fe191  1  0.10651164  0.75043639  0.62327281  1
  P  P192  1  0.05315943  0.25026149  0.11006562  1
  P  P193  1  0.05156185  0.25000707  0.36031446  1
  P  P194  1  0.05505994  0.25036283  0.61102326  1
  P  P195  1  0.05517122  0.24931306  0.85928708  1
  P  P196  1  0.05331077  0.58334249  0.11165656  1
  P  P197  1  0.05284036  0.58348449  0.35988549  1
  P  P198  1  0.05561866  0.58328545  0.61149430  1
  P  P199  1  0.05458483  0.58352184  0.85950584  1
  P  P200  1  0.05287694  0.91652349  0.10971386  1
  P  P201  1  0.05112142  0.91651143  0.36038515  1
  P  P202  1  0.05296456  0.91641077  0.61122183  1
  P  P203  1  0.05433863  0.91707467  0.85923788  1
  P  P204  1  0.55355767  0.24964845  0.11202253  1
  P  P205  1  0.55591455  0.24922550  0.36061651  1
  P  P206  1  0.55434309  0.25002974  0.60903540  1
  P  P207  1  0.55136171  0.24958695  0.86009297  1
  P  P208  1  0.55151003  0.58327232  0.11008850  1
  P  P209  1  0.55201841  0.58397055  0.35984722  1
  P  P210  1  0.55376978  0.58348509  0.60991349  1
  P  P211  1  0.55314002  0.58258227  0.86007060  1
  P  P212  1  0.55296196  0.91735681  0.10990704  1
  P  P213  1  0.55420885  0.91640344  0.36035249  1
  P  P214  1  0.55593966  0.91635898  0.61132250  1
  P  P215  1  0.55433823  0.91734572  0.86076629  1
  P  P216  1  0.44607872  0.08288822  0.13936061  1
  P  P217  1  0.44700221  0.08315092  0.38950921  1
  P  P218  1  0.44737916  0.08313666  0.63857999  1
  P  P219  1  0.44711026  0.08321068  0.88999382  1
  P  P220  1  0.44631246  0.41673587  0.14029121  1
  P  P221  1  0.44553377  0.41782263  0.39047860  1
  P  P222  1  0.44565735  0.41664451  0.63908187  1
  P  P223  1  0.44575604  0.41586270  0.88841719  1
  P  P224  1  0.44610235  0.75014628  0.13994345  1
  P  P225  1  0.44787289  0.74950043  0.39018957  1
  P  P226  1  0.44865158  0.75004156  0.64034558  1
  P  P227  1  0.44646798  0.75098679  0.88964053  1
  P  P228  1  0.94562382  0.08345806  0.14041639  1
  P  P229  1  0.94374534  0.08396096  0.38969385  1
  P  P230  1  0.94387829  0.08270454  0.63965418  1
  P  P231  1  0.94711017  0.08340616  0.88836917  1
  P  P232  1  0.94702708  0.41713791  0.14026630  1
  P  P233  1  0.94661926  0.41640010  0.38913362  1
  P  P234  1  0.94878682  0.41655789  0.64053458  1
  P  P235  1  0.94926878  0.41638404  0.88962346  1
  P  P236  1  0.94609056  0.74963278  0.13837520  1
  P  P237  1  0.94723391  0.74973895  0.39066965  1
  P  P238  1  0.94583617  0.75068683  0.63962143  1
  P  P239  1  0.94631309  0.75017118  0.88877802  1
  P  P240  1  0.19840629  0.08320867  0.23457158  1
  P  P241  1  0.19838232  0.08331606  0.48437042  1
  P  P242  1  0.19576931  0.08313459  0.73608979  1
  P  P243  1  0.19818032  0.08336409  0.98436236  1
  P  P244  1  0.19382556  0.41715601  0.23578130  1
  P  P245  1  0.19606510  0.41622537  0.48484010  1
  P  P246  1  0.19626259  0.41628583  0.73567527  1
  P  P247  1  0.19477496  0.41649861  0.98613532  1
  P  P248  1  0.19352911  0.74963256  0.23583692  1
  P  P249  1  0.19445783  0.75083525  0.48516137  1
  P  P250  1  0.19437544  0.75051649  0.73550942  1
  P  P251  1  0.19435433  0.75029552  0.98574200  1
  P  P252  1  0.69586824  0.08444470  0.23595385  1
  P  P253  1  0.69594073  0.08388181  0.48568057  1
  P  P254  1  0.69513377  0.08245523  0.73577512  1
  P  P255  1  0.69365706  0.08225831  0.98576445  1
  P  P256  1  0.69867234  0.41591672  0.23521577  1
  P  P257  1  0.69547686  0.41617938  0.48604275  1
  P  P258  1  0.69452016  0.41665186  0.73516751  1
  P  P259  1  0.69597619  0.41705395  0.98411464  1
  P  P260  1  0.69587349  0.74950102  0.23631198  1
  P  P261  1  0.69712091  0.74981697  0.48506206  1
  P  P262  1  0.69780820  0.75094354  0.73409223  1
  P  P263  1  0.69836328  0.75042326  0.98528033  1
  P  P264  1  0.30605911  0.24906296  0.01444298  1
  P  P265  1  0.30497797  0.24932442  0.26375767  1
  P  P266  1  0.30374817  0.24990721  0.51466179  1
  P  P267  1  0.30318032  0.25087162  0.76516408  1
  P  P268  1  0.30313217  0.58349719  0.01617269  1
  P  P269  1  0.30279966  0.58361632  0.26475685  1
  P  P270  1  0.30439766  0.58285463  0.51370222  1
  P  P271  1  0.30127422  0.58287915  0.76466600  1
  P  P272  1  0.30573057  0.91743110  0.01429236  1
  P  P273  1  0.30460655  0.91714541  0.26383771  1
  P  P274  1  0.30331616  0.91741805  0.51530069  1
  P  P275  1  0.30286377  0.91627650  0.76542367  1
  P  P276  1  0.80275714  0.24988768  0.01440356  1
  P  P277  1  0.80290994  0.25006771  0.26555257  1
  P  P278  1  0.80325361  0.24947266  0.51447259  1
  P  P279  1  0.80266702  0.24897933  0.76524513  1
  P  P280  1  0.80467656  0.58411222  0.01546318  1
  P  P281  1  0.80607713  0.58197477  0.26471317  1
  P  P282  1  0.80571078  0.58390481  0.51376374  1
  P  P283  1  0.80356434  0.58408579  0.76474757  1
  P  P284  1  0.80148594  0.91622269  0.01465789  1
  P  P285  1  0.80407765  0.91771251  0.26572715  1
  P  P286  1  0.80612001  0.91646447  0.51433913  1
  P  P287  1  0.80339073  0.91690703  0.76362633  1
  O  O288  1  0.05584524  0.24918833  0.18683526  1
  O  O289  1  0.05558468  0.24900757  0.43701404  1
  O  O290  1  0.05979687  0.24959138  0.68769215  1
  O  O291  1  0.05767423  0.24892479  0.93609165  1
  O  O292  1  0.05720471  0.58349767  0.18834238  1
  O  O293  1  0.05604745  0.58325996  0.43676504  1
  O  O294  1  0.05948827  0.58309597  0.68824235  1
  O  O295  1  0.05647717  0.58350258  0.93635976  1
  O  O296  1  0.05540473  0.91742255  0.18651575  1
  O  O297  1  0.05476901  0.91755147  0.43707154  1
  O  O298  1  0.05823782  0.91737329  0.68777509  1
  O  O299  1  0.05719713  0.91751337  0.93602750  1
  O  O300  1  0.55873850  0.25048643  0.18862720  1
  O  O301  1  0.55981430  0.24992361  0.43737553  1
  O  O302  1  0.55631335  0.24981152  0.68589019  1
  O  O303  1  0.55439455  0.24965216  0.93683853  1
  O  O304  1  0.55613567  0.58330034  0.18673315  1
  O  O305  1  0.55625832  0.58300396  0.43649926  1
  O  O306  1  0.55658978  0.58357633  0.68667034  1
  O  O307  1  0.55622998  0.58339800  0.93680550  1
  O  O308  1  0.55693152  0.91685981  0.18658822  1
  O  O309  1  0.55746264  0.91660627  0.43712712  1
  O  O310  1  0.55947166  0.91645534  0.68812751  1
  O  O311  1  0.55848952  0.91591605  0.93747865  1
  O  O312  1  0.44211293  0.08290470  0.06264376  1
  O  O313  1  0.44209479  0.08330260  0.31282414  1
  O  O314  1  0.44229635  0.08309909  0.56195146  1
  O  O315  1  0.44412284  0.08309627  0.81317224  1
  O  O316  1  0.44384862  0.41658875  0.06347275  1
  O  O317  1  0.44223629  0.41698985  0.31372155  1
  O  O318  1  0.44066080  0.41653604  0.56245321  1
  O  O319  1  0.44081402  0.41672852  0.81172376  1
  O  O320  1  0.44317869  0.74997429  0.06320669  1
  O  O321  1  0.44345033  0.75030145  0.31356008  1
  O  O322  1  0.44422080  0.75004775  0.56369717  1
  O  O323  1  0.44324072  0.75050380  0.81290147  1
  O  O324  1  0.94280474  0.08349156  0.06357983  1
  O  O325  1  0.93996666  0.08423476  0.31290280  1
  O  O326  1  0.93942326  0.08364262  0.56288226  1
  O  O327  1  0.94138140  0.08318140  0.81179658  1
  O  O328  1  0.94375912  0.41633859  0.06355712  1
  O  O329  1  0.94221171  0.41580597  0.31246013  1
  O  O330  1  0.94433928  0.41638537  0.56383678  1
  O  O331  1  0.94481039  0.41630885  0.81300500  1
  O  O332  1  0.94169805  0.75048883  0.06166636  1
  O  O333  1  0.94429062  0.75000154  0.31384842  1
  O  O334  1  0.94143491  0.75009564  0.56294528  1
  O  O335  1  0.94117645  0.75056884  0.81210941  1
  O  O336  1  0.19400293  0.08329655  0.06102800  1
  O  O337  1  0.19348823  0.08316150  0.31119732  1
  O  O338  1  0.19364865  0.08327300  0.56103145  1
  O  O339  1  0.19227483  0.08291618  0.81284270  1
  O  O340  1  0.19026392  0.41663789  0.06286839  1
  O  O341  1  0.18980667  0.41652020  0.31260810  1
  O  O342  1  0.19162979  0.41642297  0.56158280  1
  O  O343  1  0.19220005  0.41640541  0.81247474  1
  O  O344  1  0.19006505  0.75028854  0.06254004  1
  O  O345  1  0.18914241  0.75037287  0.31264288  1
  O  O346  1  0.18993583  0.75092850  0.56191869  1
  O  O347  1  0.19114214  0.75049145  0.81238341  1
  O  O348  1  0.68965538  0.08333890  0.06257461  1
  O  O349  1  0.69175407  0.08316092  0.31269981  1
  O  O350  1  0.69154809  0.08321056  0.56241891  1
  O  O351  1  0.69017803  0.08352767  0.81247125  1
  O  O352  1  0.69307990  0.41670532  0.06094456  1
  O  O353  1  0.69443933  0.41714880  0.31188722  1
  O  O354  1  0.69075959  0.41711132  0.56274326  1
  O  O355  1  0.68981155  0.41649061  0.81194450  1
  O  O356  1  0.69446878  0.74964150  0.06199574  1
  O  O357  1  0.69130587  0.74924306  0.31305020  1
  O  O358  1  0.69220154  0.74950045  0.56173387  1
  O  O359  1  0.69390833  0.75020041  0.81081672  1
  O  O360  1  0.30916340  0.25008833  0.18697444  1
  O  O361  1  0.30671199  0.24991207  0.43787494  1
  O  O362  1  0.30697076  0.25022202  0.68847799  1
  O  O363  1  0.30975681  0.24982360  0.93762028  1
  O  O364  1  0.30795235  0.58382320  0.18807560  1
  O  O365  1  0.30838719  0.58398145  0.43693984  1
  O  O366  1  0.30510416  0.58361968  0.68795261  1
  O  O367  1  0.30628891  0.58345515  0.93935056  1
  O  O368  1  0.30896265  0.91629808  0.18710497  1
  O  O369  1  0.30658759  0.91628200  0.43849428  1
  O  O370  1  0.30701645  0.91633178  0.68871751  1
  O  O371  1  0.30982258  0.91658770  0.93754116  1
  O  O372  1  0.80600771  0.25019216  0.18880878  1
  O  O373  1  0.80806228  0.25056032  0.43781701  1
  O  O374  1  0.80576806  0.24991638  0.68844734  1
  O  O375  1  0.80653829  0.24989550  0.93768825  1
  O  O376  1  0.81022754  0.58285401  0.18793867  1
  O  O377  1  0.81039320  0.58319537  0.43702098  1
  O  O378  1  0.80672582  0.58302637  0.68795588  1
  O  O379  1  0.80746300  0.58330641  0.93864306  1
  O  O380  1  0.80640293  0.91670670  0.18892350  1
  O  O381  1  0.80976400  0.91608525  0.43748564  1
  O  O382  1  0.80775214  0.91675290  0.68692014  1
  O  O383  1  0.80533448  0.91692668  0.93793801  1
  O  O384  1  0.23604968  0.24950242  0.03879850  1
  O  O385  1  0.23498779  0.24958482  0.28810235  1
  O  O386  1  0.23420147  0.24989079  0.54016901  1
  O  O387  1  0.23311199  0.25003999  0.78960659  1
  O  O388  1  0.23333390  0.58362705  0.04091977  1
  O  O389  1  0.23228113  0.58324219  0.28793894  1
  O  O390  1  0.23427646  0.58303912  0.53779501  1
  O  O391  1  0.23125088  0.58299709  0.78933594  1
  O  O392  1  0.23564476  0.91723319  0.03842765  1
  O  O393  1  0.23457117  0.91686899  0.28808465  1
  O  O394  1  0.23362782  0.91764084  0.54037612  1
  O  O395  1  0.23268553  0.91664237  0.78946650  1
  O  O396  1  0.73294829  0.24981488  0.03913510  1
  O  O397  1  0.73298677  0.25000301  0.29058895  1
  O  O398  1  0.73293597  0.24940004  0.53818291  1
  O  O399  1  0.73293143  0.24926834  0.79026043  1
  O  O400  1  0.73508510  0.58318934  0.04106446  1
  O  O401  1  0.73605515  0.58288939  0.28903439  1
  O  O402  1  0.73559369  0.58354001  0.53751042  1
  O  O403  1  0.73391105  0.58440782  0.78988227  1
  O  O404  1  0.73163275  0.91647349  0.03975810  1
  O  O405  1  0.73453820  0.91716819  0.29135516  1
  O  O406  1  0.73601648  0.91674824  0.53835824  1
  O  O407  1  0.73314835  0.91671478  0.78774591  1
  O  O408  1  0.26858167  0.08322193  0.21065917  1
  O  O409  1  0.26855562  0.08323683  0.46041795  1
  O  O410  1  0.26576841  0.08343738  0.71148847  1
  O  O411  1  0.26840864  0.08323866  0.96036895  1
  O  O412  1  0.26389539  0.41668600  0.21171560  1
  O  O413  1  0.26632777  0.41640576  0.46106182  1
  O  O414  1  0.26655666  0.41650601  0.71146517  1
  O  O415  1  0.26493710  0.41659842  0.96240735  1
  O  O416  1  0.26369420  0.75034079  0.21204779  1
  O  O417  1  0.26454965  0.75025855  0.46127616  1
  O  O418  1  0.26421065  0.75043359  0.71040104  1
  O  O419  1  0.26444666  0.75010416  0.96183831  1
  O  O420  1  0.76617775  0.08394294  0.21200977  1
  O  O421  1  0.76639891  0.08331066  0.46231333  1
  O  O422  1  0.76548984  0.08291390  0.71212976  1
  O  O423  1  0.76366811  0.08285130  0.96141593  1
  O  O424  1  0.76875095  0.41559800  0.21088050  1
  O  O425  1  0.76562859  0.41638749  0.46236050  1
  O  O426  1  0.76467836  0.41637841  0.71130066  1
  O  O427  1  0.76571334  0.41723448  0.95897090  1
  O  O428  1  0.76612848  0.74991587  0.21283830  1
  O  O429  1  0.76760554  0.75021395  0.46182501  1
  O  O430  1  0.76794793  0.75051146  0.70977756  1
  O  O431  1  0.76831657  0.75054046  0.96044775  1
  O  O432  1  0.01524052  0.08342845  0.16583593  1
  O  O433  1  0.01371568  0.08322371  0.41445473  1
  O  O434  1  0.01419193  0.08325445  0.66288527  1
  O  O435  1  0.01765085  0.08331839  0.91137782  1
  O  O436  1  0.01703917  0.41673936  0.16499299  1
  O  O437  1  0.01693820  0.41667629  0.41323006  1
  O  O438  1  0.01900752  0.41669712  0.66425212  1
  O  O439  1  0.01944623  0.41651122  0.91363553  1
  O  O440  1  0.01626962  0.75002876  0.16253453  1
  O  O441  1  0.01721826  0.74982170  0.41564835  1
  O  O442  1  0.01626358  0.75026804  0.66309802  1
  O  O443  1  0.01687394  0.74995755  0.91175444  1
  O  O444  1  0.51644139  0.08327776  0.16350159  1
  O  O445  1  0.51750957  0.08289262  0.41270395  1
  O  O446  1  0.51780554  0.08365069  0.66192641  1
  O  O447  1  0.51700635  0.08300120  0.91507921  1
  O  O448  1  0.51576220  0.41721785  0.16624829  1
  O  O449  1  0.51543596  0.41709719  0.41498160  1
  O  O450  1  0.51619171  0.41655237  0.66221704  1
  O  O451  1  0.51602297  0.41595439  0.91238863  1
  O  O452  1  0.51577744  0.75041321  0.16521321  1
  O  O453  1  0.51804352  0.74943723  0.41443675  1
  O  O454  1  0.51880171  0.75009780  0.66444957  1
  O  O455  1  0.51615288  0.75012604  0.91484608  1
  O  O456  1  0.48315316  0.24932503  0.08845338  1
  O  O457  1  0.48577598  0.25010713  0.33672028  1
  O  O458  1  0.48483792  0.24966181  0.58326187  1
  O  O459  1  0.48160996  0.24958765  0.83452171  1
  O  O460  1  0.48134407  0.58308890  0.08599240  1
  O  O461  1  0.48183026  0.58405585  0.33569906  1
  O  O462  1  0.48411157  0.58353079  0.58469626  1
  O  O463  1  0.48348730  0.58324329  0.83467560  1
  O  O464  1  0.48278924  0.91671354  0.08579290  1
  O  O465  1  0.48456806  0.91683221  0.33518541  1
  O  O466  1  0.48614467  0.91618256  0.58640426  1
  O  O467  1  0.48404064  0.91737371  0.83666545  1
  O  O468  1  0.98371494  0.25023246  0.08426587  1
  O  O469  1  0.98147448  0.25027070  0.33597702  1
  O  O470  1  0.98490627  0.25003510  0.58725191  1
  O  O471  1  0.98558455  0.24970379  0.83362301  1
  O  O472  1  0.98331522  0.58309975  0.08678697  1
  O  O473  1  0.98278955  0.58353848  0.33527452  1
  O  O474  1  0.98571749  0.58328024  0.58698744  1
  O  O475  1  0.98511771  0.58358645  0.83353136  1
  O  O476  1  0.98348445  0.91665104  0.08371226  1
  O  O477  1  0.98101897  0.91645441  0.33585541  1
  O  O478  1  0.98251335  0.91634756  0.58797922  1
  O  O479  1  0.98459879  0.91680759  0.83410540  1
  O  O480  1  0.08754736  0.31552950  0.07852808  1
  O  O481  1  0.08569531  0.31501147  0.32807339  1
  O  O482  1  0.08837449  0.31567211  0.57823931  1
  O  O483  1  0.08975839  0.31446213  0.82738842  1
  O  O484  1  0.08671003  0.64840168  0.07843119  1
  O  O485  1  0.08668518  0.64858980  0.32746451  1
  O  O486  1  0.08898776  0.64862630  0.57875167  1
  O  O487  1  0.08902542  0.64857181  0.82740339  1
  O  O488  1  0.08734543  0.98151583  0.07738736  1
  O  O489  1  0.08482427  0.98144824  0.32713716  1
  O  O490  1  0.08574819  0.98140141  0.57702838  1
  O  O491  1  0.08861451  0.98193036  0.82654158  1
  O  O492  1  0.58633615  0.31469973  0.07805389  1
  O  O493  1  0.58994095  0.31396107  0.32724085  1
  O  O494  1  0.58853473  0.31531312  0.57714307  1
  O  O495  1  0.58562857  0.31444123  0.82760857  1
  O  O496  1  0.58509532  0.64840679  0.07706952  1
  O  O497  1  0.58609096  0.64888505  0.32741891  1
  O  O498  1  0.58804864  0.64859557  0.57764410  1
  O  O499  1  0.58763748  0.64759299  0.82767805  1
  O  O500  1  0.58642269  0.98256146  0.07728453  1
  O  O501  1  0.58839410  0.98152180  0.32791894  1
  O  O502  1  0.58954857  0.98154852  0.57845412  1
  O  O503  1  0.58782364  0.98265435  0.82820943  1
  O  O504  1  0.41294035  0.01762443  0.17253465  1
  O  O505  1  0.41351194  0.01835533  0.42303695  1
  O  O506  1  0.41453527  0.01809512  0.67235283  1
  O  O507  1  0.41295533  0.01819908  0.92247288  1
  O  O508  1  0.41233892  0.35148922  0.17255662  1
  O  O509  1  0.41130419  0.35292053  0.42336151  1
  O  O510  1  0.41242767  0.35161448  0.67253866  1
  O  O511  1  0.41254484  0.35067515  0.92142512  1
  O  O512  1  0.41199233  0.68507622  0.17245153  1
  O  O513  1  0.41383665  0.68455351  0.42271994  1
  O  O514  1  0.41475014  0.68502468  0.67317799  1
  O  O515  1  0.41173119  0.68620813  0.92197510  1
  O  O516  1  0.91104676  0.01856442  0.17259315  1
  O  O517  1  0.90952451  0.01899796  0.42229033  1
  O  O518  1  0.91078202  0.01733758  0.67263516  1
  O  O519  1  0.91391915  0.01840884  0.92207794  1
  O  O520  1  0.91289614  0.35227022  0.17331987  1
  O  O521  1  0.91325378  0.35144399  0.42268647  1
  O  O522  1  0.91510321  0.35162378  0.67354871  1
  O  O523  1  0.91563382  0.35143138  0.92266911  1
  O  O524  1  0.91298494  0.68445132  0.17151088  1
  O  O525  1  0.91340524  0.68455429  0.42306163  1
  O  O526  1  0.91246938  0.68583374  0.67322895  1
  O  O527  1  0.91302256  0.68522193  0.92218208  1
  O  O528  1  0.16478742  0.01819037  0.20151592  1
  O  O529  1  0.16450041  0.01840933  0.45135863  1
  O  O530  1  0.16232762  0.01794655  0.70301268  1
  O  O531  1  0.16414040  0.01856080  0.95139649  1
  O  O532  1  0.16002919  0.35232555  0.20251851  1
  O  O533  1  0.16252583  0.35130401  0.45161496  1
  O  O534  1  0.16306131  0.35099083  0.70261213  1
  O  O535  1  0.16152365  0.35144799  0.95279292  1
  O  O536  1  0.16041470  0.68415589  0.20301653  1
  O  O537  1  0.16052600  0.68586803  0.45212384  1
  O  O538  1  0.16041473  0.68551583  0.70274912  1
  O  O539  1  0.16065059  0.68534279  0.95271320  1
  O  O540  1  0.66203009  0.01977596  0.20229404  1
  O  O541  1  0.66265536  0.01892125  0.45204279  1
  O  O542  1  0.66212429  0.01720921  0.70263958  1
  O  O543  1  0.66037123  0.01688291  0.95320149  1
  O  O544  1  0.66461723  0.35079343  0.20294494  1
  O  O545  1  0.66222689  0.35088859  0.45329065  1
  O  O546  1  0.66065215  0.35167438  0.70220143  1
  O  O547  1  0.66165067  0.35202578  0.95159207  1
  O  O548  1  0.66285998  0.68444837  0.20278015  1
  O  O549  1  0.66390860  0.68493540  0.45132447  1
  O  O550  1  0.66374888  0.68614534  0.70093680  1
  O  O551  1  0.66471608  0.68531745  0.95231194  1
  O  O552  1  0.33989612  0.31385959  0.04781632  1
  O  O553  1  0.33844789  0.31430892  0.29705071  1
  O  O554  1  0.33769730  0.31521908  0.54688551  1
  O  O555  1  0.33662646  0.31605545  0.79790593  1
  O  O556  1  0.33730322  0.64844773  0.04868122  1
  O  O557  1  0.33585703  0.64864525  0.29848023  1
  O  O558  1  0.33775800  0.64775137  0.54735371  1
  O  O559  1  0.33495075  0.64794047  0.79758163  1
  O  O560  1  0.33935226  0.98269697  0.04688142  1
  O  O561  1  0.33827856  0.98235877  0.29642231  1
  O  O562  1  0.33775972  0.98252153  0.54716581  1
  O  O563  1  0.33710243  0.98122832  0.79809856  1
  O  O564  1  0.83664709  0.31507738  0.04688629  1
  O  O565  1  0.83715409  0.31494630  0.29840524  1
  O  O566  1  0.83650440  0.31434614  0.54832676  1
  O  O567  1  0.83693231  0.31398559  0.79766612  1
  O  O568  1  0.83857753  0.64950410  0.04747803  1
  O  O569  1  0.84032156  0.64675091  0.29792128  1
  O  O570  1  0.83893530  0.64928263  0.54652255  1
  O  O571  1  0.83782079  0.64931180  0.79646868  1
  O  O572  1  0.83542456  0.98128288  0.04732953  1
  O  O573  1  0.83806401  0.98305266  0.29745609  1
  O  O574  1  0.83960963  0.98159563  0.54722591  1
  O  O575  1  0.83649181  0.98208236  0.79704001  1
  O  O576  1  0.41242318  0.14773869  0.17273890  1
  O  O577  1  0.41389092  0.14825186  0.42302768  1
  O  O578  1  0.41385004  0.14803713  0.67193773  1
  O  O579  1  0.41311559  0.14829032  0.92243858  1
  O  O580  1  0.41145081  0.48169980  0.17210287  1
  O  O581  1  0.41165952  0.48303041  0.42264390  1
  O  O582  1  0.41240684  0.48159337  0.67275091  1
  O  O583  1  0.41230834  0.48080122  0.92198832  1
  O  O584  1  0.41202111  0.81536750  0.17220328  1
  O  O585  1  0.41456064  0.81463869  0.42354012  1
  O  O586  1  0.41487416  0.81500941  0.67319054  1
  O  O587  1  0.41293987  0.81641597  0.92187863  1
  O  O588  1  0.91117564  0.14843120  0.17281184  1
  O  O589  1  0.91037591  0.14926180  0.42276714  1
  O  O590  1  0.91017279  0.14740525  0.67328060  1
  O  O591  1  0.91399850  0.14836768  0.92195456  1
  O  O592  1  0.91327299  0.48222043  0.17278636  1
  O  O593  1  0.91345890  0.48171456  0.42205346  1
  O  O594  1  0.91516838  0.48157833  0.67340682  1
  O  O595  1  0.91565226  0.48148829  0.92244584  1
  O  O596  1  0.91248426  0.81445426  0.17189444  1
  O  O597  1  0.91300198  0.81464751  0.42320670  1
  O  O598  1  0.91256776  0.81579895  0.67293630  1
  O  O599  1  0.91324596  0.81519191  0.92255112  1
  O  O600  1  0.08754124  0.18534967  0.07748059  1
  O  O601  1  0.08512132  0.18495080  0.32708529  1
  O  O602  1  0.08831176  0.18532891  0.57738034  1
  O  O603  1  0.08938998  0.18435697  0.82670368  1
  O  O604  1  0.08705493  0.51822642  0.07891693  1
  O  O605  1  0.08678902  0.51847386  0.32728409  1
  O  O606  1  0.08923917  0.51822385  0.57841975  1
  O  O607  1  0.08918390  0.51844812  0.82755802  1
  O  O608  1  0.08727585  0.85136224  0.07799783  1
  O  O609  1  0.08494067  0.85137642  0.32812247  1
  O  O610  1  0.08618226  0.85125764  0.57815105  1
  O  O611  1  0.08855592  0.85185824  0.82711386  1
  O  O612  1  0.58679615  0.18453941  0.07882948  1
  O  O613  1  0.58902069  0.18386292  0.32780058  1
  O  O614  1  0.58915903  0.18514976  0.57697718  1
  O  O615  1  0.58539011  0.18435224  0.82781512  1
  O  O616  1  0.58539900  0.51831814  0.07737315  1
  O  O617  1  0.58546665  0.51881776  0.32655052  1
  O  O618  1  0.58772342  0.51828820  0.57753260  1
  O  O619  1  0.58688760  0.51733377  0.82787375  1
  O  O620  1  0.58706166  0.85254393  0.07671652  1
  O  O621  1  0.58801356  0.85112670  0.32811479  1
  O  O622  1  0.58995182  0.85128349  0.57872904  1
  O  O623  1  0.58818524  0.85262257  0.82714169  1
  O  O624  1  0.33964675  0.18371021  0.04682956  1
  O  O625  1  0.33875305  0.18420472  0.29636213  1
  O  O626  1  0.33797251  0.18479034  0.54698210  1
  O  O627  1  0.33756100  0.18602627  0.79799859  1
  O  O628  1  0.33714107  0.51845262  0.04871802  1
  O  O629  1  0.33639795  0.51874668  0.29802450  1
  O  O630  1  0.33758243  0.51738747  0.54623658  1
  O  O631  1  0.33507114  0.51779924  0.79721363  1
  O  O632  1  0.33927008  0.85260719  0.04792975  1
  O  O633  1  0.33801324  0.85220087  0.29744074  1
  O  O634  1  0.33710096  0.85225475  0.54813003  1
  O  O635  1  0.33651772  0.85129677  0.79838085  1
  O  O636  1  0.83659253  0.18484831  0.04708693  1
  O  O637  1  0.83684749  0.18496381  0.29811277  1
  O  O638  1  0.83650591  0.18425132  0.54732419  1
  O  O639  1  0.83648749  0.18362934  0.79729323  1
  O  O640  1  0.83965523  0.51934402  0.04776316  1
  O  O641  1  0.83931938  0.51656322  0.29737700  1
  O  O642  1  0.83922374  0.51905138  0.54737787  1
  O  O643  1  0.83737847  0.51897426  0.79757251  1
  O  O644  1  0.83558607  0.85118073  0.04706730  1
  O  O645  1  0.83881680  0.85291043  0.29833645  1
  O  O646  1  0.83952301  0.85131651  0.54744087  1
  O  O647  1  0.83695525  0.85189665  0.79670135  1
  O  O648  1  0.16488587  0.14830390  0.20155395  1
  O  O649  1  0.16479580  0.14832864  0.45127075  1
  O  O650  1  0.16213128  0.14826965  0.70334290  1
  O  O651  1  0.16442708  0.14835258  0.95148473  1
  O  O652  1  0.16043550  0.48249646  0.20309816  1
  O  O653  1  0.16231516  0.48116538  0.45159208  1
  O  O654  1  0.16261857  0.48120556  0.70238709  1
  O  O655  1  0.16120608  0.48141679  0.95282665  1
  O  O656  1  0.15962099  0.81433366  0.20236257  1
  O  O657  1  0.16098054  0.81583384  0.45189743  1
  O  O658  1  0.16048738  0.81575089  0.70288607  1
  O  O659  1  0.16092711  0.81529225  0.95252345  1
  O  O660  1  0.66259282  0.14978552  0.20325613  1
  O  O661  1  0.66274043  0.14888045  0.45251081  1
  O  O662  1  0.66151934  0.14726834  0.70205365  1
  O  O663  1  0.65951949  0.14693323  0.95224582  1
  O  O664  1  0.66520393  0.48094800  0.20188018  1
  O  O665  1  0.66223910  0.48105941  0.45214841  1
  O  O666  1  0.66109536  0.48170191  0.70191891  1
  O  O667  1  0.66153902  0.48203505  0.95205341  1
  O  O668  1  0.66249653  0.81465433  0.20330317  1
  O  O669  1  0.66360175  0.81483591  0.45193014  1
  O  O670  1  0.66411627  0.81609753  0.70155660  1
  O  O671  1  0.66422185  0.81539478  0.95282627  1
