# generated using pymatgen
data_Na2MnFe(PO4)2
_symmetry_space_group_name_H-M   'P 1'
_cell_length_a   21.08702871
_cell_length_b   18.93891156
_cell_length_c   20.04591913
_cell_angle_alpha   90.00021909
_cell_angle_beta   89.99458292
_cell_angle_gamma   89.99862175
_symmetry_Int_Tables_number   1
_chemical_formula_structural   Na2MnFe(PO4)2
_chemical_formula_sum   'Na96 Mn48 Fe48 P96 O384'
_cell_volume   8005.64591261
_cell_formula_units_Z   48
loop_
 _symmetry_equiv_pos_site_id
 _symmetry_equiv_pos_as_xyz
  1  'x, y, z'
loop_
 _atom_site_type_symbol
 _atom_site_label
 _atom_site_symmetry_multiplicity
 _atom_site_fract_x
 _atom_site_fract_y
 _atom_site_fract_z
 _atom_site_occupancy
  Na  Na0  1  -0.00169576  -0.00049667  0.00026601  1
  Na  Na1  1  -0.00071516  -0.00007100  0.25042602  1
  Na  Na2  1  0.00346858  0.00155270  0.50005737  1
  Na  Na3  1  -0.00019912  -0.00047763  0.74936871  1
  Na  Na4  1  0.00019959  0.33292225  -0.00035783  1
  Na  Na5  1  -0.00033816  0.33268148  0.24970491  1
  Na  Na6  1  -0.00111986  0.33217723  0.49966511  1
  Na  Na7  1  0.00066468  0.33327594  0.75082337  1
  Na  Na8  1  -0.00002548  0.66645879  -0.00044627  1
  Na  Na9  1  -0.00031211  0.66625437  0.25070924  1
  Na  Na10  1  -0.00039313  0.66608089  0.50018433  1
  Na  Na11  1  0.00127595  0.66720649  0.74922012  1
  Na  Na12  1  0.50242349  0.00116129  -0.00123641  1
  Na  Na13  1  0.50008671  -0.00065042  0.25081217  1
  Na  Na14  1  0.49918203  -0.00105288  0.50062581  1
  Na  Na15  1  0.50023147  -0.00017260  0.74968873  1
  Na  Na16  1  0.50004947  0.33308169  -0.00052250  1
  Na  Na17  1  0.50187220  0.33412976  0.24961248  1
  Na  Na18  1  0.49942419  0.33280171  0.50045873  1
  Na  Na19  1  0.49969909  0.33332272  0.75022827  1
  Na  Na20  1  0.49961066  0.66656260  -0.00075840  1
  Na  Na21  1  0.49919798  0.66664925  0.24990634  1
  Na  Na22  1  0.49900140  0.66677449  0.50151450  1
  Na  Na23  1  0.49927056  0.66685414  0.74943451  1
  Na  Na24  1  0.24908270  -0.00000682  0.12608406  1
  Na  Na25  1  0.25013700  0.00022479  0.37594958  1
  Na  Na26  1  0.25005619  -0.00040383  0.62401570  1
  Na  Na27  1  0.25145112  0.00083438  0.87419172  1
  Na  Na28  1  0.24971340  0.33254191  0.12471240  1
  Na  Na29  1  0.25170973  0.33376349  0.37624716  1
  Na  Na30  1  0.25291542  0.33356531  0.62458204  1
  Na  Na31  1  0.25276714  0.33354652  0.87409207  1
  Na  Na32  1  0.24780263  0.66584216  0.12399093  1
  Na  Na33  1  0.25079516  0.66720345  0.37559835  1
  Na  Na34  1  0.24990390  0.66669174  0.62518958  1
  Na  Na35  1  0.24920586  0.66697326  0.87537024  1
  Na  Na36  1  0.74946997  -0.00002589  0.12406521  1
  Na  Na37  1  0.75000250  0.00023943  0.37544252  1
  Na  Na38  1  0.74823375  -0.00098021  0.62509580  1
  Na  Na39  1  0.74868532  -0.00048813  0.87553599  1
  Na  Na40  1  0.74782583  0.33250514  0.12636675  1
  Na  Na41  1  0.74831220  0.33290363  0.37530608  1
  Na  Na42  1  0.74773892  0.33252845  0.62411967  1
  Na  Na43  1  0.74867298  0.33326161  0.87457757  1
  Na  Na44  1  0.75216394  0.66694845  0.12597457  1
  Na  Na45  1  0.75067715  0.66725202  0.37496685  1
  Na  Na46  1  0.74805377  0.66611158  0.62389238  1
  Na  Na47  1  0.75154789  0.66671470  0.87472397  1
  Na  Na48  1  0.00016235  0.16727708  -0.00025763  1
  Na  Na49  1  0.00051978  0.16718994  0.24944052  1
  Na  Na50  1  0.00093401  0.16696544  0.49985395  1
  Na  Na51  1  0.00096314  0.16687666  0.75068350  1
  Na  Na52  1  -0.00114004  0.50049115  -0.00016529  1
  Na  Na53  1  -0.00208600  0.50101897  0.25082622  1
  Na  Na54  1  0.00214227  0.49874222  0.50012262  1
  Na  Na55  1  0.00003010  0.50058769  0.75005109  1
  Na  Na56  1  -0.00026137  0.83266496  0.00003628  1
  Na  Na57  1  -0.00010224  0.83314962  0.25052596  1
  Na  Na58  1  -0.00041983  0.83378430  0.50018317  1
  Na  Na59  1  0.00084779  0.83218218  0.74867640  1
  Na  Na60  1  0.50335684  0.16611739  -0.00030825  1
  Na  Na61  1  0.50131712  0.16731641  0.25042209  1
  Na  Na62  1  0.49918357  0.16748442  0.50057534  1
  Na  Na63  1  0.49899355  0.16769366  0.75012069  1
  Na  Na64  1  0.49945412  0.49971539  -0.00110844  1
  Na  Na65  1  0.50038804  0.49950760  0.24922279  1
  Na  Na66  1  0.49997463  0.49991529  0.50124381  1
  Na  Na67  1  0.49978914  0.49963079  0.74953113  1
  Na  Na68  1  0.49951117  0.83332857  -0.00099776  1
  Na  Na69  1  0.49929146  0.83329986  0.25060209  1
  Na  Na70  1  0.49908819  0.83341002  0.50098471  1
  Na  Na71  1  0.50053852  0.83279112  0.74962509  1
  Na  Na72  1  0.24910697  0.16751921  0.12514842  1
  Na  Na73  1  0.24966336  0.16691262  0.37631137  1
  Na  Na74  1  0.25219302  0.16643728  0.62402916  1
  Na  Na75  1  0.25059467  0.16754889  0.87412861  1
  Na  Na76  1  0.24938424  0.50018868  0.12486891  1
  Na  Na77  1  0.25159470  0.49943976  0.37585400  1
  Na  Na78  1  0.25063457  0.50012444  0.62425951  1
  Na  Na79  1  0.25215940  0.49913892  0.87479497  1
  Na  Na80  1  0.24857590  0.83318371  0.12465443  1
  Na  Na81  1  0.25093671  0.83280072  0.37575054  1
  Na  Na82  1  0.25080629  0.83292633  0.62544943  1
  Na  Na83  1  0.24914564  0.83313602  0.87483762  1
  Na  Na84  1  0.74847963  0.16746072  0.12523893  1
  Na  Na85  1  0.74890965  0.16777067  0.37513472  1
  Na  Na86  1  0.74910615  0.16725005  0.62523973  1
  Na  Na87  1  0.74780495  0.16795183  0.87468449  1
  Na  Na88  1  0.75069473  0.49983006  0.12557778  1
  Na  Na89  1  0.74975313  0.49947308  0.37508312  1
  Na  Na90  1  0.74740915  0.50101134  0.62373204  1
  Na  Na91  1  0.74993031  0.50025868  0.87584940  1
  Na  Na92  1  0.75068732  0.83323539  0.12567551  1
  Na  Na93  1  0.74978464  0.83306136  0.37544993  1
  Na  Na94  1  0.74777537  0.83378926  0.62406145  1
  Na  Na95  1  0.75096217  0.83265926  0.87435509  1
  Mn  Mn96  1  0.85740067  0.08328124  0.75182097  1
  Mn  Mn97  1  0.64188285  0.58330650  0.24808038  1
  Mn  Mn98  1  0.35820040  0.08359588  0.25226709  1
  Mn  Mn99  1  0.85744073  0.08364876  0.25243375  1
  Mn  Mn100  1  0.85822483  0.75028788  0.25287250  1
  Mn  Mn101  1  0.35852904  0.41627551  0.25218022  1
  Mn  Mn102  1  0.35857762  0.08370661  0.00257813  1
  Mn  Mn103  1  0.39229241  0.58351891  0.62790030  1
  Mn  Mn104  1  0.10772220  0.08327946  0.12248100  1
  Mn  Mn105  1  0.10807008  0.08230358  0.87263002  1
  Mn  Mn106  1  0.85722211  0.41684773  0.50265344  1
  Mn  Mn107  1  0.89175153  0.24990288  0.87711452  1
  Mn  Mn108  1  0.14382511  0.25015562  0.74735931  1
  Mn  Mn109  1  0.14197579  0.91687931  0.24846792  1
  Mn  Mn110  1  0.64144636  0.58358617  0.49661809  1
  Mn  Mn111  1  0.60715707  0.08314688  0.62270814  1
  Mn  Mn112  1  0.10763104  0.41705242  0.12269586  1
  Mn  Mn113  1  0.39260379  0.91689095  0.87735698  1
  Mn  Mn114  1  0.60821478  0.74980763  0.87247541  1
  Mn  Mn115  1  0.35769752  0.08301819  0.50213060  1
  Mn  Mn116  1  0.60734939  0.08319944  0.37280383  1
  Mn  Mn117  1  0.85697536  0.41613945  0.25231719  1
  Mn  Mn118  1  0.14253306  0.91715887  0.74768912  1
  Mn  Mn119  1  0.64290362  0.58353466  0.99779516  1
  Mn  Mn120  1  0.60723250  0.41698692  0.87232878  1
  Mn  Mn121  1  0.85799256  0.08300792  0.50253356  1
  Mn  Mn122  1  0.64168716  0.91714181  0.24816212  1
  Mn  Mn123  1  0.89207025  0.91683282  0.12774603  1
  Mn  Mn124  1  0.64260720  0.91615019  0.99759998  1
  Mn  Mn125  1  0.35659246  0.74974737  0.00212207  1
  Mn  Mn126  1  0.89285800  0.58240424  0.62695250  1
  Mn  Mn127  1  0.14280643  0.58276979  0.74805247  1
  Mn  Mn128  1  0.10743449  0.75033345  0.37341728  1
  Mn  Mn129  1  0.89274970  0.91728913  0.62675021  1
  Mn  Mn130  1  0.39161571  0.58350862  0.12680070  1
  Mn  Mn131  1  0.60823312  0.74991177  0.12211660  1
  Mn  Mn132  1  0.14287707  0.25032787  0.49805606  1
  Mn  Mn133  1  0.85749037  0.74972499  0.75092375  1
  Mn  Mn134  1  0.85721971  0.41694602  0.75104573  1
  Mn  Mn135  1  0.10834211  0.41715706  0.87261242  1
  Mn  Mn136  1  0.14188457  0.58256341  0.24836545  1
  Mn  Mn137  1  0.14122653  0.91718721  0.99704382  1
  Mn  Mn138  1  0.35758911  0.75000092  0.25205125  1
  Mn  Mn139  1  0.85763682  0.41640160  0.00249640  1
  Mn  Mn140  1  0.39296437  0.24957865  0.12707938  1
  Mn  Mn141  1  0.10797796  0.41580042  0.37291428  1
  Mn  Mn142  1  0.39215820  0.91708308  0.12697685  1
  Mn  Mn143  1  0.85688135  0.08375939  0.00172773  1
  Fe  Fe144  1  0.39244526  0.58320959  0.87669323  1
  Fe  Fe145  1  0.64191960  0.25046232  0.74755803  1
  Fe  Fe146  1  0.10829038  0.74993217  0.62236892  1
  Fe  Fe147  1  0.10704616  0.08372167  0.37327843  1
  Fe  Fe148  1  0.60617381  0.41749782  0.37376505  1
  Fe  Fe149  1  0.64214970  0.24946591  0.49799162  1
  Fe  Fe150  1  0.89197683  0.91604675  0.87580084  1
  Fe  Fe151  1  0.60729774  0.41695182  0.12251403  1
  Fe  Fe152  1  0.39239479  0.91618340  0.37736327  1
  Fe  Fe153  1  0.10633519  0.75013189  0.87342808  1
  Fe  Fe154  1  0.89234166  0.24971350  0.37675742  1
  Fe  Fe155  1  0.10673021  0.74960170  0.12346010  1
  Fe  Fe156  1  0.14190894  0.58235559  0.99778695  1
  Fe  Fe157  1  0.85852785  0.74988421  0.00146516  1
  Fe  Fe158  1  0.39304375  0.25031909  0.37624387  1
  Fe  Fe159  1  0.14255275  0.25026813  0.24869781  1
  Fe  Fe160  1  0.35831539  0.41738031  0.50183527  1
  Fe  Fe161  1  0.60736833  0.08337819  0.87224090  1
  Fe  Fe162  1  0.85641565  0.75029233  0.50152878  1
  Fe  Fe163  1  0.60658091  0.74995066  0.62307872  1
  Fe  Fe164  1  0.35754536  0.74990837  0.50190007  1
  Fe  Fe165  1  0.39355488  0.24948353  0.62698223  1
  Fe  Fe166  1  0.39372424  0.25006456  0.87720058  1
  Fe  Fe167  1  0.60662505  0.41685069  0.62335053  1
  Fe  Fe168  1  0.64245200  0.91615289  0.74805229  1
  Fe  Fe169  1  0.35791534  0.08313345  0.75173521  1
  Fe  Fe170  1  0.64210253  0.24984988  0.24839749  1
  Fe  Fe171  1  0.10840180  0.08379948  0.62372408  1
  Fe  Fe172  1  0.64260601  0.25038969  0.99832048  1
  Fe  Fe173  1  0.10866538  0.41618743  0.62337546  1
  Fe  Fe174  1  0.89233675  0.25050185  0.12675427  1
  Fe  Fe175  1  0.35701672  0.41663401  0.00161855  1
  Fe  Fe176  1  0.89320244  0.58279728  0.12674301  1
  Fe  Fe177  1  0.14366150  0.58353958  0.49845074  1
  Fe  Fe178  1  0.60618824  0.74943621  0.37389475  1
  Fe  Fe179  1  0.64198919  0.91672783  0.49797526  1
  Fe  Fe180  1  0.14295372  0.25043668  0.99821526  1
  Fe  Fe181  1  0.89230988  0.58371436  0.87639994  1
  Fe  Fe182  1  0.35822855  0.41690531  0.75169385  1
  Fe  Fe183  1  0.14344626  0.91587753  0.49826591  1
  Fe  Fe184  1  0.89246251  0.58330881  0.37758246  1
  Fe  Fe185  1  0.89263165  0.91700101  0.37775901  1
  Fe  Fe186  1  0.64195429  0.58350874  0.74872666  1
  Fe  Fe187  1  0.89282351  0.25014489  0.62635854  1
  Fe  Fe188  1  0.39243843  0.58343426  0.37668953  1
  Fe  Fe189  1  0.60787725  0.08342907  0.12311922  1
  Fe  Fe190  1  0.35708350  0.74997439  0.75215323  1
  Fe  Fe191  1  0.39275623  0.91695107  0.62719398  1
  P  P192  1  0.05386642  0.25040825  0.11032644  1
  P  P193  1  0.05279500  0.24941150  0.35973872  1
  P  P194  1  0.05309180  0.25027645  0.61036786  1
  P  P195  1  0.05505027  0.25003222  0.86080157  1
  P  P196  1  0.05284046  0.58355843  0.10969347  1
  P  P197  1  0.05336173  0.58328771  0.36177155  1
  P  P198  1  0.05517709  0.58292346  0.60951782  1
  P  P199  1  0.05318625  0.58407651  0.86092665  1
  P  P200  1  0.05307873  0.91596564  0.11025002  1
  P  P201  1  0.05330849  0.91721445  0.36177263  1
  P  P202  1  0.05487198  0.91676917  0.60942600  1
  P  P203  1  0.05158389  0.91552345  0.85953016  1
  P  P204  1  0.55553067  0.25023267  0.11058653  1
  P  P205  1  0.55380671  0.25103860  0.36109292  1
  P  P206  1  0.55406063  0.25068648  0.61080863  1
  P  P207  1  0.55434679  0.24984210  0.86048185  1
  P  P208  1  0.55320234  0.58265736  0.10946199  1
  P  P209  1  0.55147221  0.58363542  0.36051451  1
  P  P210  1  0.55463583  0.58354400  0.61154973  1
  P  P211  1  0.55241796  0.58329748  0.85923295  1
  P  P212  1  0.55337617  0.91730515  0.10961592  1
  P  P213  1  0.55291342  0.91535969  0.36187387  1
  P  P214  1  0.55392857  0.91579544  0.61081450  1
  P  P215  1  0.55433634  0.91701408  0.85903619  1
  P  P216  1  0.44882590  0.08369152  0.14016181  1
  P  P217  1  0.44659707  0.08348103  0.39018938  1
  P  P218  1  0.44587852  0.08299531  0.64030501  1
  P  P219  1  0.44716956  0.08432746  0.88865685  1
  P  P220  1  0.44675055  0.41637647  0.13839957  1
  P  P221  1  0.44710292  0.41684949  0.39046892  1
  P  P222  1  0.44608958  0.41606726  0.63934547  1
  P  P223  1  0.44445279  0.41670714  0.88901188  1
  P  P224  1  0.44673225  0.75012282  0.13982232  1
  P  P225  1  0.44659100  0.74964852  0.39090178  1
  P  P226  1  0.44538748  0.75093054  0.63950964  1
  P  P227  1  0.44535776  0.74914603  0.88864997  1
  P  P228  1  0.94614097  0.08477458  0.13991674  1
  P  P229  1  0.94745812  0.08374337  0.38999244  1
  P  P230  1  0.94826060  0.08438360  0.63981269  1
  P  P231  1  0.94634729  0.08247785  0.88971113  1
  P  P232  1  0.94627410  0.41643117  0.13998536  1
  P  P233  1  0.94611271  0.41611859  0.39003841  1
  P  P234  1  0.94850365  0.41571046  0.63982656  1
  P  P235  1  0.94636152  0.41734440  0.88962511  1
  P  P236  1  0.94665341  0.74882168  0.13911346  1
  P  P237  1  0.94561031  0.75013523  0.39113380  1
  P  P238  1  0.94708613  0.74983777  0.63807005  1
  P  P239  1  0.94648958  0.74985841  0.88948644  1
  P  P240  1  0.19540107  0.08449109  0.23666476  1
  P  P241  1  0.19468546  0.08263459  0.48584543  1
  P  P242  1  0.19824288  0.08357351  0.73402687  1
  P  P243  1  0.19719605  0.08441111  0.98455625  1
  P  P244  1  0.19704512  0.41558252  0.23527101  1
  P  P245  1  0.19729995  0.41727221  0.48638013  1
  P  P246  1  0.19861973  0.41650442  0.73427299  1
  P  P247  1  0.19760846  0.41634110  0.98474417  1
  P  P248  1  0.19569741  0.74974456  0.23451590  1
  P  P249  1  0.19686887  0.74992113  0.48645931  1
  P  P250  1  0.19593147  0.74995563  0.73574833  1
  P  P251  1  0.19363826  0.74906149  0.98529715  1
  P  P252  1  0.69572772  0.08405896  0.23464275  1
  P  P253  1  0.69609217  0.08340746  0.48527746  1
  P  P254  1  0.69498741  0.08324828  0.73597679  1
  P  P255  1  0.69439600  0.08441786  0.98519506  1
  P  P256  1  0.69380313  0.41621722  0.23609115  1
  P  P257  1  0.69399718  0.41578272  0.48548203  1
  P  P258  1  0.69537838  0.41717715  0.73408690  1
  P  P259  1  0.69542181  0.41615610  0.98613818  1
  P  P260  1  0.69544082  0.74994463  0.23639251  1
  P  P261  1  0.69503331  0.75074448  0.48532797  1
  P  P262  1  0.69575004  0.74966203  0.73397732  1
  P  P263  1  0.69889289  0.74962500  0.98470508  1
  P  P264  1  0.30393581  0.25069224  0.01378692  1
  P  P265  1  0.30291768  0.24985709  0.26594841  1
  P  P266  1  0.30623533  0.25082512  0.51430479  1
  P  P267  1  0.30669275  0.24966977  0.76387696  1
  P  P268  1  0.30273273  0.58245434  0.01351649  1
  P  P269  1  0.30361239  0.58322970  0.26588975  1
  P  P270  1  0.30446690  0.58365944  0.51394570  1
  P  P271  1  0.30422378  0.58362180  0.76546383  1
  P  P272  1  0.30265370  0.91682390  0.01513661  1
  P  P273  1  0.30377602  0.91678114  0.26619980  1
  P  P274  1  0.30455910  0.91575082  0.51465681  1
  P  P275  1  0.30485550  0.91663479  0.76365035  1
  P  P276  1  0.80219387  0.25021344  0.01581614  1
  P  P277  1  0.80312704  0.25015213  0.26484242  1
  P  P278  1  0.80365054  0.24988249  0.51458002  1
  P  P279  1  0.80277724  0.25044794  0.76339973  1
  P  P280  1  0.80558910  0.58415176  0.01480106  1
  P  P281  1  0.80502223  0.58297725  0.26505035  1
  P  P282  1  0.80414934  0.58421432  0.51378262  1
  P  P283  1  0.80224083  0.58309857  0.76476316  1
  P  P284  1  0.80488381  0.91571611  0.01372052  1
  P  P285  1  0.80377388  0.91708815  0.26634026  1
  P  P286  1  0.80303741  0.91602940  0.51403196  1
  P  P287  1  0.80236766  0.91650401  0.76477365  1
  O  O288  1  0.05869466  0.25049194  0.18698611  1
  O  O289  1  0.05706324  0.25036738  0.43641408  1
  O  O290  1  0.05694108  0.25044214  0.68703899  1
  O  O291  1  0.05960496  0.25030816  0.93754389  1
  O  O292  1  0.05621819  0.58273876  0.18645919  1
  O  O293  1  0.05919793  0.58311120  0.43833591  1
  O  O294  1  0.05774223  0.58318115  0.68635912  1
  O  O295  1  0.05793055  0.58266382  0.93757521  1
  O  O296  1  0.05616157  0.91670361  0.18703441  1
  O  O297  1  0.05870558  0.91629776  0.43836109  1
  O  O298  1  0.05732978  0.91627840  0.68627937  1
  O  O299  1  0.05506439  0.91654179  0.93622241  1
  O  O300  1  0.55876296  0.25033078  0.18743254  1
  O  O301  1  0.55797201  0.24980210  0.43781412  1
  O  O302  1  0.55843641  0.25022976  0.68754220  1
  O  O303  1  0.55879654  0.25056697  0.93715326  1
  O  O304  1  0.55618678  0.58337457  0.18624302  1
  O  O305  1  0.55479301  0.58369901  0.43726295  1
  O  O306  1  0.55833933  0.58356309  0.68822545  1
  O  O307  1  0.55674602  0.58338533  0.93588395  1
  O  O308  1  0.55594990  0.91638368  0.18643477  1
  O  O309  1  0.55772024  0.91624659  0.43854821  1
  O  O310  1  0.55871820  0.91637068  0.68745070  1
  O  O311  1  0.55743851  0.91610629  0.93581117  1
  O  O312  1  0.44511689  0.08396802  0.06340883  1
  O  O313  1  0.44425729  0.08351196  0.31341690  1
  O  O314  1  0.44316663  0.08282136  0.56352094  1
  O  O315  1  0.44223643  0.08356921  0.81204556  1
  O  O316  1  0.44143174  0.41632756  0.06177116  1
  O  O317  1  0.44425959  0.41673017  0.31368259  1
  O  O318  1  0.44170922  0.41704398  0.56265028  1
  O  O319  1  0.44103010  0.41685163  0.81216074  1
  O  O320  1  0.44302475  0.75001762  0.06305688  1
  O  O321  1  0.44336861  0.74983616  0.31419456  1
  O  O322  1  0.44070317  0.75008931  0.56282913  1
  O  O323  1  0.44127038  0.74981067  0.81189148  1
  O  O324  1  0.94273068  0.08432023  0.06318652  1
  O  O325  1  0.94377810  0.08361992  0.31333887  1
  O  O326  1  0.94443209  0.08380233  0.56313507  1
  O  O327  1  0.94331744  0.08334389  0.81290469  1
  O  O328  1  0.94367060  0.41605276  0.06323162  1
  O  O329  1  0.94293889  0.41622497  0.31331338  1
  O  O330  1  0.94417482  0.41619217  0.56318988  1
  O  O331  1  0.94319235  0.41679655  0.81286992  1
  O  O332  1  0.94248713  0.74957217  0.06244874  1
  O  O333  1  0.94333476  0.75016769  0.31421123  1
  O  O334  1  0.94126329  0.75002197  0.56157846  1
  O  O335  1  0.94334358  0.74965363  0.81271732  1
  O  O336  1  0.19378004  0.08368825  0.06136602  1
  O  O337  1  0.19116870  0.08368643  0.31343800  1
  O  O338  1  0.19103614  0.08382891  0.56262585  1
  O  O339  1  0.19393515  0.08350376  0.81069829  1
  O  O340  1  0.19389601  0.41648381  0.06143670  1
  O  O341  1  0.19405208  0.41631267  0.31207130  1
  O  O342  1  0.19244822  0.41622657  0.56302259  1
  O  O343  1  0.19430568  0.41632612  0.81091970  1
  O  O344  1  0.18953052  0.74965398  0.06207388  1
  O  O345  1  0.19282938  0.74985434  0.31136839  1
  O  O346  1  0.19245434  0.75002632  0.56316969  1
  O  O347  1  0.19058808  0.75016175  0.81237976  1
  O  O348  1  0.69101039  0.08339875  0.06200775  1
  O  O349  1  0.69270712  0.08344060  0.31145913  1
  O  O350  1  0.69297132  0.08325112  0.56203607  1
  O  O351  1  0.69150348  0.08353046  0.81277789  1
  O  O352  1  0.69166260  0.41697314  0.06289411  1
  O  O353  1  0.68960167  0.41732826  0.31288204  1
  O  O354  1  0.68975383  0.41671630  0.56221021  1
  O  O355  1  0.69299534  0.41709101  0.81095725  1
  O  O356  1  0.69499121  0.74963882  0.06142424  1
  O  O357  1  0.69040227  0.74954205  0.31307086  1
  O  O358  1  0.69017043  0.74999756  0.56198530  1
  O  O359  1  0.69356949  0.74953057  0.81080308  1
  O  O360  1  0.30688891  0.24972120  0.18920445  1
  O  O361  1  0.31019608  0.25017674  0.43756080  1
  O  O362  1  0.31036271  0.24965258  0.68702636  1
  O  O363  1  0.30910342  0.24968433  0.93715297  1
  O  O364  1  0.30631601  0.58328662  0.18905819  1
  O  O365  1  0.30905096  0.58358982  0.43728960  1
  O  O366  1  0.30672429  0.58370583  0.68859694  1
  O  O367  1  0.30784997  0.58336417  0.93692804  1
  O  O368  1  0.30668812  0.91683922  0.18940081  1
  O  O369  1  0.30927457  0.91632079  0.43794116  1
  O  O370  1  0.30848787  0.91663433  0.68687559  1
  O  O371  1  0.30646703  0.91680334  0.93833730  1
  O  O372  1  0.80823571  0.25026855  0.18822835  1
  O  O373  1  0.80884356  0.24991571  0.43789333  1
  O  O374  1  0.80848331  0.25027506  0.68678619  1
  O  O375  1  0.80605769  0.25048572  0.93904080  1
  O  O376  1  0.80951605  0.58299794  0.18829605  1
  O  O377  1  0.80864626  0.58318630  0.43705921  1
  O  O378  1  0.80626079  0.58299013  0.68802875  1
  O  O379  1  0.80946365  0.58339080  0.93796331  1
  O  O380  1  0.80704230  0.91704257  0.18950056  1
  O  O381  1  0.80844032  0.91696884  0.43742661  1
  O  O382  1  0.80645793  0.91674360  0.68804137  1
  O  O383  1  0.80877966  0.91614244  0.93695138  1
  O  O384  1  0.23363130  0.25041469  0.03754349  1
  O  O385  1  0.23293863  0.25030717  0.29060195  1
  O  O386  1  0.23609441  0.25011027  0.53833111  1
  O  O387  1  0.23662516  0.25023604  0.78808677  1
  O  O388  1  0.23236761  0.58267232  0.03719443  1
  O  O389  1  0.23400234  0.58311392  0.29123194  1
  O  O390  1  0.23425597  0.58353462  0.53806439  1
  O  O391  1  0.23455523  0.58328034  0.79073024  1
  O  O392  1  0.23288099  0.91671290  0.03979085  1
  O  O393  1  0.23407728  0.91667647  0.29132293  1
  O  O394  1  0.23412211  0.91624023  0.53805345  1
  O  O395  1  0.23496145  0.91690624  0.78850264  1
  O  O396  1  0.73206826  0.25008078  0.03992229  1
  O  O397  1  0.73260900  0.25027542  0.28809263  1
  O  O398  1  0.73304214  0.24980851  0.53750431  1
  O  O399  1  0.73222561  0.25073336  0.78644761  1
  O  O400  1  0.73562634  0.58336649  0.03924293  1
  O  O401  1  0.73484745  0.58302305  0.28886423  1
  O  O402  1  0.73391085  0.58383298  0.53723132  1
  O  O403  1  0.73211676  0.58342952  0.78918941  1
  O  O404  1  0.73499307  0.91625350  0.03836806  1
  O  O405  1  0.73394886  0.91699341  0.29093266  1
  O  O406  1  0.73255905  0.91629228  0.53730094  1
  O  O407  1  0.73221442  0.91599311  0.78891013  1
  O  O408  1  0.26531024  0.08386084  0.21207484  1
  O  O409  1  0.26483856  0.08325637  0.46187703  1
  O  O410  1  0.26839326  0.08319751  0.70998564  1
  O  O411  1  0.26688617  0.08422313  0.95946387  1
  O  O412  1  0.26658217  0.41604780  0.20977895  1
  O  O413  1  0.26770750  0.41700934  0.46280954  1
  O  O414  1  0.26895637  0.41675317  0.71055228  1
  O  O415  1  0.26756335  0.41646816  0.95990549  1
  O  O416  1  0.26533305  0.74955604  0.20926686  1
  O  O417  1  0.26714033  0.75004898  0.46248368  1
  O  O418  1  0.26648719  0.74960886  0.71261601  1
  O  O419  1  0.26375676  0.74992374  0.96132085  1
  O  O420  1  0.76535747  0.08353350  0.20944280  1
  O  O421  1  0.76569756  0.08380500  0.45997739  1
  O  O422  1  0.76474445  0.08327261  0.71079912  1
  O  O423  1  0.76430039  0.08395634  0.96052572  1
  O  O424  1  0.76392985  0.41642092  0.21215423  1
  O  O425  1  0.76412001  0.41643728  0.46160495  1
  O  O426  1  0.76488659  0.41682709  0.70818966  1
  O  O427  1  0.76524612  0.41651804  0.96142617  1
  O  O428  1  0.76570255  0.75015412  0.21285084  1
  O  O429  1  0.76545210  0.75025097  0.46186095  1
  O  O430  1  0.76532968  0.74989209  0.70823547  1
  O  O431  1  0.76881527  0.74959817  0.96003852  1
  O  O432  1  0.01583808  0.08388964  0.16489540  1
  O  O433  1  0.01753097  0.08408301  0.41459670  1
  O  O434  1  0.01833256  0.08356024  0.66441985  1
  O  O435  1  0.01593647  0.08307708  0.91511591  1
  O  O436  1  0.01572267  0.41694574  0.16580291  1
  O  O437  1  0.01590616  0.41558462  0.41503100  1
  O  O438  1  0.01859506  0.41659590  0.66430743  1
  O  O439  1  0.01604271  0.41683459  0.91482362  1
  O  O440  1  0.01672924  0.74914562  0.16371193  1
  O  O441  1  0.01534106  0.74994476  0.41626059  1
  O  O442  1  0.01769007  0.74973917  0.66095997  1
  O  O443  1  0.01642863  0.74971207  0.91447675  1
  O  O444  1  0.51868579  0.08370242  0.16501840  1
  O  O445  1  0.51605887  0.08323259  0.41611821  1
  O  O446  1  0.51559334  0.08340623  0.66536319  1
  O  O447  1  0.51756700  0.08374258  0.91208540  1
  O  O448  1  0.51705806  0.41639016  0.16192201  1
  O  O449  1  0.51705497  0.41679329  0.41555812  1
  O  O450  1  0.51642679  0.41663646  0.66311221  1
  O  O451  1  0.51450507  0.41655855  0.91324999  1
  O  O452  1  0.51639871  0.74999014  0.16477132  1
  O  O453  1  0.51655832  0.74971314  0.41595352  1
  O  O454  1  0.51586996  0.75010147  0.66276460  1
  O  O455  1  0.51538742  0.74980027  0.91290606  1
  O  O456  1  0.48568367  0.25001017  0.08564409  1
  O  O457  1  0.48350831  0.25062493  0.33696522  1
  O  O458  1  0.48358090  0.24981201  0.58742831  1
  O  O459  1  0.48395646  0.25070828  0.83687944  1
  O  O460  1  0.48361010  0.58283567  0.08409673  1
  O  O461  1  0.48159811  0.58331058  0.33543020  1
  O  O462  1  0.48458983  0.58353742  0.58724485  1
  O  O463  1  0.48228026  0.58287436  0.83513506  1
  O  O464  1  0.48402415  0.91729765  0.08351550  1
  O  O465  1  0.48258094  0.91593805  0.33813465  1
  O  O466  1  0.48340549  0.91648803  0.58757487  1
  O  O467  1  0.48453906  0.91650468  0.83431501  1
  O  O468  1  0.98346383  0.25045929  0.08670869  1
  O  O469  1  0.98250234  0.24987412  0.33585125  1
  O  O470  1  0.98309398  0.24997308  0.58552207  1
  O  O471  1  0.98488967  0.24994854  0.83707213  1
  O  O472  1  0.98279544  0.58296776  0.08516163  1
  O  O473  1  0.98285401  0.58375051  0.33873603  1
  O  O474  1  0.98542104  0.58266731  0.58440628  1
  O  O475  1  0.98295056  0.58415720  0.83683736  1
  O  O476  1  0.98339191  0.91638060  0.08519674  1
  O  O477  1  0.98291087  0.91666263  0.33821421  1
  O  O478  1  0.98511815  0.91736249  0.58424088  1
  O  O479  1  0.98174142  0.91563361  0.83435860  1
  O  O480  1  0.08736321  0.31541907  0.07695261  1
  O  O481  1  0.08679272  0.31417441  0.32644940  1
  O  O482  1  0.08686541  0.31536818  0.57741256  1
  O  O483  1  0.08847608  0.31506924  0.82752300  1
  O  O484  1  0.08657819  0.64864839  0.07721585  1
  O  O485  1  0.08656697  0.64826331  0.32831457  1
  O  O486  1  0.08938981  0.64797202  0.57703522  1
  O  O487  1  0.08665527  0.64929063  0.82822337  1
  O  O488  1  0.08716925  0.98096169  0.07749698  1
  O  O489  1  0.08626381  0.98251601  0.32859563  1
  O  O490  1  0.08947897  0.98180529  0.57768557  1
  O  O491  1  0.08584811  0.98045087  0.82678247  1
  O  O492  1  0.58925741  0.31532375  0.07758869  1
  O  O493  1  0.58704458  0.31634201  0.32838922  1
  O  O494  1  0.58698052  0.31582539  0.57755088  1
  O  O495  1  0.58799763  0.31465407  0.82689612  1
  O  O496  1  0.58742516  0.64762856  0.07683699  1
  O  O497  1  0.58536038  0.64877454  0.32804191  1
  O  O498  1  0.58799231  0.64867206  0.57837533  1
  O  O499  1  0.58624113  0.64824362  0.82626440  1
  O  O500  1  0.58781068  0.98259470  0.07809554  1
  O  O501  1  0.58644030  0.98023091  0.32836003  1
  O  O502  1  0.58747523  0.98062510  0.57711466  1
  O  O503  1  0.58821025  0.98224969  0.82681511  1
  O  O504  1  0.41467563  0.01872905  0.17257974  1
  O  O505  1  0.41209138  0.01849807  0.42237883  1
  O  O506  1  0.41191560  0.01784697  0.67274727  1
  O  O507  1  0.41376318  0.01949579  0.92234043  1
  O  O508  1  0.41376565  0.35133067  0.17211532  1
  O  O509  1  0.41297742  0.35184966  0.42294529  1
  O  O510  1  0.41299539  0.35086267  0.67227876  1
  O  O511  1  0.41084765  0.35156936  0.92195289  1
  O  O512  1  0.41262009  0.68504024  0.17225250  1
  O  O513  1  0.41265704  0.68450002  0.42348001  1
  O  O514  1  0.41166394  0.68616668  0.67306789  1
  O  O515  1  0.41212413  0.68371969  0.92141293  1
  O  O516  1  0.91175902  0.01994692  0.17257543  1
  O  O517  1  0.91392310  0.01863223  0.42309817  1
  O  O518  1  0.91395201  0.01940683  0.67230704  1
  O  O519  1  0.91246503  0.01702155  0.92142288  1
  O  O520  1  0.91212538  0.35122184  0.17229062  1
  O  O521  1  0.91183259  0.35103811  0.42227141  1
  O  O522  1  0.91485937  0.35055649  0.67250055  1
  O  O523  1  0.91202674  0.35244778  0.92227304  1
  O  O524  1  0.91323610  0.68356906  0.17192166  1
  O  O525  1  0.91108212  0.68522219  0.42328339  1
  O  O526  1  0.91413315  0.68478370  0.67179047  1
  O  O527  1  0.91239363  0.68492763  0.92225815  1
  O  O528  1  0.16145827  0.01964786  0.20350510  1
  O  O529  1  0.16146052  0.01723718  0.45326729  1
  O  O530  1  0.16398043  0.01877220  0.70132294  1
  O  O531  1  0.16314428  0.01926083  0.95184749  1
  O  O532  1  0.16299824  0.35035884  0.20324532  1
  O  O533  1  0.16407866  0.35224715  0.45275891  1
  O  O534  1  0.16511583  0.35156814  0.70096717  1
  O  O535  1  0.16404051  0.35120950  0.95195936  1
  O  O536  1  0.16124775  0.68474666  0.20229530  1
  O  O537  1  0.16359154  0.68482267  0.45327318  1
  O  O538  1  0.16263461  0.68498386  0.70227830  1
  O  O539  1  0.16052662  0.68366662  0.95240196  1
  O  O540  1  0.66125985  0.01923321  0.20204692  1
  O  O541  1  0.66212162  0.01822445  0.45287821  1
  O  O542  1  0.66131514  0.01791965  0.70348042  1
  O  O543  1  0.66027750  0.01970466  0.95197036  1
  O  O544  1  0.66036299  0.35088644  0.20355416  1
  O  O545  1  0.66074070  0.35040651  0.45286748  1
  O  O546  1  0.66062689  0.35226997  0.70192813  1
  O  O547  1  0.66182939  0.35089975  0.95350409  1
  O  O548  1  0.66248257  0.68483756  0.20282965  1
  O  O549  1  0.66149994  0.68589589  0.45153639  1
  O  O550  1  0.66141333  0.68454265  0.70187871  1
  O  O551  1  0.66491665  0.68467157  0.95192778  1
  O  O552  1  0.33706036  0.31602518  0.04679197  1
  O  O553  1  0.33738425  0.31473508  0.29848817  1
  O  O554  1  0.33963355  0.31599738  0.54713327  1
  O  O555  1  0.34058497  0.31464348  0.79670589  1
  O  O556  1  0.33587505  0.64741405  0.04731291  1
  O  O557  1  0.33792926  0.64820085  0.29827182  1
  O  O558  1  0.33768472  0.64873401  0.54733339  1
  O  O559  1  0.33828166  0.64871350  0.79780671  1
  O  O560  1  0.33653966  0.98200329  0.04764069  1
  O  O561  1  0.33810121  0.98170551  0.29867919  1
  O  O562  1  0.33810201  0.98074315  0.54805693  1
  O  O563  1  0.33865516  0.98177675  0.79638407  1
  O  O564  1  0.83597842  0.31508883  0.04898196  1
  O  O565  1  0.83638335  0.31502112  0.29854406  1
  O  O566  1  0.83674371  0.31490543  0.54827314  1
  O  O567  1  0.83587443  0.31545839  0.79694883  1
  O  O568  1  0.83900958  0.64949857  0.04742395  1
  O  O569  1  0.83869591  0.64793179  0.29822286  1
  O  O570  1  0.83727889  0.64948131  0.54669007  1
  O  O571  1  0.83642275  0.64809450  0.79727863  1
  O  O572  1  0.83844953  0.98086886  0.04670116  1
  O  O573  1  0.83790100  0.98210136  0.29885215  1
  O  O574  1  0.83617968  0.98102249  0.54781500  1
  O  O575  1  0.83595229  0.98146786  0.79787039  1
  O  O576  1  0.41487899  0.14868883  0.17290377  1
  O  O577  1  0.41252993  0.14874612  0.42219535  1
  O  O578  1  0.41163251  0.14799623  0.67256274  1
  O  O579  1  0.41449125  0.14972555  0.92205247  1
  O  O580  1  0.41342168  0.48134365  0.17179228  1
  O  O581  1  0.41306249  0.48190519  0.42310411  1
  O  O582  1  0.41240196  0.48087650  0.67290339  1
  O  O583  1  0.41076443  0.48179752  0.92193083  1
  O  O584  1  0.41280139  0.81517873  0.17242030  1
  O  O585  1  0.41241655  0.81454691  0.42371791  1
  O  O586  1  0.41237397  0.81614397  0.67261319  1
  O  O587  1  0.41145096  0.81394728  0.92181066  1
  O  O588  1  0.91257318  0.15020265  0.17232156  1
  O  O589  1  0.91352828  0.14883330  0.42255618  1
  O  O590  1  0.91459848  0.14954578  0.67241189  1
  O  O591  1  0.91185330  0.14736882  0.92222760  1
  O  O592  1  0.91170860  0.48149565  0.17188420  1
  O  O593  1  0.91245803  0.48132817  0.42278256  1
  O  O594  1  0.91432828  0.48070397  0.67252113  1
  O  O595  1  0.91251225  0.48268679  0.92165487  1
  O  O596  1  0.91293008  0.81370275  0.17250200  1
  O  O597  1  0.91137982  0.81527659  0.42335589  1
  O  O598  1  0.91411135  0.81490633  0.67172274  1
  O  O599  1  0.91256730  0.81496042  0.92209083  1
  O  O600  1  0.08739993  0.18547194  0.07697369  1
  O  O601  1  0.08643644  0.18424488  0.32714343  1
  O  O602  1  0.08713545  0.18522857  0.57784377  1
  O  O603  1  0.08857553  0.18499074  0.82771505  1
  O  O604  1  0.08701689  0.51872762  0.07657310  1
  O  O605  1  0.08603077  0.51811239  0.32796552  1
  O  O606  1  0.08962201  0.51783143  0.57746231  1
  O  O607  1  0.08669420  0.51921554  0.82726461  1
  O  O608  1  0.08678718  0.85069902  0.07810212  1
  O  O609  1  0.08668972  0.85231032  0.32815372  1
  O  O610  1  0.08892687  0.85164086  0.57686276  1
  O  O611  1  0.08568776  0.85038323  0.82739327  1
  O  O612  1  0.58950745  0.18514201  0.07802371  1
  O  O613  1  0.58768746  0.18638075  0.32746694  1
  O  O614  1  0.58767069  0.18585255  0.57728849  1
  O  O615  1  0.58741385  0.18469142  0.82719562  1
  O  O616  1  0.58732386  0.51744948  0.07736883  1
  O  O617  1  0.58562018  0.51860935  0.32816515  1
  O  O618  1  0.58804866  0.51846943  0.57843403  1
  O  O619  1  0.58647446  0.51839841  0.82639204  1
  O  O620  1  0.58777100  0.85235854  0.07702694  1
  O  O621  1  0.58590039  0.85011876  0.32879378  1
  O  O622  1  0.58692866  0.85061855  0.57749654  1
  O  O623  1  0.58870669  0.85216106  0.82632436  1
  O  O624  1  0.33730510  0.18589026  0.04770699  1
  O  O625  1  0.33687221  0.18492282  0.29881702  1
  O  O626  1  0.34007406  0.18591088  0.54750786  1
  O  O627  1  0.33993768  0.18439138  0.79698419  1
  O  O628  1  0.33598982  0.51723821  0.04661999  1
  O  O629  1  0.33815249  0.51828617  0.29811782  1
  O  O630  1  0.33802689  0.51864665  0.54716358  1
  O  O631  1  0.33870871  0.51855453  0.79737307  1
  O  O632  1  0.33655581  0.85170791  0.04759877  1
  O  O633  1  0.33802764  0.85170543  0.29856680  1
  O  O634  1  0.33784151  0.85076453  0.54795473  1
  O  O635  1  0.33817100  0.85132953  0.79648812  1
  O  O636  1  0.83610017  0.18521002  0.04849842  1
  O  O637  1  0.83630222  0.18513445  0.29842470  1
  O  O638  1  0.83695461  0.18498390  0.54821618  1
  O  O639  1  0.83557907  0.18535847  0.79719367  1
  O  O640  1  0.83964628  0.51937358  0.04806450  1
  O  O641  1  0.83850817  0.51795990  0.29824430  1
  O  O642  1  0.83741233  0.51924747  0.54744990  1
  O  O643  1  0.83600224  0.51813732  0.79769452  1
  O  O644  1  0.83827375  0.85045659  0.04658509  1
  O  O645  1  0.83805595  0.85214850  0.29881780  1
  O  O646  1  0.83606411  0.85082188  0.54727268  1
  O  O647  1  0.83654006  0.85149015  0.79721897  1
  O  O648  1  0.16218420  0.14994737  0.20399741  1
  O  O649  1  0.16083329  0.14744165  0.45249424  1
  O  O650  1  0.16468868  0.14866865  0.70100418  1
  O  O651  1  0.16318736  0.14953497  0.95239733  1
  O  O652  1  0.16264832  0.48056009  0.20284788  1
  O  O653  1  0.16410913  0.48239790  0.45324430  1
  O  O654  1  0.16474705  0.48147655  0.70158941  1
  O  O655  1  0.16366753  0.48141711  0.95197157  1
  O  O656  1  0.16142586  0.81479879  0.20227151  1
  O  O657  1  0.16348400  0.81500984  0.45321839  1
  O  O658  1  0.16292302  0.81497864  0.70202353  1
  O  O659  1  0.15964049  0.81376158  0.95177557  1
  O  O660  1  0.66170663  0.14937339  0.20271228  1
  O  O661  1  0.66173483  0.14852723  0.45316183  1
  O  O662  1  0.66107996  0.14825732  0.70316238  1
  O  O663  1  0.66084440  0.14983503  0.95280382  1
  O  O664  1  0.66021608  0.48097291  0.20236246  1
  O  O665  1  0.66003458  0.48053462  0.45191233  1
  O  O666  1  0.66112925  0.48240636  0.70210617  1
  O  O667  1  0.66155124  0.48094018  0.95282796  1
  O  O668  1  0.66230068  0.81513314  0.20324205  1
  O  O669  1  0.66178655  0.81587816  0.45223171  1
  O  O670  1  0.66120743  0.81472768  0.70190305  1
  O  O671  1  0.66484923  0.81452795  0.95195781  1
