# generated using pymatgen
data_Na2MnFe(PO4)2
_symmetry_space_group_name_H-M   'P 1'
_cell_length_a   21.08830217
_cell_length_b   18.94158468
_cell_length_c   20.04694548
_cell_angle_alpha   90.00053199
_cell_angle_beta   90.00369235
_cell_angle_gamma   90.00325790
_symmetry_Int_Tables_number   1
_chemical_formula_structural   Na2MnFe(PO4)2
_chemical_formula_sum   'Na96 Mn48 Fe48 P96 O384'
_cell_volume   8007.66937631
_cell_formula_units_Z   48
loop_
 _symmetry_equiv_pos_site_id
 _symmetry_equiv_pos_as_xyz
  1  'x, y, z'
loop_
 _atom_site_type_symbol
 _atom_site_label
 _atom_site_symmetry_multiplicity
 _atom_site_fract_x
 _atom_site_fract_y
 _atom_site_fract_z
 _atom_site_occupancy
  Na  Na0  1  -0.00247671  -0.00128734  0.00095356  1
  Na  Na1  1  0.00019050  -0.00021938  0.24938131  1
  Na  Na2  1  0.00064258  -0.00014364  0.50063857  1
  Na  Na3  1  -0.00110880  -0.00058569  0.75006641  1
  Na  Na4  1  -0.00022010  0.33404984  -0.00090970  1
  Na  Na5  1  -0.00230565  0.33249959  0.25061282  1
  Na  Na6  1  -0.00177017  0.33274797  0.49945628  1
  Na  Na7  1  -0.00197039  0.33258801  0.74944049  1
  Na  Na8  1  0.00118353  0.66717130  -0.00003079  1
  Na  Na9  1  0.00094982  0.66719588  0.24902698  1
  Na  Na10  1  -0.00092727  0.66632263  0.50054571  1
  Na  Na11  1  0.00223801  0.66816150  0.75027972  1
  Na  Na12  1  0.50003490  0.00005475  -0.00095740  1
  Na  Na13  1  0.49762658  -0.00079861  0.24940695  1
  Na  Na14  1  0.50016572  0.00049653  0.50058060  1
  Na  Na15  1  0.50189214  0.00048752  0.74966304  1
  Na  Na16  1  0.50084358  0.33291891  0.00104093  1
  Na  Na17  1  0.50104414  0.33290922  0.25089445  1
  Na  Na18  1  0.50060430  0.33281311  0.50007323  1
  Na  Na19  1  0.49971962  0.33231931  0.74944130  1
  Na  Na20  1  0.49978790  0.66632070  0.00061080  1
  Na  Na21  1  0.50048375  0.66761410  0.24912051  1
  Na  Na22  1  0.50060906  0.66732463  0.49935119  1
  Na  Na23  1  0.50183982  0.66674929  0.75094694  1
  Na  Na24  1  0.25232496  0.00039426  0.12571566  1
  Na  Na25  1  0.24928435  -0.00047000  0.37426057  1
  Na  Na26  1  0.24995186  0.00013191  0.62428616  1
  Na  Na27  1  0.25137285  0.00030098  0.87505032  1
  Na  Na28  1  0.25028086  0.33306974  0.12415226  1
  Na  Na29  1  0.24990801  0.33295526  0.37495010  1
  Na  Na30  1  0.25010682  0.33211943  0.62559869  1
  Na  Na31  1  0.25203529  0.33364778  0.87433456  1
  Na  Na32  1  0.24828683  0.66687424  0.12489076  1
  Na  Na33  1  0.24871904  0.66738615  0.37615541  1
  Na  Na34  1  0.24696021  0.66609558  0.62576474  1
  Na  Na35  1  0.24817869  0.66730829  0.87510719  1
  Na  Na36  1  0.75153788  0.00039977  0.12572333  1
  Na  Na37  1  0.75029083  -0.00022401  0.37576405  1
  Na  Na38  1  0.74937838  -0.00054675  0.62480435  1
  Na  Na39  1  0.74871996  -0.00121119  0.87406097  1
  Na  Na40  1  0.75044705  0.33289595  0.12472364  1
  Na  Na41  1  0.75286918  0.33358065  0.37595180  1
  Na  Na42  1  0.75102317  0.33307604  0.62546992  1
  Na  Na43  1  0.74857800  0.33254185  0.87433359  1
  Na  Na44  1  0.74978133  0.66656400  0.12516928  1
  Na  Na45  1  0.75015219  0.66656930  0.37474974  1
  Na  Na46  1  0.74940559  0.66681040  0.62495505  1
  Na  Na47  1  0.74949417  0.66669814  0.87421705  1
  Na  Na48  1  -0.00196420  0.16670332  -0.00004770  1
  Na  Na49  1  -0.00010427  0.16620721  0.24925345  1
  Na  Na50  1  -0.00021289  0.16704531  0.49991848  1
  Na  Na51  1  -0.00049089  0.16632795  0.75013181  1
  Na  Na52  1  -0.00021664  0.50056903  -0.00059448  1
  Na  Na53  1  -0.00078965  0.50021844  0.24979839  1
  Na  Na54  1  -0.00256614  0.50017808  0.50026865  1
  Na  Na55  1  -0.00140830  0.50027833  0.75037023  1
  Na  Na56  1  -0.00019830  0.83390500  0.00063831  1
  Na  Na57  1  0.00039128  0.83358691  0.24997942  1
  Na  Na58  1  -0.00014204  0.83455837  0.50034546  1
  Na  Na59  1  0.00093768  0.83353921  0.74925578  1
  Na  Na60  1  0.49921099  0.16656468  0.00063763  1
  Na  Na61  1  0.50064948  0.16557408  0.25039473  1
  Na  Na62  1  0.50034397  0.16627919  0.49940388  1
  Na  Na63  1  0.50042314  0.16591925  0.74901414  1
  Na  Na64  1  0.50330943  0.49985146  0.00009731  1
  Na  Na65  1  0.50155392  0.50065076  0.24972415  1
  Na  Na66  1  0.50042818  0.50114322  0.50044034  1
  Na  Na67  1  0.50309376  0.49953520  0.75012153  1
  Na  Na68  1  0.49831869  0.83370342  -0.00018399  1
  Na  Na69  1  0.49724876  0.83388069  0.24950436  1
  Na  Na70  1  0.49911399  0.83388267  0.49979506  1
  Na  Na71  1  0.50191094  0.83264582  0.75131403  1
  Na  Na72  1  0.25228055  0.16557472  0.12485292  1
  Na  Na73  1  0.24993501  0.16641902  0.37486515  1
  Na  Na74  1  0.25237397  0.16578155  0.62565627  1
  Na  Na75  1  0.25317539  0.16637537  0.87459740  1
  Na  Na76  1  0.24855898  0.50080970  0.12479822  1
  Na  Na77  1  0.24800827  0.50071528  0.37543105  1
  Na  Na78  1  0.24998556  0.49920948  0.62460444  1
  Na  Na79  1  0.24722995  0.50179819  0.87498441  1
  Na  Na80  1  0.25084272  0.83282885  0.12472768  1
  Na  Na81  1  0.25021052  0.83312659  0.37536029  1
  Na  Na82  1  0.24635049  0.83463652  0.62477385  1
  Na  Na83  1  0.24919301  0.83321914  0.87551361  1
  Na  Na84  1  0.74894780  0.16597002  0.12594006  1
  Na  Na85  1  0.74737966  0.16718618  0.37597051  1
  Na  Na86  1  0.74750003  0.16675299  0.62487335  1
  Na  Na87  1  0.74843345  0.16595826  0.87379193  1
  Na  Na88  1  0.75087199  0.50009122  0.12473445  1
  Na  Na89  1  0.75200909  0.49994576  0.37511346  1
  Na  Na90  1  0.75267540  0.49895074  0.62581077  1
  Na  Na91  1  0.74806698  0.50130913  0.87430394  1
  Na  Na92  1  0.75146412  0.83393711  0.12522902  1
  Na  Na93  1  0.75355023  0.83277753  0.37562861  1
  Na  Na94  1  0.75091156  0.83391424  0.62440114  1
  Na  Na95  1  0.74994578  0.83423637  0.87440087  1
  Mn  Mn96  1  0.64267268  0.91646467  0.49728633  1
  Mn  Mn97  1  0.10789399  0.08332144  0.12218570  1
  Mn  Mn98  1  0.14291817  0.24994016  0.99734602  1
  Mn  Mn99  1  0.85760831  0.08332191  0.50230337  1
  Mn  Mn100  1  0.10732021  0.41683821  0.12275618  1
  Mn  Mn101  1  0.14302756  0.24973498  0.74782894  1
  Mn  Mn102  1  0.85784706  0.08416064  0.25319752  1
  Mn  Mn103  1  0.35774340  0.41750826  0.25276683  1
  Mn  Mn104  1  0.35719752  0.75012500  0.50329703  1
  Mn  Mn105  1  0.39197395  0.58358931  0.37669014  1
  Mn  Mn106  1  0.35855543  0.41782678  0.00200674  1
  Mn  Mn107  1  0.39195769  0.58354581  0.12742449  1
  Mn  Mn108  1  0.64212374  0.91644012  0.24798993  1
  Mn  Mn109  1  0.39269410  0.24993194  0.37751222  1
  Mn  Mn110  1  0.60925573  0.41662758  0.37256468  1
  Mn  Mn111  1  0.39255836  0.25022907  0.12777335  1
  Mn  Mn112  1  0.60842759  0.41654125  0.62200192  1
  Mn  Mn113  1  0.85854619  0.74972377  0.25220093  1
  Mn  Mn114  1  0.35684917  0.75013301  0.75169207  1
  Mn  Mn115  1  0.35834283  0.41729704  0.75257862  1
  Mn  Mn116  1  0.14246015  0.91716921  0.99788272  1
  Mn  Mn117  1  0.89201374  0.58379430  0.37721200  1
  Mn  Mn118  1  0.85785910  0.74990292  0.75228621  1
  Mn  Mn119  1  0.10732135  0.75050493  0.37271107  1
  Mn  Mn120  1  0.60844350  0.75012301  0.87344659  1
  Mn  Mn121  1  0.39261214  0.91655576  0.87678433  1
  Mn  Mn122  1  0.85705069  0.41669458  0.00195825  1
  Mn  Mn123  1  0.14184974  0.25008821  0.24741873  1
  Mn  Mn124  1  0.60793118  0.75116616  0.37276056  1
  Mn  Mn125  1  0.14103968  0.58241847  0.49793709  1
  Mn  Mn126  1  0.35781560  0.41602788  0.50214354  1
  Mn  Mn127  1  0.10638100  0.41633248  0.62301292  1
  Mn  Mn128  1  0.10788857  0.08288624  0.87326825  1
  Mn  Mn129  1  0.89135001  0.25018746  0.12727526  1
  Mn  Mn130  1  0.60909366  0.41679589  0.12324910  1
  Mn  Mn131  1  0.10819914  0.08394214  0.62302764  1
  Mn  Mn132  1  0.39256038  0.58255610  0.87703572  1
  Mn  Mn133  1  0.10668419  0.41588832  0.37271331  1
  Mn  Mn134  1  0.60739293  0.08218801  0.12306332  1
  Mn  Mn135  1  0.10765140  0.41642313  0.87220253  1
  Mn  Mn136  1  0.64340429  0.58289316  0.49777173  1
  Mn  Mn137  1  0.89101280  0.24882820  0.87715632  1
  Mn  Mn138  1  0.85665067  0.08355117  0.75195554  1
  Mn  Mn139  1  0.39248394  0.58360392  0.62770031  1
  Mn  Mn140  1  0.64183130  0.24938833  0.99718964  1
  Mn  Mn141  1  0.60767395  0.75097651  0.12263899  1
  Mn  Mn142  1  0.89242416  0.58446528  0.87724200  1
  Mn  Mn143  1  0.39214285  0.91629575  0.62749153  1
  Fe  Fe144  1  0.10626596  0.75022852  0.62352562  1
  Fe  Fe145  1  0.89193938  0.24935250  0.62684829  1
  Fe  Fe146  1  0.85734798  0.41650352  0.25127369  1
  Fe  Fe147  1  0.35828046  0.08262379  0.75156273  1
  Fe  Fe148  1  0.35650317  0.74990878  0.00158931  1
  Fe  Fe149  1  0.39213799  0.91629651  0.12659527  1
  Fe  Fe150  1  0.85811400  0.74976953  0.50249214  1
  Fe  Fe151  1  0.14217472  0.58320271  0.99831513  1
  Fe  Fe152  1  0.64181326  0.24991437  0.74749961  1
  Fe  Fe153  1  0.35688026  0.08338498  0.50135720  1
  Fe  Fe154  1  0.14195297  0.58324128  0.74785729  1
  Fe  Fe155  1  0.64345621  0.58434450  0.99867296  1
  Fe  Fe156  1  0.10721507  0.75100395  0.87365229  1
  Fe  Fe157  1  0.64279564  0.91619818  0.74763119  1
  Fe  Fe158  1  0.60794658  0.41578748  0.87291162  1
  Fe  Fe159  1  0.64316258  0.58391454  0.74769292  1
  Fe  Fe160  1  0.35691547  0.08290188  0.25259277  1
  Fe  Fe161  1  0.14323582  0.91641670  0.24820473  1
  Fe  Fe162  1  0.85793025  0.75050792  0.00144631  1
  Fe  Fe163  1  0.60637203  0.08238144  0.37341604  1
  Fe  Fe164  1  0.35612896  0.74981569  0.25154785  1
  Fe  Fe165  1  0.64311737  0.25029598  0.49830957  1
  Fe  Fe166  1  0.14186056  0.58374088  0.24804398  1
  Fe  Fe167  1  0.60732013  0.08365086  0.87326278  1
  Fe  Fe168  1  0.85641173  0.08255313  0.00106495  1
  Fe  Fe169  1  0.35859284  0.08274563  0.00154054  1
  Fe  Fe170  1  0.85777259  0.41669597  0.50244190  1
  Fe  Fe171  1  0.39409313  0.25035806  0.87614088  1
  Fe  Fe172  1  0.64334357  0.58313318  0.24843119  1
  Fe  Fe173  1  0.85610946  0.41642592  0.75183723  1
  Fe  Fe174  1  0.39166686  0.91674525  0.37674531  1
  Fe  Fe175  1  0.14230867  0.91794504  0.49765187  1
  Fe  Fe176  1  0.60807348  0.75058331  0.62304957  1
  Fe  Fe177  1  0.14225643  0.24925625  0.49867694  1
  Fe  Fe178  1  0.89280050  0.58395752  0.12617542  1
  Fe  Fe179  1  0.89206402  0.91649521  0.87662315  1
  Fe  Fe180  1  0.60652378  0.08271250  0.62282469  1
  Fe  Fe181  1  0.89384137  0.91742741  0.37651706  1
  Fe  Fe182  1  0.89224612  0.24848336  0.37737164  1
  Fe  Fe183  1  0.64345773  0.25055498  0.24925495  1
  Fe  Fe184  1  0.10753947  0.08368871  0.37351342  1
  Fe  Fe185  1  0.89358957  0.91712935  0.62686191  1
  Fe  Fe186  1  0.89252799  0.58387556  0.62743775  1
  Fe  Fe187  1  0.14206390  0.91723535  0.74882352  1
  Fe  Fe188  1  0.89265449  0.91620890  0.12692227  1
  Fe  Fe189  1  0.39322919  0.25003977  0.62610929  1
  Fe  Fe190  1  0.10729570  0.75021110  0.12327913  1
  Fe  Fe191  1  0.64309254  0.91616029  0.99868528  1
  P  P192  1  0.05271655  0.25015908  0.10935174  1
  P  P193  1  0.05279993  0.24884434  0.36108582  1
  P  P194  1  0.05214760  0.25008523  0.60957681  1
  P  P195  1  0.05279347  0.24942689  0.85960722  1
  P  P196  1  0.05387878  0.58423981  0.11044549  1
  P  P197  1  0.05322558  0.58327252  0.35922839  1
  P  P198  1  0.05251654  0.58350517  0.61149736  1
  P  P199  1  0.05510974  0.58453045  0.86059479  1
  P  P200  1  0.05370053  0.91596334  0.11138004  1
  P  P201  1  0.05445773  0.91801703  0.36041784  1
  P  P202  1  0.05452253  0.91667412  0.61084341  1
  P  P203  1  0.05240787  0.91630832  0.85995979  1
  P  P204  1  0.55506045  0.24951583  0.11158777  1
  P  P205  1  0.55568608  0.24884399  0.36096584  1
  P  P206  1  0.55426523  0.24889600  0.61012935  1
  P  P207  1  0.55332503  0.24945939  0.85936136  1
  P  P208  1  0.55567619  0.58392038  0.11052325  1
  P  P209  1  0.55448679  0.58398325  0.35910749  1
  P  P210  1  0.55522633  0.58473164  0.61085209  1
  P  P211  1  0.55610313  0.58294833  0.86091177  1
  P  P212  1  0.55222663  0.91654250  0.10914161  1
  P  P213  1  0.55152201  0.91741964  0.35987705  1
  P  P214  1  0.55462361  0.91625911  0.61103597  1
  P  P215  1  0.55566312  0.91731384  0.86077340  1
  P  P216  1  0.44447953  0.08213106  0.13964018  1
  P  P217  1  0.44531970  0.08230746  0.38952651  1
  P  P218  1  0.44576511  0.08373325  0.63881460  1
  P  P219  1  0.44661466  0.08389346  0.88874501  1
  P  P220  1  0.44752329  0.41711730  0.14060509  1
  P  P221  1  0.44776527  0.41711299  0.39036742  1
  P  P222  1  0.44722492  0.41613276  0.63993797  1
  P  P223  1  0.44899793  0.41608434  0.88992203  1
  P  P224  1  0.44424244  0.75066057  0.13918202  1
  P  P225  1  0.44477183  0.75077359  0.38885928  1
  P  P226  1  0.44842077  0.75021348  0.64068350  1
  P  P227  1  0.44597841  0.74950110  0.89062859  1
  P  P228  1  0.94489394  0.08242295  0.13880539  1
  P  P229  1  0.94799064  0.08293610  0.39013435  1
  P  P230  1  0.94645885  0.08342758  0.63992779  1
  P  P231  1  0.94555653  0.08187940  0.89052110  1
  P  P232  1  0.94547543  0.41793702  0.14020656  1
  P  P233  1  0.94393855  0.41563490  0.38932270  1
  P  P234  1  0.94356830  0.41625808  0.63965224  1
  P  P235  1  0.94486573  0.41676751  0.88860141  1
  P  P236  1  0.94646187  0.74999250  0.13843370  1
  P  P237  1  0.94626158  0.75110304  0.39070010  1
  P  P238  1  0.94636491  0.75048751  0.63900261  1
  P  P239  1  0.94729546  0.75122859  0.89044063  1
  P  P240  1  0.19638910  0.08242730  0.23613409  1
  P  P241  1  0.19679559  0.08379006  0.48460503  1
  P  P242  1  0.19829032  0.08264626  0.73532822  1
  P  P243  1  0.19891842  0.08322724  0.98491641  1
  P  P244  1  0.19637715  0.41726702  0.23487394  1
  P  P245  1  0.19589743  0.41482567  0.48525596  1
  P  P246  1  0.19660408  0.41714168  0.73471901  1
  P  P247  1  0.19680780  0.41720745  0.98468396  1
  P  P248  1  0.19619856  0.75070342  0.23483531  1
  P  P249  1  0.19430751  0.75095561  0.48662574  1
  P  P250  1  0.19363747  0.75064013  0.73589635  1
  P  P251  1  0.19527495  0.74974315  0.98595436  1
  P  P252  1  0.69521580  0.08354324  0.23692113  1
  P  P253  1  0.69441884  0.08368392  0.48581760  1
  P  P254  1  0.69381897  0.08282835  0.73533122  1
  P  P255  1  0.69674611  0.08160576  0.98459294  1
  P  P256  1  0.69851288  0.41626834  0.23546408  1
  P  P257  1  0.69883184  0.41600316  0.48541003  1
  P  P258  1  0.69584977  0.41646576  0.73599734  1
  P  P259  1  0.69613633  0.41748530  0.98417603  1
  P  P260  1  0.69704909  0.74997149  0.23501078  1
  P  P261  1  0.69768890  0.75022788  0.48584459  1
  P  P262  1  0.69620293  0.75054571  0.73438979  1
  P  P263  1  0.69848922  0.75068508  0.98540123  1
  P  P264  1  0.30584245  0.24963009  0.01343906  1
  P  P265  1  0.30340398  0.24936344  0.26513770  1
  P  P266  1  0.30286560  0.24866283  0.51534006  1
  P  P267  1  0.30643564  0.24911195  0.76417225  1
  P  P268  1  0.30200910  0.58439892  0.01476358  1
  P  P269  1  0.30122180  0.58474313  0.26499602  1
  P  P270  1  0.30273639  0.58336097  0.51547114  1
  P  P271  1  0.30160708  0.58390211  0.76512816  1
  P  P272  1  0.30427536  0.91644992  0.01516282  1
  P  P273  1  0.30394823  0.91608677  0.26418432  1
  P  P274  1  0.30299830  0.91776790  0.51375767  1
  P  P275  1  0.30200334  0.91685036  0.76476723  1
  P  P276  1  0.80245377  0.24830899  0.01469366  1
  P  P277  1  0.80298005  0.25033124  0.26602524  1
  P  P278  1  0.80391890  0.24963646  0.51483338  1
  P  P279  1  0.80236115  0.25007435  0.76341829  1
  P  P280  1  0.80321741  0.58464906  0.01496371  1
  P  P281  1  0.80380966  0.58286926  0.26348408  1
  P  P282  1  0.80476019  0.58372490  0.51585427  1
  P  P283  1  0.80356526  0.58311594  0.76368548  1
  P  P284  1  0.80414794  0.91661108  0.01414587  1
  P  P285  1  0.80539405  0.91685237  0.26512298  1
  P  P286  1  0.80597892  0.91637649  0.51440358  1
  P  P287  1  0.80403686  0.91672336  0.76394571  1
  O  O288  1  0.05600219  0.24991157  0.18619069  1
  O  O289  1  0.05783341  0.24954497  0.43769544  1
  O  O290  1  0.05675164  0.24988654  0.68621532  1
  O  O291  1  0.05650073  0.24963491  0.93634923  1
  O  O292  1  0.05849804  0.58357411  0.18717499  1
  O  O293  1  0.05596857  0.58303350  0.43606055  1
  O  O294  1  0.05739538  0.58279510  0.68815861  1
  O  O295  1  0.05894750  0.58335797  0.93740205  1
  O  O296  1  0.05880449  0.91660452  0.18800026  1
  O  O297  1  0.05881510  0.91758596  0.43718312  1
  O  O298  1  0.05891824  0.91768679  0.68753294  1
  O  O299  1  0.05623181  0.91713407  0.93666643  1
  O  O300  1  0.55957834  0.24978207  0.18829649  1
  O  O301  1  0.55968392  0.25027966  0.43775238  1
  O  O302  1  0.55869141  0.24987822  0.68686725  1
  O  O303  1  0.55634663  0.24935435  0.93615315  1
  O  O304  1  0.56044610  0.58388695  0.18726024  1
  O  O305  1  0.55790170  0.58386556  0.43592698  1
  O  O306  1  0.55962291  0.58381903  0.68764043  1
  O  O307  1  0.56028023  0.58427090  0.93770880  1
  O  O308  1  0.55635700  0.91633150  0.18582185  1
  O  O309  1  0.55599695  0.91671439  0.43654214  1
  O  O310  1  0.55849977  0.91598157  0.68777363  1
  O  O311  1  0.55954423  0.91632917  0.93751159  1
  O  O312  1  0.44109568  0.08284504  0.06276910  1
  O  O313  1  0.44058946  0.08286475  0.31279532  1
  O  O314  1  0.44100584  0.08310411  0.56215487  1
  O  O315  1  0.44221559  0.08246999  0.81202238  1
  O  O316  1  0.44421642  0.41736008  0.06379159  1
  O  O317  1  0.44416457  0.41715986  0.31359311  1
  O  O318  1  0.44391568  0.41690766  0.56317208  1
  O  O319  1  0.44495221  0.41730613  0.81323954  1
  O  O320  1  0.44000654  0.74944836  0.06245411  1
  O  O321  1  0.44020952  0.74993857  0.31213295  1
  O  O322  1  0.44395904  0.75038605  0.56395246  1
  O  O323  1  0.44264578  0.74953839  0.81388888  1
  O  O324  1  0.94026605  0.08297658  0.06214962  1
  O  O325  1  0.94448108  0.08320894  0.31344278  1
  O  O326  1  0.94362925  0.08357068  0.56323564  1
  O  O327  1  0.94235894  0.08285707  0.81375258  1
  O  O328  1  0.94263495  0.41729189  0.06336742  1
  O  O329  1  0.94012855  0.41649507  0.31253887  1
  O  O330  1  0.94024287  0.41623223  0.56271177  1
  O  O331  1  0.94003949  0.41657900  0.81185148  1
  O  O332  1  0.94194341  0.75003542  0.06178568  1
  O  O333  1  0.94380120  0.75008165  0.31385547  1
  O  O334  1  0.94220286  0.75010841  0.56233848  1
  O  O335  1  0.94362813  0.75045212  0.81372054  1
  O  O336  1  0.19464042  0.08316510  0.06161425  1
  O  O337  1  0.19132041  0.08324343  0.31274941  1
  O  O338  1  0.19359228  0.08367350  0.56137648  1
  O  O339  1  0.19443304  0.08335901  0.81194397  1
  O  O340  1  0.19351100  0.41633758  0.06143471  1
  O  O341  1  0.19291539  0.41645321  0.31164248  1
  O  O342  1  0.19255850  0.41531049  0.56199050  1
  O  O343  1  0.19348592  0.41665163  0.81147573  1
  O  O344  1  0.19073640  0.75056955  0.06265124  1
  O  O345  1  0.19287986  0.75081099  0.31157723  1
  O  O346  1  0.18976938  0.75022947  0.56337550  1
  O  O347  1  0.19048266  0.75101363  0.81274146  1
  O  O348  1  0.69333249  0.08224253  0.06133980  1
  O  O349  1  0.69089829  0.08206757  0.31362164  1
  O  O350  1  0.69037863  0.08259198  0.56258716  1
  O  O351  1  0.69035478  0.08310199  0.81213314  1
  O  O352  1  0.69395405  0.41644329  0.06099481  1
  O  O353  1  0.69565507  0.41647637  0.31219999  1
  O  O354  1  0.69487195  0.41643100  0.56207233  1
  O  O355  1  0.69143745  0.41602672  0.81268690  1
  O  O356  1  0.69478651  0.75092602  0.06201287  1
  O  O357  1  0.69402546  0.75095882  0.31180044  1
  O  O358  1  0.69254866  0.75092672  0.56243281  1
  O  O359  1  0.69357560  0.75058311  0.81121974  1
  O  O360  1  0.30657158  0.24984918  0.18835903  1
  O  O361  1  0.30660196  0.24953734  0.43864536  1
  O  O362  1  0.31034809  0.24987550  0.68739982  1
  O  O363  1  0.31027291  0.25046652  0.93667415  1
  O  O364  1  0.30526147  0.58402152  0.18833317  1
  O  O365  1  0.30615658  0.58388197  0.43871561  1
  O  O366  1  0.30594230  0.58361763  0.68846879  1
  O  O367  1  0.30610395  0.58380308  0.93811772  1
  O  O368  1  0.30814580  0.91630851  0.18752061  1
  O  O369  1  0.30768272  0.91688941  0.43711329  1
  O  O370  1  0.30558912  0.91621044  0.68804878  1
  O  O371  1  0.30701428  0.91644986  0.93837462  1
  O  O372  1  0.80621604  0.24902399  0.18927389  1
  O  O373  1  0.80864509  0.24830387  0.43815206  1
  O  O374  1  0.80736760  0.24907367  0.68680128  1
  O  O375  1  0.80504798  0.24872197  0.93788468  1
  O  O376  1  0.80845566  0.58390142  0.18688661  1
  O  O377  1  0.80703227  0.58416310  0.43894327  1
  O  O378  1  0.80866367  0.58411903  0.68708452  1
  O  O379  1  0.80654690  0.58430411  0.93820388  1
  O  O380  1  0.80958349  0.91684187  0.18831112  1
  O  O381  1  0.81037288  0.91743885  0.43766980  1
  O  O382  1  0.80947487  0.91682811  0.68733206  1
  O  O383  1  0.80812871  0.91635706  0.93738727  1
  O  O384  1  0.23588920  0.24948728  0.03789764  1
  O  O385  1  0.23367948  0.24953791  0.29011601  1
  O  O386  1  0.23283927  0.24870436  0.54004041  1
  O  O387  1  0.23636936  0.24996178  0.78834837  1
  O  O388  1  0.23186281  0.58391115  0.03905623  1
  O  O389  1  0.23112237  0.58463259  0.28948659  1
  O  O390  1  0.23286264  0.58282018  0.54008318  1
  O  O391  1  0.23141218  0.58440816  0.78903769  1
  O  O392  1  0.23459552  0.91666633  0.04047160  1
  O  O393  1  0.23360889  0.91609627  0.28823092  1
  O  O394  1  0.23262970  0.91786126  0.53741065  1
  O  O395  1  0.23209135  0.91687535  0.78972249  1
  O  O396  1  0.73294080  0.24905272  0.04028703  1
  O  O397  1  0.73305780  0.25034465  0.29087996  1
  O  O398  1  0.73349173  0.24951240  0.53838687  1
  O  O399  1  0.73192803  0.24949456  0.78686824  1
  O  O400  1  0.73313407  0.58379978  0.03949946  1
  O  O401  1  0.73367117  0.58318929  0.28786224  1
  O  O402  1  0.73518482  0.58305796  0.54129892  1
  O  O403  1  0.73315472  0.58392451  0.78705091  1
  O  O404  1  0.73390710  0.91675755  0.03859893  1
  O  O405  1  0.73533483  0.91640598  0.28915225  1
  O  O406  1  0.73574394  0.91702216  0.53795867  1
  O  O407  1  0.73345631  0.91649775  0.78669846  1
  O  O408  1  0.26687748  0.08259422  0.21286206  1
  O  O409  1  0.26676178  0.08343739  0.45978762  1
  O  O410  1  0.26830279  0.08268021  0.71064679  1
  O  O411  1  0.26907405  0.08287180  0.96082286  1
  O  O412  1  0.26604666  0.41703224  0.20967989  1
  O  O413  1  0.26556953  0.41603394  0.46009386  1
  O  O414  1  0.26633073  0.41633930  0.70973713  1
  O  O415  1  0.26649525  0.41786119  0.95947342  1
  O  O416  1  0.26623473  0.75050511  0.21019972  1
  O  O417  1  0.26432979  0.75059139  0.46260948  1
  O  O418  1  0.26346496  0.75032796  0.71079483  1
  O  O419  1  0.26564200  0.75037462  0.96222510  1
  O  O420  1  0.76521390  0.08332516  0.21274663  1
  O  O421  1  0.76457438  0.08318626  0.46193268  1
  O  O422  1  0.76380696  0.08290511  0.71078899  1
  O  O423  1  0.76665814  0.08200357  0.95962533  1
  O  O424  1  0.76825044  0.41612692  0.20987487  1
  O  O425  1  0.76897283  0.41658896  0.46122597  1
  O  O426  1  0.76611973  0.41634883  0.71197934  1
  O  O427  1  0.76568705  0.41696339  0.95850081  1
  O  O428  1  0.76673240  0.75033948  0.20994407  1
  O  O429  1  0.76808421  0.74993056  0.46243585  1
  O  O430  1  0.76596545  0.75058469  0.70940313  1
  O  O431  1  0.76836953  0.75067137  0.96018925  1
  O  O432  1  0.01497193  0.08272473  0.16284814  1
  O  O433  1  0.01784392  0.08318451  0.41520024  1
  O  O434  1  0.01609453  0.08324139  0.66532507  1
  O  O435  1  0.01523482  0.08251204  0.91575673  1
  O  O436  1  0.01505692  0.41658606  0.16558598  1
  O  O437  1  0.01389829  0.41647476  0.41377407  1
  O  O438  1  0.01351192  0.41628559  0.66421533  1
  O  O439  1  0.01494200  0.41714653  0.91239853  1
  O  O440  1  0.01665067  0.75027502  0.16272169  1
  O  O441  1  0.01586667  0.75050930  0.41600083  1
  O  O442  1  0.01656981  0.75079595  0.66320913  1
  O  O443  1  0.01735036  0.75090978  0.91490199  1
  O  O444  1  0.51445773  0.08246699  0.16402056  1
  O  O445  1  0.51570087  0.08302178  0.41309868  1
  O  O446  1  0.51623302  0.08300775  0.66223563  1
  O  O447  1  0.51696406  0.08343306  0.91268041  1
  O  O448  1  0.51725085  0.41702416  0.16549581  1
  O  O449  1  0.51754216  0.41693738  0.41522697  1
  O  O450  1  0.51700994  0.41600164  0.66475296  1
  O  O451  1  0.51905878  0.41614738  0.91443333  1
  O  O452  1  0.51437775  0.75067977  0.16312317  1
  O  O453  1  0.51487877  0.75070425  0.41290771  1
  O  O454  1  0.51845041  0.75021027  0.66492770  1
  O  O455  1  0.51590386  0.74995815  0.91524790  1
  O  O456  1  0.48507787  0.24937811  0.08751833  1
  O  O457  1  0.48562560  0.24910247  0.33685017  1
  O  O458  1  0.48388465  0.24939842  0.58638564  1
  O  O459  1  0.48342178  0.24926801  0.83433567  1
  O  O460  1  0.48545737  0.58359966  0.08698856  1
  O  O461  1  0.48470176  0.58411861  0.33427909  1
  O  O462  1  0.48527474  0.58436520  0.58656022  1
  O  O463  1  0.48601848  0.58341343  0.83674051  1
  O  O464  1  0.48206788  0.91669727  0.08511109  1
  O  O465  1  0.48142749  0.91702511  0.33568486  1
  O  O466  1  0.48469937  0.91694122  0.58647144  1
  O  O467  1  0.48558671  0.91668583  0.83643842  1
  O  O468  1  0.98293871  0.25053518  0.08457292  1
  O  O469  1  0.98241287  0.24891893  0.33739232  1
  O  O470  1  0.98182515  0.24993472  0.58593503  1
  O  O471  1  0.98293455  0.24913429  0.83502255  1
  O  O472  1  0.98356870  0.58397739  0.08652983  1
  O  O473  1  0.98345629  0.58376752  0.33430603  1
  O  O474  1  0.98216096  0.58324555  0.58782450  1
  O  O475  1  0.98502349  0.58425349  0.83642158  1
  O  O476  1  0.98328483  0.91608104  0.08790839  1
  O  O477  1  0.98413592  0.91701237  0.33661703  1
  O  O478  1  0.98408989  0.91720420  0.58727395  1
  O  O479  1  0.98232702  0.91636502  0.83544450  1
  O  O480  1  0.08690298  0.31517090  0.07711439  1
  O  O481  1  0.08579040  0.31390608  0.32733722  1
  O  O482  1  0.08563633  0.31501135  0.57634782  1
  O  O483  1  0.08650033  0.31446863  0.82678794  1
  O  O484  1  0.08734840  0.64942378  0.07759246  1
  O  O485  1  0.08755682  0.64828060  0.32695851  1
  O  O486  1  0.08572419  0.64865393  0.57849653  1
  O  O487  1  0.08840131  0.65010389  0.82844048  1
  O  O488  1  0.08678311  0.98086855  0.07747323  1
  O  O489  1  0.08759552  0.98318881  0.32732687  1
  O  O490  1  0.08815536  0.98147677  0.57717770  1
  O  O491  1  0.08645959  0.98114602  0.82680091  1
  O  O492  1  0.58851413  0.31448200  0.07831038  1
  O  O493  1  0.58966966  0.31355777  0.32746215  1
  O  O494  1  0.58811195  0.31362104  0.57655664  1
  O  O495  1  0.58732970  0.31452271  0.82675751  1
  O  O496  1  0.58891073  0.64905898  0.07710631  1
  O  O497  1  0.58879041  0.64888033  0.32664345  1
  O  O498  1  0.58870369  0.64996545  0.57814746  1
  O  O499  1  0.59002425  0.64779659  0.82757128  1
  O  O500  1  0.58627207  0.98141904  0.07637431  1
  O  O501  1  0.58502779  0.98262271  0.32718697  1
  O  O502  1  0.58849092  0.98134747  0.57830362  1
  O  O503  1  0.58895325  0.98252949  0.82794409  1
  O  O504  1  0.41084575  0.01677552  0.17204888  1
  O  O505  1  0.41214119  0.01716399  0.42275512  1
  O  O506  1  0.41224708  0.01901275  0.67278055  1
  O  O507  1  0.41286771  0.01915043  0.92239025  1
  O  O508  1  0.41354671  0.35204962  0.17298516  1
  O  O509  1  0.41376726  0.35188973  0.42267996  1
  O  O510  1  0.41327794  0.35080702  0.67175814  1
  O  O511  1  0.41539661  0.35075747  0.92206328  1
  O  O512  1  0.41061091  0.68594230  0.17301058  1
  O  O513  1  0.41140941  0.68582196  0.42242638  1
  O  O514  1  0.41452112  0.68528400  0.67348850  1
  O  O515  1  0.41208971  0.68450324  0.92334566  1
  O  O516  1  0.91158674  0.01723669  0.17180156  1
  O  O517  1  0.91423413  0.01777450  0.42265772  1
  O  O518  1  0.91224266  0.01832221  0.67212794  1
  O  O519  1  0.91171569  0.01640722  0.92249415  1
  O  O520  1  0.91029694  0.35344987  0.17275162  1
  O  O521  1  0.91062548  0.35025172  0.42197075  1
  O  O522  1  0.90971542  0.35103097  0.67215872  1
  O  O523  1  0.91157859  0.35164434  0.92173696  1
  O  O524  1  0.91330813  0.68472390  0.17162308  1
  O  O525  1  0.91158073  0.68632408  0.42319818  1
  O  O526  1  0.91324283  0.68552544  0.67267689  1
  O  O527  1  0.91323994  0.68641397  0.92351766  1
  O  O528  1  0.16349949  0.01706759  0.20292694  1
  O  O529  1  0.16246504  0.01896245  0.45188560  1
  O  O530  1  0.16427217  0.01762053  0.70286421  1
  O  O531  1  0.16503514  0.01816098  0.95226062  1
  O  O532  1  0.16226733  0.35229067  0.20217224  1
  O  O533  1  0.16254968  0.34922126  0.45292882  1
  O  O534  1  0.16215495  0.35221372  0.70237972  1
  O  O535  1  0.16321330  0.35206715  0.95172602  1
  O  O536  1  0.16187773  0.68587579  0.20219274  1
  O  O537  1  0.16059633  0.68605135  0.45340834  1
  O  O538  1  0.15935777  0.68560033  0.70336310  1
  O  O539  1  0.16194052  0.68461936  0.95304725  1
  O  O540  1  0.66175196  0.01875783  0.20303233  1
  O  O541  1  0.66056725  0.01902536  0.45210012  1
  O  O542  1  0.66026047  0.01755270  0.70259549  1
  O  O543  1  0.66282619  0.01651075  0.95221725  1
  O  O544  1  0.66444075  0.35106563  0.20329036  1
  O  O545  1  0.66536701  0.35082827  0.45279244  1
  O  O546  1  0.66256470  0.35147894  0.70252723  1
  O  O547  1  0.66141042  0.35265895  0.95166240  1
  O  O548  1  0.66314923  0.68475453  0.20298136  1
  O  O549  1  0.66427254  0.68519309  0.45282419  1
  O  O550  1  0.66204580  0.68550826  0.70206547  1
  O  O551  1  0.66453415  0.68559010  0.95285188  1
  O  O552  1  0.33923053  0.31474368  0.04675534  1
  O  O553  1  0.33761512  0.31429311  0.29769895  1
  O  O554  1  0.33713943  0.31342405  0.54834141  1
  O  O555  1  0.34071393  0.31369494  0.79758172  1
  O  O556  1  0.33535612  0.64963783  0.04752458  1
  O  O557  1  0.33484049  0.64999399  0.29750026  1
  O  O558  1  0.33626109  0.64847964  0.54848199  1
  O  O559  1  0.33546551  0.64880108  0.79788854  1
  O  O560  1  0.33878351  0.98135682  0.04743285  1
  O  O561  1  0.33747916  0.98104123  0.29766039  1
  O  O562  1  0.33637226  0.98299208  0.54656582  1
  O  O563  1  0.33642641  0.98180314  0.79697221  1
  O  O564  1  0.83690076  0.31341343  0.04673580  1
  O  O565  1  0.83734192  0.31537217  0.29779010  1
  O  O566  1  0.83728387  0.31480730  0.54760631  1
  O  O567  1  0.83540507  0.31520012  0.79661969  1
  O  O568  1  0.83688660  0.64983562  0.04759232  1
  O  O569  1  0.83731850  0.64771007  0.29717244  1
  O  O570  1  0.83879968  0.64889726  0.54828917  1
  O  O571  1  0.83700917  0.64797900  0.79734171  1
  O  O572  1  0.83773212  0.98168536  0.04719725  1
  O  O573  1  0.83888424  0.98186057  0.29841208  1
  O  O574  1  0.83962806  0.98114094  0.54809977  1
  O  O575  1  0.83693896  0.98167760  0.79775717  1
  O  O576  1  0.41054006  0.14678781  0.17308004  1
  O  O577  1  0.41175212  0.14714564  0.42308848  1
  O  O578  1  0.41292521  0.14902602  0.67193183  1
  O  O579  1  0.41352690  0.14921416  0.92152696  1
  O  O580  1  0.41345601  0.48221882  0.17299953  1
  O  O581  1  0.41373499  0.48215193  0.42271180  1
  O  O582  1  0.41349610  0.48114291  0.67301303  1
  O  O583  1  0.41528114  0.48109415  0.92310073  1
  O  O584  1  0.41068388  0.81597963  0.17176030  1
  O  O585  1  0.41132892  0.81606973  0.42172564  1
  O  O586  1  0.41462696  0.81532408  0.67342600  1
  O  O587  1  0.41164292  0.81450208  0.92291542  1
  O  O588  1  0.91144935  0.14745196  0.17229001  1
  O  O589  1  0.91353422  0.14767064  0.42281975  1
  O  O590  1  0.91230118  0.14850997  0.67233305  1
  O  O591  1  0.91064236  0.14640579  0.92320680  1
  O  O592  1  0.91201503  0.48359263  0.17217747  1
  O  O593  1  0.90988278  0.48044742  0.42252103  1
  O  O594  1  0.90972794  0.48127749  0.67247522  1
  O  O595  1  0.91149186  0.48188351  0.92165844  1
  O  O596  1  0.91288312  0.81488728  0.17171306  1
  O  O597  1  0.91237563  0.81641659  0.42259796  1
  O  O598  1  0.91301856  0.81573254  0.67188432  1
  O  O599  1  0.91332893  0.81630302  0.92288509  1
  O  O600  1  0.08658618  0.18497683  0.07691346  1
  O  O601  1  0.08616399  0.18374786  0.32792390  1
  O  O602  1  0.08604347  0.18511531  0.57657768  1
  O  O603  1  0.08687016  0.18429477  0.82725038  1
  O  O604  1  0.08735725  0.51935212  0.07687386  1
  O  O605  1  0.08719447  0.51829263  0.32670413  1
  O  O606  1  0.08552330  0.51848411  0.57775411  1
  O  O607  1  0.08896465  0.51993139  0.82686725  1
  O  O608  1  0.08681605  0.85085335  0.07816526  1
  O  O609  1  0.08823452  0.85317861  0.32706839  1
  O  O610  1  0.08751989  0.85147733  0.57773269  1
  O  O611  1  0.08635915  0.85122567  0.82756285  1
  O  O612  1  0.58833287  0.18438336  0.07834946  1
  O  O613  1  0.58901979  0.18343382  0.32853963  1
  O  O614  1  0.58744578  0.18364696  0.57732363  1
  O  O615  1  0.58744127  0.18447974  0.82682473  1
  O  O616  1  0.58962206  0.51916224  0.07743975  1
  O  O617  1  0.58873075  0.51885380  0.32675749  1
  O  O618  1  0.58884035  0.51961025  0.57769339  1
  O  O619  1  0.58952047  0.51767194  0.82823474  1
  O  O620  1  0.58612577  0.85167000  0.07605138  1
  O  O621  1  0.58537375  0.85256789  0.32670092  1
  O  O622  1  0.58797516  0.85113610  0.57772395  1
  O  O623  1  0.58968089  0.85249285  0.82755681  1
  O  O624  1  0.33947866  0.18435372  0.04593481  1
  O  O625  1  0.33736615  0.18413153  0.29735845  1
  O  O626  1  0.33696818  0.18342123  0.54750077  1
  O  O627  1  0.33966735  0.18359534  0.79666389  1
  O  O628  1  0.33603444  0.51959611  0.04783525  1
  O  O629  1  0.33511294  0.51981909  0.29802221  1
  O  O630  1  0.33704155  0.51830499  0.54756588  1
  O  O631  1  0.33510266  0.51873582  0.79819354  1
  O  O632  1  0.33824741  0.85124691  0.04749130  1
  O  O633  1  0.33725911  0.85094290  0.29735558  1
  O  O634  1  0.33616889  0.85294460  0.54775377  1
  O  O635  1  0.33582651  0.85188318  0.79763058  1
  O  O636  1  0.83617430  0.18305530  0.04690055  1
  O  O637  1  0.83678099  0.18545837  0.29949606  1
  O  O638  1  0.83718584  0.18477638  0.54873716  1
  O  O639  1  0.83564418  0.18516892  0.79706918  1
  O  O640  1  0.83753621  0.51984926  0.04767408  1
  O  O641  1  0.83710670  0.51766128  0.29632706  1
  O  O642  1  0.83935414  0.51873164  0.54771025  1
  O  O643  1  0.83625737  0.51785456  0.79688108  1
  O  O644  1  0.83783199  0.85161290  0.04738781  1
  O  O645  1  0.83962291  0.85208697  0.29787302  1
  O  O646  1  0.83920726  0.85109024  0.54731981  1
  O  O647  1  0.83736339  0.85188952  0.79770246  1
  O  O648  1  0.16317346  0.14725436  0.20227357  1
  O  O649  1  0.16280803  0.14894486  0.45212252  1
  O  O650  1  0.16460587  0.14767075  0.70217088  1
  O  O651  1  0.16533211  0.14810080  0.95183712  1
  O  O652  1  0.16239089  0.48262157  0.20289508  1
  O  O653  1  0.16103971  0.47950656  0.45288097  1
  O  O654  1  0.16279328  0.48249594  0.70253396  1
  O  O655  1  0.16215168  0.48231755  0.95306929  1
  O  O656  1  0.16245475  0.81585265  0.20201761  1
  O  O657  1  0.16122863  0.81635818  0.45371736  1
  O  O658  1  0.15986943  0.81579958  0.70317032  1
  O  O659  1  0.16163299  0.81457495  0.95234100  1
  O  O660  1  0.66192723  0.14904593  0.20459173  1
  O  O661  1  0.66101339  0.14898979  0.45341245  1
  O  O662  1  0.65992625  0.14773839  0.70234262  1
  O  O663  1  0.66241014  0.14643389  0.95165460  1
  O  O664  1  0.66450528  0.48129059  0.20296274  1
  O  O665  1  0.66510905  0.48092040  0.45242053  1
  O  O666  1  0.66291743  0.48183638  0.70298589  1
  O  O667  1  0.66216210  0.48286953  0.95257768  1
  O  O668  1  0.66284083  0.81488603  0.20224916  1
  O  O669  1  0.66460350  0.81520926  0.45196595  1
  O  O670  1  0.66204741  0.81556303  0.70187930  1
  O  O671  1  0.66440987  0.81560717  0.95264474  1
