# generated using pymatgen
data_Na2MnFe(PO4)2
_symmetry_space_group_name_H-M   'P 1'
_cell_length_a   21.08556861
_cell_length_b   18.93819674
_cell_length_c   20.04460102
_cell_angle_alpha   89.99970062
_cell_angle_beta   89.99971530
_cell_angle_gamma   89.99907940
_symmetry_Int_Tables_number   1
_chemical_formula_structural   Na2MnFe(PO4)2
_chemical_formula_sum   'Na96 Mn48 Fe48 P96 O384'
_cell_volume   8004.26313026
_cell_formula_units_Z   48
loop_
 _symmetry_equiv_pos_site_id
 _symmetry_equiv_pos_as_xyz
  1  'x, y, z'
loop_
 _atom_site_type_symbol
 _atom_site_label
 _atom_site_symmetry_multiplicity
 _atom_site_fract_x
 _atom_site_fract_y
 _atom_site_fract_z
 _atom_site_occupancy
  Na  Na0  1  -0.00057593  0.00046753  -0.00043539  1
  Na  Na1  1  -0.00258500  -0.00122100  0.25120144  1
  Na  Na2  1  0.00007603  0.00017673  0.49924329  1
  Na  Na3  1  -0.00095366  -0.00053536  0.75014226  1
  Na  Na4  1  0.00047069  0.33333288  0.00003945  1
  Na  Na5  1  -0.00028588  0.33349924  0.25010789  1
  Na  Na6  1  -0.00059161  0.33338149  0.50039771  1
  Na  Na7  1  -0.00018608  0.33321602  0.74954653  1
  Na  Na8  1  -0.00010373  0.66629348  -0.00065129  1
  Na  Na9  1  0.00034477  0.66635763  0.24989485  1
  Na  Na10  1  0.00062169  0.66636620  0.50068472  1
  Na  Na11  1  0.00166474  0.66732344  0.74959387  1
  Na  Na12  1  0.49848365  -0.00115071  -0.00016672  1
  Na  Na13  1  0.50006203  -0.00056552  0.24898229  1
  Na  Na14  1  0.50235515  0.00068096  0.50067260  1
  Na  Na15  1  0.50041046  0.00016151  0.75061493  1
  Na  Na16  1  0.50090582  0.33410508  -0.00031936  1
  Na  Na17  1  0.50061365  0.33338792  0.24909823  1
  Na  Na18  1  0.49853287  0.33306995  0.50025896  1
  Na  Na19  1  0.49904826  0.33354191  0.75069934  1
  Na  Na20  1  0.49870619  0.66610561  0.00048365  1
  Na  Na21  1  0.50266007  0.66777728  0.25039596  1
  Na  Na22  1  0.50095700  0.66675898  0.50067679  1
  Na  Na23  1  0.49982828  0.66678637  0.74889831  1
  Na  Na24  1  0.25117245  0.00006390  0.12560483  1
  Na  Na25  1  0.25084359  0.00009139  0.37493613  1
  Na  Na26  1  0.24912248  -0.00081332  0.62365259  1
  Na  Na27  1  0.25171970  0.00074472  0.87583119  1
  Na  Na28  1  0.24912460  0.33256908  0.12533992  1
  Na  Na29  1  0.25192604  0.33377183  0.37561357  1
  Na  Na30  1  0.25247859  0.33357482  0.62401944  1
  Na  Na31  1  0.25037063  0.33320465  0.87461992  1
  Na  Na32  1  0.24844310  0.66601945  0.12494563  1
  Na  Na33  1  0.24848082  0.66667667  0.37460253  1
  Na  Na34  1  0.24778401  0.66573085  0.62491931  1
  Na  Na35  1  0.25013993  0.66705518  0.87567757  1
  Na  Na36  1  0.75221716  0.00094055  0.12616613  1
  Na  Na37  1  0.74943991  -0.00069110  0.37551167  1
  Na  Na38  1  0.74975965  -0.00027230  0.62345391  1
  Na  Na39  1  0.74952620  -0.00083216  0.87429742  1
  Na  Na40  1  0.74920145  0.33367698  0.12599117  1
  Na  Na41  1  0.74836534  0.33357956  0.37596881  1
  Na  Na42  1  0.74948754  0.33404050  0.62458825  1
  Na  Na43  1  0.74964358  0.33312681  0.87462389  1
  Na  Na44  1  0.74986245  0.66681561  0.12633897  1
  Na  Na45  1  0.74916197  0.66624869  0.37354647  1
  Na  Na46  1  0.74906066  0.66618838  0.62427222  1
  Na  Na47  1  0.75172652  0.66735080  0.87591017  1
  Na  Na48  1  0.00056195  0.16644221  -0.00027696  1
  Na  Na49  1  0.00083590  0.16594900  0.25034266  1
  Na  Na50  1  0.00110499  0.16620615  0.49981728  1
  Na  Na51  1  0.00153414  0.16586929  0.74938983  1
  Na  Na52  1  0.00030525  0.50029364  -0.00044367  1
  Na  Na53  1  -0.00157356  0.50120135  0.25072170  1
  Na  Na54  1  0.00043665  0.50051523  0.50015929  1
  Na  Na55  1  0.00018530  0.50045813  0.75034497  1
  Na  Na56  1  -0.00167371  0.83347152  -0.00072954  1
  Na  Na57  1  -0.00103701  0.83289761  0.25030380  1
  Na  Na58  1  -0.00239367  0.83377030  0.50002404  1
  Na  Na59  1  -0.00084112  0.83285176  0.74968134  1
  Na  Na60  1  0.49982447  0.16663938  -0.00008236  1
  Na  Na61  1  0.50141518  0.16588093  0.24842765  1
  Na  Na62  1  0.49933502  0.16678697  0.49986991  1
  Na  Na63  1  0.49885610  0.16682576  0.75177182  1
  Na  Na64  1  0.49871841  0.50168894  -0.00025444  1
  Na  Na65  1  0.50173025  0.50050111  0.25086957  1
  Na  Na66  1  0.50280820  0.49922314  0.50040467  1
  Na  Na67  1  0.49991488  0.50032092  0.74898090  1
  Na  Na68  1  0.49857192  0.83345164  0.00025707  1
  Na  Na69  1  0.50075001  0.83281785  0.24945163  1
  Na  Na70  1  0.49925820  0.83433069  0.50105639  1
  Na  Na71  1  0.50076574  0.83250055  0.74941152  1
  Na  Na72  1  0.24881831  0.16643073  0.12505473  1
  Na  Na73  1  0.24925794  0.16696396  0.37632524  1
  Na  Na74  1  0.25020298  0.16693800  0.62319242  1
  Na  Na75  1  0.25073145  0.16604786  0.87494398  1
  Na  Na76  1  0.24992590  0.50071098  0.12480355  1
  Na  Na77  1  0.24973008  0.50109584  0.37435412  1
  Na  Na78  1  0.25119983  0.50015394  0.62478428  1
  Na  Na79  1  0.25031354  0.50097962  0.87574289  1
  Na  Na80  1  0.25109589  0.83270435  0.12569468  1
  Na  Na81  1  0.25037946  0.83331108  0.37491519  1
  Na  Na82  1  0.24956312  0.83316843  0.62421409  1
  Na  Na83  1  0.25055581  0.83276431  0.87572872  1
  Na  Na84  1  0.74803017  0.16724038  0.12611457  1
  Na  Na85  1  0.74886157  0.16592972  0.37557573  1
  Na  Na86  1  0.74894699  0.16649364  0.62459238  1
  Na  Na87  1  0.75066879  0.16616026  0.87434150  1
  Na  Na88  1  0.75237742  0.49937329  0.12634852  1
  Na  Na89  1  0.74828656  0.50087483  0.37515969  1
  Na  Na90  1  0.74742226  0.50089795  0.62344264  1
  Na  Na91  1  0.74990551  0.50018617  0.87517200  1
  Na  Na92  1  0.74970433  0.83325941  0.12629052  1
  Na  Na93  1  0.75057351  0.83321992  0.37395972  1
  Na  Na94  1  0.75191645  0.83294889  0.62446370  1
  Na  Na95  1  0.75165279  0.83279716  0.87500503  1
  Mn  Mn96  1  0.39205489  0.91564910  0.87690742  1
  Mn  Mn97  1  0.89225799  0.25012617  0.87656622  1
  Mn  Mn98  1  0.39176754  0.25042439  0.87745531  1
  Mn  Mn99  1  0.10867275  0.08310197  0.87223867  1
  Mn  Mn100  1  0.39213884  0.91767616  0.62732496  1
  Mn  Mn101  1  0.85795153  0.08343793  0.00276541  1
  Mn  Mn102  1  0.89222070  0.58354643  0.62749971  1
  Mn  Mn103  1  0.89129738  0.91687303  0.87700767  1
  Mn  Mn104  1  0.10846695  0.41641145  0.87195447  1
  Mn  Mn105  1  0.85800401  0.41657548  0.00257465  1
  Mn  Mn106  1  0.60879003  0.75025984  0.62245807  1
  Mn  Mn107  1  0.64055714  0.25037727  0.49759425  1
  Mn  Mn108  1  0.64252714  0.91567027  0.49738090  1
  Mn  Mn109  1  0.35781645  0.74975389  0.25255062  1
  Mn  Mn110  1  0.60798946  0.08234144  0.12225379  1
  Mn  Mn111  1  0.10711075  0.74997563  0.37333837  1
  Mn  Mn112  1  0.64200581  0.24994697  0.74712513  1
  Mn  Mn113  1  0.14196876  0.91699667  0.74703937  1
  Mn  Mn114  1  0.85733452  0.74991512  0.25224241  1
  Mn  Mn115  1  0.14239317  0.91624305  0.99878685  1
  Mn  Mn116  1  0.39313430  0.58381606  0.37727112  1
  Mn  Mn117  1  0.89151129  0.25034338  0.37712134  1
  Mn  Mn118  1  0.35775410  0.41694562  0.00278917  1
  Mn  Mn119  1  0.14175880  0.91693251  0.24741912  1
  Mn  Mn120  1  0.10810779  0.41670268  0.37295286  1
  Mn  Mn121  1  0.85668381  0.41714018  0.50239762  1
  Mn  Mn122  1  0.14208801  0.25013453  0.99776449  1
  Mn  Mn123  1  0.39245129  0.25031440  0.12754116  1
  Mn  Mn124  1  0.89168756  0.24974391  0.12806359  1
  Mn  Mn125  1  0.35850643  0.08276983  0.50227485  1
  Mn  Mn126  1  0.64254450  0.58323534  0.99795179  1
  Mn  Mn127  1  0.35778771  0.08373928  0.25241073  1
  Mn  Mn128  1  0.10717017  0.41672413  0.12316562  1
  Mn  Mn129  1  0.60828999  0.41756637  0.12265115  1
  Mn  Mn130  1  0.14332888  0.25067359  0.49760132  1
  Mn  Mn131  1  0.10869928  0.41675939  0.62278988  1
  Mn  Mn132  1  0.60775513  0.41763435  0.87247318  1
  Mn  Mn133  1  0.89201702  0.58292020  0.87661100  1
  Mn  Mn134  1  0.85723300  0.08327584  0.50267564  1
  Mn  Mn135  1  0.10774478  0.75037324  0.87310194  1
  Mn  Mn136  1  0.64266855  0.91688960  0.99808287  1
  Mn  Mn137  1  0.89244918  0.24941794  0.62745494  1
  Mn  Mn138  1  0.10729993  0.08308791  0.37248569  1
  Mn  Mn139  1  0.60810245  0.74958341  0.87340005  1
  Mn  Mn140  1  0.60766922  0.08296470  0.87273236  1
  Mn  Mn141  1  0.39262081  0.58321349  0.62683852  1
  Mn  Mn142  1  0.35780808  0.41662419  0.25237998  1
  Mn  Mn143  1  0.35719746  0.74995102  0.75205365  1
  Fe  Fe144  1  0.64342833  0.91628221  0.74830523  1
  Fe  Fe145  1  0.14233516  0.91573359  0.49802392  1
  Fe  Fe146  1  0.39284195  0.24961547  0.62702942  1
  Fe  Fe147  1  0.39353464  0.91673764  0.37640375  1
  Fe  Fe148  1  0.85718394  0.74923169  0.50142043  1
  Fe  Fe149  1  0.89254386  0.91631597  0.12685976  1
  Fe  Fe150  1  0.64217220  0.25006541  0.24894506  1
  Fe  Fe151  1  0.35755431  0.41685525  0.75149648  1
  Fe  Fe152  1  0.14193596  0.58299280  0.24759065  1
  Fe  Fe153  1  0.64243216  0.58378264  0.74889915  1
  Fe  Fe154  1  0.14324841  0.58276611  0.74845356  1
  Fe  Fe155  1  0.35719878  0.08345778  0.75094551  1
  Fe  Fe156  1  0.35736930  0.74998793  0.00248376  1
  Fe  Fe157  1  0.60678306  0.41622611  0.37293995  1
  Fe  Fe158  1  0.10700003  0.75099338  0.62281169  1
  Fe  Fe159  1  0.60681303  0.41588968  0.62382429  1
  Fe  Fe160  1  0.89240880  0.58358106  0.37692317  1
  Fe  Fe161  1  0.60730483  0.08394931  0.62439767  1
  Fe  Fe162  1  0.10661226  0.75063818  0.12325747  1
  Fe  Fe163  1  0.60686132  0.74995606  0.12284009  1
  Fe  Fe164  1  0.35721150  0.74970621  0.50112968  1
  Fe  Fe165  1  0.10653743  0.08236748  0.12404934  1
  Fe  Fe166  1  0.85778245  0.74977919  0.00268145  1
  Fe  Fe167  1  0.64263845  0.91662585  0.24818874  1
  Fe  Fe168  1  0.64263510  0.25000040  0.99844690  1
  Fe  Fe169  1  0.60708657  0.08306585  0.37303207  1
  Fe  Fe170  1  0.35864087  0.41797162  0.50129976  1
  Fe  Fe171  1  0.85741329  0.08361372  0.75075640  1
  Fe  Fe172  1  0.14309987  0.58341037  0.49837324  1
  Fe  Fe173  1  0.39261145  0.58395299  0.12727850  1
  Fe  Fe174  1  0.85733636  0.74942965  0.75105798  1
  Fe  Fe175  1  0.39305969  0.24946151  0.37546402  1
  Fe  Fe176  1  0.89310468  0.91689516  0.62638412  1
  Fe  Fe177  1  0.89189173  0.91596214  0.37701341  1
  Fe  Fe178  1  0.14243481  0.25039177  0.24880021  1
  Fe  Fe179  1  0.89325297  0.58367364  0.12676950  1
  Fe  Fe180  1  0.85676054  0.41622646  0.25239725  1
  Fe  Fe181  1  0.14305068  0.58344263  0.99864383  1
  Fe  Fe182  1  0.85677660  0.41684298  0.75080932  1
  Fe  Fe183  1  0.85673734  0.08405920  0.25186359  1
  Fe  Fe184  1  0.64270377  0.58422329  0.49754715  1
  Fe  Fe185  1  0.64330083  0.58347170  0.24789379  1
  Fe  Fe186  1  0.35734740  0.08269415  0.00220884  1
  Fe  Fe187  1  0.60756229  0.75068823  0.37377534  1
  Fe  Fe188  1  0.14367592  0.25033065  0.74778134  1
  Fe  Fe189  1  0.39205315  0.58376287  0.87645728  1
  Fe  Fe190  1  0.10771062  0.08243829  0.62374137  1
  Fe  Fe191  1  0.39283869  0.91588743  0.12703609  1
  P  P192  1  0.05402526  0.24886378  0.11138908  1
  P  P193  1  0.05376170  0.25038896  0.35951033  1
  P  P194  1  0.05524959  0.24931429  0.61087435  1
  P  P195  1  0.05447768  0.24987893  0.85853145  1
  P  P196  1  0.05392717  0.58409121  0.11046322  1
  P  P197  1  0.05394948  0.58340883  0.36072743  1
  P  P198  1  0.05560700  0.58404347  0.61073749  1
  P  P199  1  0.05526868  0.58358284  0.86024979  1
  P  P200  1  0.05158756  0.91658290  0.11032849  1
  P  P201  1  0.05261150  0.91593286  0.36115141  1
  P  P202  1  0.05292406  0.91646113  0.60933238  1
  P  P203  1  0.05303510  0.91644967  0.85978251  1
  P  P204  1  0.55542273  0.25008221  0.11017267  1
  P  P205  1  0.55236356  0.24983936  0.35928504  1
  P  P206  1  0.55179965  0.24980784  0.61063976  1
  P  P207  1  0.55435646  0.25023358  0.86110070  1
  P  P208  1  0.55358804  0.58444366  0.11119090  1
  P  P209  1  0.55567643  0.58393511  0.36088431  1
  P  P210  1  0.55590578  0.58270924  0.61062233  1
  P  P211  1  0.55228004  0.58390806  0.85915242  1
  P  P212  1  0.55346217  0.91548659  0.11095323  1
  P  P213  1  0.55310935  0.91636386  0.35956102  1
  P  P214  1  0.55520307  0.91752829  0.61152355  1
  P  P215  1  0.55414821  0.91591087  0.85926930  1
  P  P216  1  0.44545221  0.08240768  0.13869880  1
  P  P217  1  0.44807931  0.08282194  0.38935092  1
  P  P218  1  0.44751251  0.08403840  0.64084694  1
  P  P219  1  0.44457249  0.08299622  0.88971630  1
  P  P220  1  0.44690061  0.41812247  0.14023217  1
  P  P221  1  0.44767121  0.41643058  0.38997848  1
  P  P222  1  0.44596314  0.41622569  0.63927751  1
  P  P223  1  0.44512573  0.41806846  0.88881441  1
  P  P224  1  0.44621970  0.74962843  0.13924272  1
  P  P225  1  0.44779140  0.75080886  0.39052648  1
  P  P226  1  0.44571684  0.75005734  0.63871579  1
  P  P227  1  0.44583726  0.74888249  0.89056296  1
  P  P228  1  0.94672433  0.08247183  0.14095830  1
  P  P229  1  0.94452436  0.08303753  0.38901405  1
  P  P230  1  0.94755091  0.08222870  0.63999998  1
  P  P231  1  0.94562411  0.08368941  0.88875552  1
  P  P232  1  0.94568238  0.41758734  0.14102951  1
  P  P233  1  0.94511916  0.41757881  0.38933313  1
  P  P234  1  0.94630324  0.41713463  0.64062530  1
  P  P235  1  0.94576481  0.41663622  0.88880431  1
  P  P236  1  0.94640568  0.74973377  0.13893452  1
  P  P237  1  0.94532202  0.74916665  0.39051318  1
  P  P238  1  0.94604336  0.75056840  0.63898633  1
  P  P239  1  0.94429244  0.74958066  0.88934480  1
  P  P240  1  0.19580634  0.08410478  0.23476446  1
  P  P241  1  0.19529651  0.08199956  0.48602410  1
  P  P242  1  0.19784014  0.08416711  0.73390604  1
  P  P243  1  0.19655844  0.08258888  0.98655391  1
  P  P244  1  0.19654200  0.41656117  0.23515682  1
  P  P245  1  0.19873272  0.41777883  0.48502736  1
  P  P246  1  0.19861991  0.41670280  0.73486139  1
  P  P247  1  0.19644758  0.41766845  0.98522014  1
  P  P248  1  0.19526703  0.74955758  0.23448749  1
  P  P249  1  0.19620174  0.75011949  0.48611239  1
  P  P250  1  0.19568122  0.74939841  0.73435639  1
  P  P251  1  0.19635487  0.74951873  0.98682319  1
  P  P252  1  0.69573177  0.08281894  0.23681671  1
  P  P253  1  0.69414067  0.08325725  0.48545479  1
  P  P254  1  0.69743632  0.08236406  0.73433057  1
  P  P255  1  0.69695173  0.08373248  0.98491813  1
  P  P256  1  0.69597140  0.41691348  0.23694537  1
  P  P257  1  0.69362431  0.41752459  0.48559424  1
  P  P258  1  0.69688806  0.41766728  0.73434485  1
  P  P259  1  0.69680146  0.41633522  0.98507919  1
  P  P260  1  0.69412194  0.75035826  0.23597018  1
  P  P261  1  0.69764180  0.74960423  0.48382017  1
  P  P262  1  0.69802845  0.74996245  0.73525659  1
  P  P263  1  0.69729253  0.75008076  0.98654035  1
  P  P264  1  0.30334726  0.24929150  0.01533908  1
  P  P265  1  0.30251225  0.24968111  0.26583349  1
  P  P266  1  0.30674030  0.25070302  0.51382571  1
  P  P267  1  0.30399969  0.24964984  0.76316273  1
  P  P268  1  0.30424780  0.58456076  0.01482675  1
  P  P269  1  0.30301514  0.58368821  0.26401398  1
  P  P270  1  0.30301072  0.58412793  0.51436599  1
  P  P271  1  0.30294529  0.58295691  0.76523095  1
  P  P272  1  0.30436500  0.91604475  0.01594609  1
  P  P273  1  0.30501561  0.91649693  0.26494780  1
  P  P274  1  0.30391251  0.91559231  0.51332107  1
  P  P275  1  0.30281262  0.91748583  0.76479727  1
  P  P276  1  0.80197184  0.24998978  0.01545788  1
  P  P277  1  0.80147544  0.25003896  0.26543680  1
  P  P278  1  0.80236873  0.25008322  0.51527706  1
  P  P279  1  0.80327865  0.25016645  0.76424272  1
  P  P280  1  0.80426719  0.58396327  0.01623033  1
  P  P281  1  0.80433627  0.58287847  0.26437419  1
  P  P282  1  0.80321221  0.58429087  0.51341514  1
  P  P283  1  0.80198045  0.58301598  0.76435240  1
  P  P284  1  0.80409358  0.91589812  0.01623862  1
  P  P285  1  0.80406041  0.91730555  0.26436131  1
  P  P286  1  0.80540227  0.91539011  0.51410550  1
  P  P287  1  0.80396281  0.91678613  0.76284613  1
  O  O288  1  0.05821725  0.24988668  0.18809080  1
  O  O289  1  0.05737774  0.25068365  0.43632083  1
  O  O290  1  0.05988686  0.25030800  0.68758756  1
  O  O291  1  0.05743382  0.25012771  0.93541168  1
  O  O292  1  0.05829025  0.58330716  0.18724759  1
  O  O293  1  0.05928445  0.58313666  0.43742247  1
  O  O294  1  0.05992854  0.58281620  0.68748659  1
  O  O295  1  0.05949590  0.58344934  0.93702079  1
  O  O296  1  0.05498071  0.91628494  0.18704455  1
  O  O297  1  0.05787839  0.91596019  0.43774840  1
  O  O298  1  0.05620355  0.91628377  0.68608046  1
  O  O299  1  0.05664780  0.91656530  0.93652050  1
  O  O300  1  0.55984677  0.25001838  0.18699104  1
  O  O301  1  0.55510450  0.25002561  0.43606071  1
  O  O302  1  0.55525399  0.25003423  0.68735688  1
  O  O303  1  0.55885604  0.25012212  0.93783015  1
  O  O304  1  0.55891221  0.58359802  0.18782553  1
  O  O305  1  0.55902513  0.58416435  0.43773384  1
  O  O306  1  0.55982684  0.58391653  0.68740166  1
  O  O307  1  0.55641291  0.58382773  0.93587728  1
  O  O308  1  0.55848961  0.91651563  0.18757857  1
  O  O309  1  0.55646907  0.91624626  0.43632079  1
  O  O310  1  0.55971154  0.91626304  0.68821807  1
  O  O311  1  0.55713966  0.91602156  0.93608737  1
  O  O312  1  0.44122880  0.08306926  0.06195333  1
  O  O313  1  0.44455371  0.08285305  0.31267581  1
  O  O314  1  0.44414960  0.08297409  0.56406622  1
  O  O315  1  0.44028164  0.08320469  0.81295504  1
  O  O316  1  0.44373296  0.41762406  0.06342648  1
  O  O317  1  0.44402081  0.41745182  0.31326711  1
  O  O318  1  0.44165359  0.41761943  0.56253427  1
  O  O319  1  0.44089722  0.41726262  0.81201581  1
  O  O320  1  0.44161649  0.74952097  0.06258407  1
  O  O321  1  0.44414500  0.74980913  0.31380366  1
  O  O322  1  0.44106054  0.74990260  0.56201633  1
  O  O323  1  0.44286976  0.74966097  0.81374574  1
  O  O324  1  0.94359438  0.08370036  0.06415804  1
  O  O325  1  0.94004732  0.08376861  0.31227703  1
  O  O326  1  0.94368832  0.08332187  0.56329118  1
  O  O327  1  0.94075223  0.08358041  0.81204018  1
  O  O328  1  0.94334599  0.41660238  0.06416168  1
  O  O329  1  0.94051269  0.41675705  0.31259137  1
  O  O330  1  0.94262462  0.41741709  0.56383190  1
  O  O331  1  0.94071699  0.41688743  0.81212341  1
  O  O332  1  0.94227548  0.74960506  0.06224042  1
  O  O333  1  0.94266990  0.74909929  0.31366631  1
  O  O334  1  0.94129428  0.74912752  0.56235663  1
  O  O335  1  0.93993670  0.74933098  0.81251860  1
  O  O336  1  0.19098339  0.08230149  0.06311839  1
  O  O337  1  0.19290988  0.08290347  0.31159678  1
  O  O338  1  0.19106579  0.08232423  0.56272674  1
  O  O339  1  0.19472371  0.08334843  0.81071109  1
  O  O340  1  0.19308246  0.41697119  0.06195765  1
  O  O341  1  0.19413801  0.41686092  0.31193226  1
  O  O342  1  0.19495684  0.41694960  0.56167327  1
  O  O343  1  0.19507454  0.41666024  0.81154299  1
  O  O344  1  0.19103000  0.75039886  0.06342461  1
  O  O345  1  0.19220193  0.75044411  0.31128627  1
  O  O346  1  0.19160018  0.75061908  0.56274081  1
  O  O347  1  0.19316459  0.75052625  0.81119054  1
  O  O348  1  0.69399407  0.08287226  0.06175748  1
  O  O349  1  0.69102270  0.08243799  0.31352236  1
  O  O350  1  0.68989167  0.08366136  0.56217535  1
  O  O351  1  0.69368427  0.08292606  0.81103267  1
  O  O352  1  0.69398477  0.41740459  0.06189117  1
  O  O353  1  0.69105795  0.41681857  0.31361915  1
  O  O354  1  0.68959150  0.41610253  0.56233390  1
  O  O355  1  0.69358340  0.41689821  0.81109648  1
  O  O356  1  0.69189178  0.74998611  0.06316527  1
  O  O357  1  0.69040226  0.75060548  0.31270816  1
  O  O358  1  0.69428812  0.75047005  0.56056719  1
  O  O359  1  0.69475025  0.75010386  0.81194612  1
  O  O360  1  0.30649165  0.24941277  0.18914610  1
  O  O361  1  0.31093902  0.24956152  0.43704680  1
  O  O362  1  0.30847280  0.24960159  0.68642676  1
  O  O363  1  0.30628900  0.24991124  0.93850667  1
  O  O364  1  0.30830779  0.58387788  0.18740626  1
  O  O365  1  0.30662502  0.58426629  0.43765890  1
  O  O366  1  0.30677200  0.58354165  0.68852988  1
  O  O367  1  0.30853215  0.58418588  0.93814572  1
  O  O368  1  0.30963189  0.91620244  0.18823236  1
  O  O369  1  0.30921460  0.91658806  0.43668210  1
  O  O370  1  0.30574108  0.91675162  0.68799404  1
  O  O371  1  0.30681269  0.91595605  0.93913682  1
  O  O372  1  0.80514116  0.25005505  0.18874213  1
  O  O373  1  0.80560836  0.24986438  0.43853624  1
  O  O374  1  0.80611761  0.25002309  0.68746852  1
  O  O375  1  0.80610954  0.24990421  0.93879295  1
  O  O376  1  0.80936425  0.58372064  0.18776682  1
  O  O377  1  0.80780313  0.58361920  0.43678949  1
  O  O378  1  0.80516391  0.58307158  0.68762077  1
  O  O379  1  0.80691352  0.58324239  0.93941925  1
  O  O380  1  0.80899589  0.91654149  0.18769609  1
  O  O381  1  0.80900642  0.91632253  0.43727057  1
  O  O382  1  0.80839927  0.91701226  0.68615032  1
  O  O383  1  0.80643261  0.91653618  0.93936528  1
  O  O384  1  0.23367622  0.24957283  0.04039371  1
  O  O385  1  0.23250311  0.25016788  0.29033978  1
  O  O386  1  0.23651824  0.25020999  0.53749135  1
  O  O387  1  0.23384302  0.24989724  0.78755709  1
  O  O388  1  0.23386963  0.58370945  0.03861273  1
  O  O389  1  0.23252977  0.58379054  0.28721466  1
  O  O390  1  0.23306034  0.58347729  0.53920419  1
  O  O391  1  0.23279745  0.58373848  0.78958509  1
  O  O392  1  0.23472815  0.91608191  0.04146440  1
  O  O393  1  0.23475027  0.91673204  0.28836420  1
  O  O394  1  0.23356096  0.91571734  0.53694088  1
  O  O395  1  0.23333564  0.91701811  0.79051176  1
  O  O396  1  0.73199902  0.25029112  0.04010848  1
  O  O397  1  0.73142976  0.24983343  0.29022751  1
  O  O398  1  0.73255540  0.25034872  0.54001962  1
  O  O399  1  0.73364093  0.24988142  0.78961338  1
  O  O400  1  0.73461955  0.58326077  0.04160630  1
  O  O401  1  0.73371412  0.58367832  0.28737223  1
  O  O402  1  0.73286376  0.58389571  0.53707962  1
  O  O403  1  0.73215863  0.58356573  0.78986171  1
  O  O404  1  0.73455654  0.91680879  0.04181962  1
  O  O405  1  0.73356959  0.91624094  0.28776562  1
  O  O406  1  0.73533724  0.91611504  0.53809837  1
  O  O407  1  0.73382152  0.91632895  0.78743675  1
  O  O408  1  0.26556697  0.08331931  0.20991932  1
  O  O409  1  0.26544000  0.08296389  0.46195246  1
  O  O410  1  0.26773171  0.08346897  0.70874965  1
  O  O411  1  0.26702833  0.08275634  0.96327645  1
  O  O412  1  0.26601821  0.41660923  0.20926671  1
  O  O413  1  0.26881499  0.41776517  0.46044098  1
  O  O414  1  0.26864215  0.41676739  0.70999968  1
  O  O415  1  0.26613661  0.41735021  0.96020283  1
  O  O416  1  0.26513441  0.74948616  0.20989867  1
  O  O417  1  0.26633431  0.74993641  0.46160364  1
  O  O418  1  0.26538274  0.74954812  0.70907803  1
  O  O419  1  0.26671143  0.74985716  0.96325151  1
  O  O420  1  0.76606956  0.08351079  0.21289159  1
  O  O421  1  0.76430662  0.08263906  0.46180460  1
  O  O422  1  0.76753525  0.08322824  0.70970549  1
  O  O423  1  0.76650182  0.08280767  0.95953924  1
  O  O424  1  0.76634431  0.41695915  0.21322030  1
  O  O425  1  0.76371302  0.41719229  0.46157539  1
  O  O426  1  0.76682266  0.41717823  0.70930933  1
  O  O427  1  0.76636326  0.41673017  0.95970539  1
  O  O428  1  0.76436579  0.75012224  0.21212790  1
  O  O429  1  0.76752361  0.74973506  0.45896049  1
  O  O430  1  0.76795443  0.74958797  0.71000451  1
  O  O431  1  0.76761591  0.74994425  0.96305041  1
  O  O432  1  0.01665670  0.08234133  0.16588503  1
  O  O433  1  0.01463524  0.08350168  0.41290515  1
  O  O434  1  0.01773331  0.08225027  0.66428911  1
  O  O435  1  0.01571857  0.08368823  0.91258537  1
  O  O436  1  0.01532762  0.41729716  0.16634212  1
  O  O437  1  0.01515825  0.41704948  0.41353336  1
  O  O438  1  0.01626136  0.41714722  0.66489720  1
  O  O439  1  0.01584946  0.41673827  0.91265062  1
  O  O440  1  0.01650852  0.74982053  0.16346448  1
  O  O441  1  0.01496929  0.74966182  0.41574265  1
  O  O442  1  0.01645724  0.75040867  0.66259113  1
  O  O443  1  0.01442180  0.74980906  0.91311889  1
  O  O444  1  0.51554270  0.08265959  0.16268225  1
  O  O445  1  0.51809583  0.08308255  0.41420826  1
  O  O446  1  0.51747138  0.08357865  0.66569966  1
  O  O447  1  0.51471069  0.08264812  0.91360920  1
  O  O448  1  0.51659257  0.41755869  0.16521907  1
  O  O449  1  0.51784667  0.41646940  0.41430880  1
  O  O450  1  0.51631411  0.41666521  0.66317549  1
  O  O451  1  0.51504738  0.41787234  0.91322930  1
  O  O452  1  0.51645730  0.74987666  0.16325463  1
  O  O453  1  0.51795503  0.75048115  0.41497241  1
  O  O454  1  0.51589263  0.74983567  0.66243783  1
  O  O455  1  0.51551435  0.74977542  0.91577547  1
  O  O456  1  0.48527729  0.25030031  0.08645231  1
  O  O457  1  0.48240026  0.24972788  0.33402171  1
  O  O458  1  0.48194901  0.24982977  0.58552487  1
  O  O459  1  0.48424522  0.25031572  0.83729392  1
  O  O460  1  0.48325428  0.58425482  0.08766181  1
  O  O461  1  0.48565574  0.58407767  0.33631706  1
  O  O462  1  0.48579921  0.58319518  0.58650066  1
  O  O463  1  0.48224139  0.58381260  0.83473923  1
  O  O464  1  0.48315617  0.91576085  0.08727451  1
  O  O465  1  0.48303784  0.91631531  0.33482579  1
  O  O466  1  0.48517356  0.91753793  0.58739341  1
  O  O467  1  0.48435281  0.91597338  0.83447035  1
  O  O468  1  0.98405860  0.24960971  0.08684559  1
  O  O469  1  0.98390231  0.24997271  0.33502207  1
  O  O470  1  0.98514752  0.24974175  0.58678031  1
  O  O471  1  0.98475839  0.24964803  0.83365000  1
  O  O472  1  0.98357004  0.58347741  0.08668519  1
  O  O473  1  0.98344940  0.58391929  0.33757356  1
  O  O474  1  0.98537261  0.58338766  0.58699919  1
  O  O475  1  0.98516786  0.58382819  0.83623342  1
  O  O476  1  0.98169630  0.91675642  0.08522722  1
  O  O477  1  0.98213329  0.91548711  0.33787595  1
  O  O478  1  0.98282464  0.91672587  0.58477299  1
  O  O479  1  0.98327698  0.91615431  0.83503769  1
  O  O480  1  0.08788564  0.31373994  0.07806234  1
  O  O481  1  0.08765282  0.31541611  0.32677198  1
  O  O482  1  0.08881837  0.31432044  0.57742175  1
  O  O483  1  0.08871724  0.31483763  0.82592994  1
  O  O484  1  0.08716435  0.64933593  0.07744444  1
  O  O485  1  0.08737968  0.64834030  0.32735861  1
  O  O486  1  0.08866628  0.64954611  0.57795554  1
  O  O487  1  0.08899636  0.64851413  0.82727918  1
  O  O488  1  0.08563542  0.98173655  0.07798458  1
  O  O489  1  0.08548097  0.98102747  0.32752495  1
  O  O490  1  0.08721118  0.98134101  0.57680047  1
  O  O491  1  0.08683526  0.98153096  0.82707484  1
  O  O492  1  0.58911360  0.31506846  0.07716378  1
  O  O493  1  0.58645465  0.31493783  0.32682004  1
  O  O494  1  0.58563753  0.31485124  0.57789326  1
  O  O495  1  0.58770417  0.31525500  0.82784269  1
  O  O496  1  0.58676044  0.64961863  0.07791441  1
  O  O497  1  0.58952283  0.64887275  0.32799258  1
  O  O498  1  0.58991344  0.64743826  0.57705453  1
  O  O499  1  0.58628195  0.64894587  0.82644255  1
  O  O500  1  0.58674225  0.98037015  0.07720339  1
  O  O501  1  0.58708470  0.98137343  0.32676827  1
  O  O502  1  0.58867346  0.98274191  0.57899777  1
  O  O503  1  0.58851405  0.98081798  0.82680781  1
  O  O504  1  0.41212878  0.01723974  0.17158829  1
  O  O505  1  0.41449652  0.01767347  0.42235036  1
  O  O506  1  0.41309819  0.01934494  0.67373347  1
  O  O507  1  0.41083516  0.01796410  0.92263498  1
  O  O508  1  0.41274259  0.35297799  0.17256609  1
  O  O509  1  0.41372139  0.35132609  0.42209125  1
  O  O510  1  0.41274173  0.35094501  0.67209633  1
  O  O511  1  0.41150012  0.35310186  0.92209611  1
  O  O512  1  0.41309051  0.68455275  0.17286736  1
  O  O513  1  0.41365837  0.68594379  0.42354993  1
  O  O514  1  0.41233072  0.68501186  0.67191973  1
  O  O515  1  0.41201182  0.68353139  0.92276017  1
  O  O516  1  0.91236368  0.01738373  0.17291796  1
  O  O517  1  0.91146323  0.01758523  0.42170426  1
  O  O518  1  0.91361235  0.01703636  0.67231199  1
  O  O519  1  0.91223055  0.01859311  0.92194608  1
  O  O520  1  0.91104025  0.35280080  0.17368292  1
  O  O521  1  0.91133557  0.35272241  0.42258514  1
  O  O522  1  0.91217051  0.35213961  0.67308754  1
  O  O523  1  0.91257796  0.35147908  0.92214520  1
  O  O524  1  0.91292832  0.68473479  0.17226764  1
  O  O525  1  0.91145848  0.68395635  0.42305261  1
  O  O526  1  0.91263123  0.68579033  0.67303723  1
  O  O527  1  0.91087046  0.68463850  0.92270531  1
  O  O528  1  0.16119853  0.01938194  0.20188982  1
  O  O529  1  0.16226613  0.01665210  0.45293655  1
  O  O530  1  0.16322690  0.01932578  0.70131122  1
  O  O531  1  0.16366503  0.01749881  0.95277127  1
  O  O532  1  0.16232240  0.35126053  0.20327372  1
  O  O533  1  0.16495621  0.35274544  0.45211547  1
  O  O534  1  0.16488828  0.35171351  0.70192147  1
  O  O535  1  0.16239108  0.35270930  0.95245726  1
  O  O536  1  0.16093336  0.68456148  0.20234337  1
  O  O537  1  0.16267555  0.68481179  0.45336748  1
  O  O538  1  0.16145319  0.68421229  0.70254072  1
  O  O539  1  0.16325355  0.68426615  0.95368214  1
  O  O540  1  0.66301276  0.01747622  0.20319066  1
  O  O541  1  0.66042266  0.01834787  0.45227128  1
  O  O542  1  0.66385498  0.01721908  0.70170047  1
  O  O543  1  0.66239404  0.01885634  0.95253052  1
  O  O544  1  0.66273491  0.35186423  0.20375955  1
  O  O545  1  0.65975253  0.35274177  0.45205407  1
  O  O546  1  0.66243694  0.35280526  0.70150818  1
  O  O547  1  0.66265882  0.35120660  0.95310815  1
  O  O548  1  0.66060517  0.68523750  0.20290467  1
  O  O549  1  0.66323840  0.68472559  0.45161808  1
  O  O550  1  0.66382313  0.68499179  0.70281556  1
  O  O551  1  0.66404658  0.68505093  0.95299381  1
  O  O552  1  0.33738909  0.31445971  0.04777430  1
  O  O553  1  0.33705650  0.31451439  0.29826758  1
  O  O554  1  0.33991409  0.31609106  0.54644969  1
  O  O555  1  0.33762834  0.31468115  0.79625563  1
  O  O556  1  0.33729981  0.64976825  0.04825778  1
  O  O557  1  0.33624746  0.64856761  0.29772289  1
  O  O558  1  0.33647098  0.64928852  0.54726882  1
  O  O559  1  0.33705820  0.64775559  0.79830134  1
  O  O560  1  0.33877396  0.98101236  0.04820197  1
  O  O561  1  0.33873293  0.98141215  0.29815359  1
  O  O562  1  0.33709668  0.98068947  0.54706345  1
  O  O563  1  0.33693972  0.98272318  0.79659292  1
  O  O564  1  0.83596309  0.31490897  0.04827215  1
  O  O565  1  0.83519206  0.31518411  0.29811946  1
  O  O566  1  0.83664010  0.31500295  0.54752980  1
  O  O567  1  0.83707338  0.31555911  0.79644719  1
  O  O568  1  0.83826981  0.64921925  0.04849762  1
  O  O569  1  0.83772087  0.64783982  0.29799864  1
  O  O570  1  0.83628292  0.64951354  0.54668883  1
  O  O571  1  0.83643225  0.64791035  0.79667838  1
  O  O572  1  0.83902425  0.98061340  0.04851498  1
  O  O573  1  0.83687830  0.98252668  0.29765389  1
  O  O574  1  0.83944545  0.98001247  0.54759161  1
  O  O575  1  0.83706848  0.98202539  0.79612546  1
  O  O576  1  0.41214388  0.14747000  0.17214381  1
  O  O577  1  0.41404925  0.14782123  0.42184405  1
  O  O578  1  0.41361426  0.14926914  0.67306042  1
  O  O579  1  0.41106357  0.14801239  0.92296449  1
  O  O580  1  0.41307147  0.48328945  0.17262528  1
  O  O581  1  0.41409266  0.48150822  0.42332340  1
  O  O582  1  0.41226227  0.48102227  0.67282992  1
  O  O583  1  0.41167372  0.48342088  0.92134827  1
  O  O584  1  0.41277255  0.81470327  0.17241110  1
  O  O585  1  0.41391506  0.81598243  0.42282305  1
  O  O586  1  0.41243643  0.81511974  0.67194534  1
  O  O587  1  0.41101904  0.81351533  0.92321308  1
  O  O588  1  0.91252945  0.14734642  0.17398927  1
  O  O589  1  0.91101691  0.14790688  0.42250971  1
  O  O590  1  0.91362976  0.14701304  0.67329001  1
  O  O591  1  0.91230911  0.14871530  0.92216384  1
  O  O592  1  0.91158191  0.48289182  0.17286875  1
  O  O593  1  0.91196631  0.48306917  0.42208463  1
  O  O594  1  0.91223221  0.48207361  0.67344250  1
  O  O595  1  0.91237941  0.48168497  0.92210382  1
  O  O596  1  0.91271349  0.81474858  0.17199862  1
  O  O597  1  0.91063468  0.81401098  0.42258722  1
  O  O598  1  0.91273236  0.81591077  0.67171099  1
  O  O599  1  0.91053106  0.81450244  0.92244556  1
  O  O600  1  0.08714082  0.18323201  0.07884598  1
  O  O601  1  0.08815343  0.18555240  0.32706260  1
  O  O602  1  0.08842920  0.18389050  0.57827452  1
  O  O603  1  0.08905597  0.18498037  0.82635401  1
  O  O604  1  0.08770098  0.51928207  0.07703735  1
  O  O605  1  0.08698127  0.51841314  0.32697614  1
  O  O606  1  0.08956417  0.51945744  0.57695447  1
  O  O607  1  0.08888573  0.51866354  0.82685286  1
  O  O608  1  0.08542821  0.85147831  0.07754977  1
  O  O609  1  0.08596029  0.85109623  0.32765545  1
  O  O610  1  0.08669725  0.85129594  0.57642867  1
  O  O611  1  0.08700611  0.85144750  0.82725244  1
  O  O612  1  0.58891061  0.18499540  0.07703473  1
  O  O613  1  0.58661243  0.18483793  0.32693395  1
  O  O614  1  0.58573137  0.18470428  0.57818655  1
  O  O615  1  0.58761958  0.18512612  0.82785007  1
  O  O616  1  0.58677475  0.51952968  0.07739383  1
  O  O617  1  0.58927364  0.51867964  0.32810531  1
  O  O618  1  0.58917065  0.51731772  0.57822351  1
  O  O619  1  0.58642868  0.51909312  0.82623821  1
  O  O620  1  0.58659292  0.85021309  0.07790132  1
  O  O621  1  0.58712422  0.85132502  0.32697447  1
  O  O622  1  0.58859455  0.85257072  0.57773140  1
  O  O623  1  0.58833823  0.85086855  0.82687601  1
  O  O624  1  0.33743545  0.18425939  0.04755049  1
  O  O625  1  0.33629707  0.18466433  0.29887827  1
  O  O626  1  0.34034813  0.18582126  0.54746020  1
  O  O627  1  0.33722147  0.18442289  0.79626949  1
  O  O628  1  0.33814629  0.51983197  0.04828909  1
  O  O629  1  0.33628976  0.51869222  0.29742406  1
  O  O630  1  0.33736256  0.51919829  0.54681325  1
  O  O631  1  0.33650259  0.51775491  0.79784971  1
  O  O632  1  0.33866480  0.85091066  0.04825756  1
  O  O633  1  0.33842197  0.85147587  0.29828252  1
  O  O634  1  0.33724135  0.85054560  0.54645919  1
  O  O635  1  0.33719655  0.85246194  0.79717360  1
  O  O636  1  0.83550806  0.18483792  0.04843915  1
  O  O637  1  0.83537605  0.18497166  0.29797286  1
  O  O638  1  0.83623729  0.18494821  0.54780851  1
  O  O639  1  0.83750351  0.18502536  0.79641275  1
  O  O640  1  0.83905861  0.51926502  0.04867748  1
  O  O641  1  0.83715555  0.51780649  0.29799544  1
  O  O642  1  0.83664374  0.51958876  0.54722978  1
  O  O643  1  0.83575420  0.51775826  0.79683066  1
  O  O644  1  0.83811652  0.85062390  0.04837013  1
  O  O645  1  0.83787658  0.85238963  0.29771000  1
  O  O646  1  0.83874305  0.85000479  0.54661530  1
  O  O647  1  0.83752461  0.85164606  0.79577455  1
  O  O648  1  0.16201328  0.14951827  0.20289860  1
  O  O649  1  0.16148963  0.14701767  0.45313237  1
  O  O650  1  0.16393148  0.14928293  0.70156190  1
  O  O651  1  0.16346172  0.14760520  0.95291130  1
  O  O652  1  0.16218540  0.48162799  0.20293167  1
  O  O653  1  0.16464413  0.48280997  0.45264641  1
  O  O654  1  0.16478530  0.48189095  0.70239787  1
  O  O655  1  0.16266305  0.48304483  0.95311542  1
  O  O656  1  0.16123242  0.81458570  0.20162266  1
  O  O657  1  0.16270449  0.81504449  0.45255932  1
  O  O658  1  0.16130467  0.81421314  0.70143567  1
  O  O659  1  0.16303183  0.81439053  0.95305971  1
  O  O660  1  0.66197774  0.14774518  0.20396173  1
  O  O661  1  0.66074559  0.14831047  0.45213576  1
  O  O662  1  0.66295373  0.14720508  0.70151746  1
  O  O663  1  0.66315589  0.14909520  0.95290812  1
  O  O664  1  0.66297589  0.48217340  0.20346050  1
  O  O665  1  0.66031035  0.48284995  0.45298996  1
  O  O666  1  0.66286715  0.48284087  0.70230150  1
  O  O667  1  0.66252244  0.48138627  0.95256990  1
  O  O668  1  0.66075397  0.81545377  0.20275628  1
  O  O669  1  0.66351695  0.81453495  0.45094152  1
  O  O670  1  0.66436287  0.81501296  0.70223752  1
  O  O671  1  0.66420849  0.81511267  0.95301670  1
