# generated using pymatgen
data_Na2MnFe(PO4)2
_symmetry_space_group_name_H-M   'P 1'
_cell_length_a   21.08602610
_cell_length_b   18.93830801
_cell_length_c   20.04490979
_cell_angle_alpha   89.99945546
_cell_angle_beta   89.99850845
_cell_angle_gamma   89.99823444
_symmetry_Int_Tables_number   1
_chemical_formula_structural   Na2MnFe(PO4)2
_chemical_formula_sum   'Na96 Mn48 Fe48 P96 O384'
_cell_volume   8004.60712153
_cell_formula_units_Z   48
loop_
 _symmetry_equiv_pos_site_id
 _symmetry_equiv_pos_as_xyz
  1  'x, y, z'
loop_
 _atom_site_type_symbol
 _atom_site_label
 _atom_site_symmetry_multiplicity
 _atom_site_fract_x
 _atom_site_fract_y
 _atom_site_fract_z
 _atom_site_occupancy
  Na  Na0  1  -0.00002838  0.00074432  0.00028893  1
  Na  Na1  1  -0.00050476  0.00001033  0.24944824  1
  Na  Na2  1  -0.00176686  0.00024356  0.49981490  1
  Na  Na3  1  -0.00185417  -0.00018610  0.75036819  1
  Na  Na4  1  0.00033178  0.33370374  -0.00002535  1
  Na  Na5  1  0.00192254  0.33399128  0.24905552  1
  Na  Na6  1  0.00270283  0.33415545  0.50074822  1
  Na  Na7  1  0.00236254  0.33405939  0.74976171  1
  Na  Na8  1  0.00022599  0.66671192  0.00055244  1
  Na  Na9  1  0.00261531  0.66752910  0.24981019  1
  Na  Na10  1  0.00226510  0.66756484  0.50022751  1
  Na  Na11  1  -0.00094520  0.66599418  0.74979046  1
  Na  Na12  1  0.50001587  -0.00001410  -0.00083936  1
  Na  Na13  1  0.49978175  -0.00016234  0.24909192  1
  Na  Na14  1  0.50032113  0.00013167  0.50085566  1
  Na  Na15  1  0.49938621  -0.00023295  0.75088914  1
  Na  Na16  1  0.49882898  0.33294079  -0.00050240  1
  Na  Na17  1  0.50032307  0.33390397  0.25036501  1
  Na  Na18  1  0.49964002  0.33291848  0.50117227  1
  Na  Na19  1  0.50047928  0.33340811  0.74969506  1
  Na  Na20  1  0.49994685  0.66697348  -0.00010848  1
  Na  Na21  1  0.49815162  0.66640749  0.24982041  1
  Na  Na22  1  0.49808686  0.66626931  0.49900700  1
  Na  Na23  1  0.49971390  0.66666138  0.75088502  1
  Na  Na24  1  0.25145896  -0.00003693  0.12608904  1
  Na  Na25  1  0.24868951  -0.00051026  0.37494886  1
  Na  Na26  1  0.24907036  0.00015357  0.62362925  1
  Na  Na27  1  0.25231280  0.00118469  0.87487750  1
  Na  Na28  1  0.25067113  0.33368283  0.12568156  1
  Na  Na29  1  0.25057846  0.33418988  0.37468957  1
  Na  Na30  1  0.24891963  0.33339123  0.62588560  1
  Na  Na31  1  0.24928353  0.33313286  0.87452851  1
  Na  Na32  1  0.25073061  0.66757730  0.12548121  1
  Na  Na33  1  0.24716831  0.66639004  0.37508897  1
  Na  Na34  1  0.24673849  0.66631322  0.62540332  1
  Na  Na35  1  0.24842222  0.66666271  0.87468324  1
  Na  Na36  1  0.74981623  -0.00016984  0.12537711  1
  Na  Na37  1  0.75210419  0.00043726  0.37563102  1
  Na  Na38  1  0.75297398  0.00094259  0.62482321  1
  Na  Na39  1  0.74872309  -0.00075264  0.87411702  1
  Na  Na40  1  0.74901299  0.33318656  0.12513977  1
  Na  Na41  1  0.74762604  0.33279537  0.37457241  1
  Na  Na42  1  0.74822987  0.33217568  0.62485740  1
  Na  Na43  1  0.75029816  0.33361187  0.87498080  1
  Na  Na44  1  0.74991085  0.66651583  0.12398502  1
  Na  Na45  1  0.75190859  0.66687159  0.37532522  1
  Na  Na46  1  0.75411956  0.66734086  0.62590344  1
  Na  Na47  1  0.75086153  0.66631864  0.87409127  1
  Na  Na48  1  -0.00168128  0.16737373  -0.00049355  1
  Na  Na49  1  -0.00048094  0.16625935  0.25003573  1
  Na  Na50  1  0.00072864  0.16593566  0.50014806  1
  Na  Na51  1  -0.00049447  0.16658822  0.74978629  1
  Na  Na52  1  0.00025026  0.50024588  0.00091643  1
  Na  Na53  1  0.00342116  0.49918120  0.24982798  1
  Na  Na54  1  0.00109512  0.50083639  0.50013962  1
  Na  Na55  1  0.00163497  0.49932781  0.75045574  1
  Na  Na56  1  0.00074785  0.83272032  0.00004759  1
  Na  Na57  1  0.00140621  0.83288653  0.24871562  1
  Na  Na58  1  -0.00115230  0.83410559  0.50006718  1
  Na  Na59  1  0.00058896  0.83212039  0.75029296  1
  Na  Na60  1  0.50094498  0.16625575  -0.00118431  1
  Na  Na61  1  0.49987053  0.16713565  0.25003722  1
  Na  Na62  1  0.50022761  0.16690069  0.50108488  1
  Na  Na63  1  0.50019110  0.16707263  0.75069337  1
  Na  Na64  1  0.49854250  0.50088819  -0.00053826  1
  Na  Na65  1  0.49972053  0.49977576  0.24934083  1
  Na  Na66  1  0.49962175  0.49971175  0.50033792  1
  Na  Na67  1  0.49886912  0.50067809  0.75013506  1
  Na  Na68  1  0.49894645  0.83323264  0.00033514  1
  Na  Na69  1  0.49760262  0.83365858  0.24965970  1
  Na  Na70  1  0.49874241  0.83321755  0.49971617  1
  Na  Na71  1  0.50007350  0.83290330  0.75051450  1
  Na  Na72  1  0.25281635  0.16522497  0.12619507  1
  Na  Na73  1  0.24836472  0.16727601  0.37490951  1
  Na  Na74  1  0.24976138  0.16643604  0.62382489  1
  Na  Na75  1  0.25081016  0.16678030  0.87444198  1
  Na  Na76  1  0.25008701  0.49954843  0.12523529  1
  Na  Na77  1  0.24739280  0.50107941  0.37438137  1
  Na  Na78  1  0.24840194  0.49967765  0.62623690  1
  Na  Na79  1  0.24887347  0.49992445  0.87485619  1
  Na  Na80  1  0.25128683  0.83281250  0.12557968  1
  Na  Na81  1  0.24969730  0.83293244  0.37564830  1
  Na  Na82  1  0.24793587  0.83330497  0.62456434  1
  Na  Na83  1  0.24972866  0.83311895  0.87500266  1
  Na  Na84  1  0.75000856  0.16625006  0.12453480  1
  Na  Na85  1  0.74979074  0.16624396  0.37492177  1
  Na  Na86  1  0.75047850  0.16624293  0.62558739  1
  Na  Na87  1  0.74868920  0.16744867  0.87565471  1
  Na  Na88  1  0.75012502  0.50037055  0.12497276  1
  Na  Na89  1  0.74902322  0.50041391  0.37522957  1
  Na  Na90  1  0.75238154  0.49941130  0.62515567  1
  Na  Na91  1  0.75139496  0.50055900  0.87415217  1
  Na  Na92  1  0.74893412  0.83336205  0.12495976  1
  Na  Na93  1  0.75299747  0.83263622  0.37546862  1
  Na  Na94  1  0.75334865  0.83241557  0.62470659  1
  Na  Na95  1  0.74958457  0.83297431  0.87357060  1
  Mn  Mn96  1  0.89205405  0.91631993  0.87824155  1
  Mn  Mn97  1  0.89244794  0.25064688  0.62717203  1
  Mn  Mn98  1  0.64174932  0.58387552  0.24806289  1
  Mn  Mn99  1  0.10819911  0.08369280  0.87261341  1
  Mn  Mn100  1  0.60743837  0.08318018  0.12281126  1
  Mn  Mn101  1  0.14155047  0.91768989  0.74773192  1
  Mn  Mn102  1  0.35644552  0.75031504  0.75189576  1
  Mn  Mn103  1  0.60788346  0.75002075  0.37312059  1
  Mn  Mn104  1  0.35646482  0.74896807  0.50255555  1
  Mn  Mn105  1  0.64354028  0.91645651  0.49768195  1
  Mn  Mn106  1  0.35752991  0.08390224  0.50216321  1
  Mn  Mn107  1  0.39158265  0.58377365  0.87700140  1
  Mn  Mn108  1  0.89273684  0.58333234  0.12707909  1
  Mn  Mn109  1  0.14289884  0.58341553  0.99769260  1
  Mn  Mn110  1  0.35629813  0.41638686  0.75209582  1
  Mn  Mn111  1  0.39218472  0.25008175  0.87695556  1
  Mn  Mn112  1  0.14296833  0.24916040  0.99792392  1
  Mn  Mn113  1  0.89171667  0.25027789  0.12696483  1
  Mn  Mn114  1  0.64231504  0.91617451  0.24885264  1
  Mn  Mn115  1  0.64323830  0.91670868  0.74704444  1
  Mn  Mn116  1  0.85822167  0.41633028  0.25270357  1
  Mn  Mn117  1  0.14237132  0.25036747  0.49761001  1
  Mn  Mn118  1  0.89389892  0.58340488  0.37694997  1
  Mn  Mn119  1  0.60733420  0.41746712  0.62294375  1
  Mn  Mn120  1  0.60839105  0.74947356  0.62274672  1
  Mn  Mn121  1  0.35804965  0.08239662  0.25335634  1
  Mn  Mn122  1  0.85824982  0.41622044  0.50161610  1
  Mn  Mn123  1  0.39154163  0.91660997  0.62756907  1
  Mn  Mn124  1  0.10797327  0.08369319  0.12234994  1
  Mn  Mn125  1  0.64333956  0.58309147  0.74707127  1
  Mn  Mn126  1  0.14218446  0.24966854  0.24735461  1
  Mn  Mn127  1  0.85883961  0.75019747  0.25184953  1
  Mn  Mn128  1  0.64190004  0.24975823  0.24767601  1
  Mn  Mn129  1  0.39250475  0.91625606  0.87703586  1
  Mn  Mn130  1  0.39102792  0.58310812  0.37784602  1
  Mn  Mn131  1  0.89191072  0.91651711  0.12663585  1
  Mn  Mn132  1  0.39280462  0.24944496  0.37777360  1
  Mn  Mn133  1  0.14339111  0.91740572  0.99795508  1
  Mn  Mn134  1  0.60724882  0.41711133  0.12197840  1
  Mn  Mn135  1  0.85644172  0.08290288  0.00178225  1
  Mn  Mn136  1  0.85905618  0.41596980  0.75232975  1
  Mn  Mn137  1  0.60681458  0.74984180  0.12279072  1
  Mn  Mn138  1  0.64266344  0.58339672  0.49850482  1
  Mn  Mn139  1  0.14073681  0.91643436  0.49720559  1
  Mn  Mn140  1  0.60817053  0.41698155  0.87300875  1
  Mn  Mn141  1  0.89252483  0.25030261  0.37765958  1
  Mn  Mn142  1  0.60795401  0.08288040  0.62323816  1
  Mn  Mn143  1  0.35729768  0.41740331  0.25254315  1
  Fe  Fe144  1  0.85932637  0.74969295  0.50166876  1
  Fe  Fe145  1  0.10771750  0.41659949  0.62274787  1
  Fe  Fe146  1  0.85687321  0.74973691  0.00114806  1
  Fe  Fe147  1  0.10594607  0.75041680  0.62345988  1
  Fe  Fe148  1  0.60724177  0.08289530  0.87292589  1
  Fe  Fe149  1  0.64216700  0.24968523  0.49883013  1
  Fe  Fe150  1  0.10724998  0.41670636  0.87441575  1
  Fe  Fe151  1  0.89423774  0.58328843  0.62617266  1
  Fe  Fe152  1  0.60803412  0.08289824  0.37384441  1
  Fe  Fe153  1  0.64280600  0.58363412  0.99787101  1
  Fe  Fe154  1  0.39110386  0.58332127  0.62670628  1
  Fe  Fe155  1  0.89339980  0.91660174  0.37595280  1
  Fe  Fe156  1  0.85760494  0.08391099  0.75223904  1
  Fe  Fe157  1  0.39263715  0.25024991  0.62724902  1
  Fe  Fe158  1  0.14119129  0.58319853  0.74832495  1
  Fe  Fe159  1  0.89317596  0.91664461  0.62659559  1
  Fe  Fe160  1  0.35602462  0.75010073  0.25196218  1
  Fe  Fe161  1  0.14208204  0.24934595  0.74828865  1
  Fe  Fe162  1  0.60696854  0.41676514  0.37397635  1
  Fe  Fe163  1  0.14257765  0.91640666  0.24826008  1
  Fe  Fe164  1  0.10660956  0.08305676  0.62351312  1
  Fe  Fe165  1  0.10712236  0.74969032  0.87372899  1
  Fe  Fe166  1  0.35759561  0.74988161  0.00194372  1
  Fe  Fe167  1  0.10773124  0.41651174  0.12239272  1
  Fe  Fe168  1  0.10637804  0.08293542  0.37316009  1
  Fe  Fe169  1  0.64154952  0.91581768  0.99840141  1
  Fe  Fe170  1  0.85766904  0.08374604  0.50166450  1
  Fe  Fe171  1  0.89353851  0.58256953  0.87692201  1
  Fe  Fe172  1  0.85744553  0.08338092  0.25197437  1
  Fe  Fe173  1  0.35688249  0.08350677  0.75070323  1
  Fe  Fe174  1  0.10701016  0.75095521  0.37272963  1
  Fe  Fe175  1  0.35877856  0.08357379  0.00184608  1
  Fe  Fe176  1  0.14290107  0.58424761  0.24775652  1
  Fe  Fe177  1  0.85749264  0.41704978  0.00145064  1
  Fe  Fe178  1  0.39231936  0.91713869  0.37674343  1
  Fe  Fe179  1  0.64330902  0.25007454  0.74867118  1
  Fe  Fe180  1  0.60776111  0.74994972  0.87343245  1
  Fe  Fe181  1  0.39246099  0.91659356  0.12711247  1
  Fe  Fe182  1  0.35712246  0.41663899  0.00173821  1
  Fe  Fe183  1  0.39225910  0.58337333  0.12646189  1
  Fe  Fe184  1  0.85861140  0.75027051  0.75266613  1
  Fe  Fe185  1  0.89271184  0.25092471  0.87651241  1
  Fe  Fe186  1  0.10814844  0.75017883  0.12249572  1
  Fe  Fe187  1  0.35696448  0.41722016  0.50174244  1
  Fe  Fe188  1  0.10831157  0.41634148  0.37318827  1
  Fe  Fe189  1  0.14219130  0.58285613  0.49859708  1
  Fe  Fe190  1  0.39285803  0.25023568  0.12621344  1
  Fe  Fe191  1  0.64235061  0.25044584  0.99783566  1
  P  P192  1  0.05326488  0.25034859  0.10938215  1
  P  P193  1  0.05362462  0.24982659  0.35996833  1
  P  P194  1  0.05478564  0.24944179  0.61131530  1
  P  P195  1  0.05292227  0.25069538  0.85975081  1
  P  P196  1  0.05558752  0.58362179  0.11110126  1
  P  P197  1  0.05620905  0.58362866  0.36066029  1
  P  P198  1  0.05439754  0.58341686  0.61101130  1
  P  P199  1  0.05314698  0.58327018  0.86034659  1
  P  P200  1  0.05470740  0.91619283  0.11060477  1
  P  P201  1  0.05252693  0.91684565  0.35921108  1
  P  P202  1  0.05188599  0.91714282  0.61033283  1
  P  P203  1  0.05330397  0.91618261  0.86046932  1
  P  P204  1  0.55266561  0.25010778  0.10910211  1
  P  P205  1  0.55496484  0.24983577  0.36174667  1
  P  P206  1  0.55406553  0.25001122  0.61126604  1
  P  P207  1  0.55545084  0.24961842  0.86035700  1
  P  P208  1  0.55227974  0.58351273  0.10917774  1
  P  P209  1  0.55268215  0.58257877  0.36020033  1
  P  P210  1  0.55139564  0.58367080  0.60997198  1
  P  P211  1  0.55484332  0.58416410  0.86085835  1
  P  P212  1  0.55227990  0.91637275  0.10967666  1
  P  P213  1  0.55215557  0.91714930  0.36024145  1
  P  P214  1  0.55335650  0.91625419  0.60989188  1
  P  P215  1  0.55522384  0.91604160  0.86110545  1
  P  P216  1  0.44522578  0.08356960  0.13872346  1
  P  P217  1  0.44827663  0.08242416  0.39037237  1
  P  P218  1  0.44589057  0.08432982  0.64097814  1
  P  P219  1  0.44610704  0.08337626  0.88883656  1
  P  P220  1  0.44486304  0.41671417  0.13855417  1
  P  P221  1  0.44682624  0.41649417  0.39099070  1
  P  P222  1  0.44446009  0.41698706  0.63901057  1
  P  P223  1  0.44566432  0.41673203  0.89021677  1
  P  P224  1  0.44389157  0.74965638  0.13938214  1
  P  P225  1  0.44452502  0.75089122  0.38872787  1
  P  P226  1  0.44615623  0.74884346  0.64027080  1
  P  P227  1  0.44694753  0.74995949  0.89043770  1
  P  P228  1  0.94548843  0.08338777  0.14033174  1
  P  P229  1  0.94599400  0.08270290  0.38915586  1
  P  P230  1  0.94562835  0.08316762  0.63932315  1
  P  P231  1  0.94552629  0.08459208  0.88908168  1
  P  P232  1  0.94682540  0.41697342  0.13890938  1
  P  P233  1  0.94926609  0.41676207  0.38999599  1
  P  P234  1  0.94863063  0.41730292  0.63965351  1
  P  P235  1  0.94758924  0.41661201  0.89043505  1
  P  P236  1  0.94714502  0.74987139  0.13847323  1
  P  P237  1  0.94813715  0.75068904  0.38994202  1
  P  P238  1  0.94612522  0.74996315  0.63917474  1
  P  P239  1  0.94639126  0.74878764  0.88981170  1
  P  P240  1  0.19526274  0.08208682  0.23639968  1
  P  P241  1  0.19436794  0.08322823  0.48504218  1
  P  P242  1  0.19697778  0.08420784  0.73400803  1
  P  P243  1  0.19919432  0.08335880  0.98506260  1
  P  P244  1  0.19451288  0.41738012  0.23532471  1
  P  P245  1  0.19618517  0.41740705  0.48574052  1
  P  P246  1  0.19327807  0.41640490  0.73633624  1
  P  P247  1  0.19652295  0.41632579  0.98560675  1
  P  P248  1  0.19522847  0.75083388  0.23583718  1
  P  P249  1  0.19346834  0.74921231  0.48579409  1
  P  P250  1  0.19350554  0.74956589  0.73560479  1
  P  P251  1  0.19674260  0.75026789  0.98562911  1
  P  P252  1  0.69661719  0.08273605  0.23616175  1
  P  P253  1  0.69757905  0.08358693  0.48503410  1
  P  P254  1  0.69698554  0.08410963  0.73629482  1
  P  P255  1  0.69507047  0.08286259  0.98454844  1
  P  P256  1  0.69530115  0.41700096  0.23569528  1
  P  P257  1  0.69608115  0.41611340  0.48475082  1
  P  P258  1  0.69728648  0.41592908  0.73497496  1
  P  P259  1  0.69796557  0.41738179  0.98498177  1
  P  P260  1  0.69703854  0.75000849  0.23476417  1
  P  P261  1  0.69929900  0.74975522  0.48532930  1
  P  P262  1  0.69790240  0.74973857  0.73569429  1
  P  P263  1  0.69687971  0.74962908  0.98431267  1
  P  P264  1  0.30429396  0.25011030  0.01556570  1
  P  P265  1  0.30467069  0.25001429  0.26436393  1
  P  P266  1  0.30403110  0.25122461  0.51557209  1
  P  P267  1  0.30293498  0.24923254  0.76349669  1
  P  P268  1  0.30387319  0.58336313  0.01532878  1
  P  P269  1  0.30279497  0.58440886  0.26383374  1
  P  P270  1  0.30144915  0.58246205  0.51585369  1
  P  P271  1  0.30181015  0.58341849  0.76395734  1
  P  P272  1  0.30474158  0.91658730  0.01559847  1
  P  P273  1  0.30369838  0.91555909  0.26492389  1
  P  P274  1  0.30351801  0.91663203  0.51389298  1
  P  P275  1  0.30276661  0.91757944  0.76477157  1
  P  P276  1  0.80301725  0.25102172  0.01351700  1
  P  P277  1  0.80332010  0.24921630  0.26514859  1
  P  P278  1  0.80213636  0.24951726  0.51486548  1
  P  P279  1  0.80338658  0.24937615  0.76564103  1
  P  P280  1  0.80404617  0.58351086  0.01319846  1
  P  P281  1  0.80369838  0.58334823  0.26522605  1
  P  P282  1  0.80519907  0.58358193  0.51558463  1
  P  P283  1  0.80690652  0.58366590  0.76426103  1
  P  P284  1  0.80130181  0.91539478  0.01453634  1
  P  P285  1  0.80436937  0.91722894  0.26563554  1
  P  P286  1  0.80662805  0.91669986  0.51409975  1
  P  P287  1  0.80587391  0.91678688  0.76351208  1
  O  O288  1  0.05658341  0.24940972  0.18610519  1
  O  O289  1  0.05640786  0.24990763  0.43677470  1
  O  O290  1  0.05826294  0.24909222  0.68805500  1
  O  O291  1  0.05673888  0.24960725  0.93644462  1
  O  O292  1  0.05938502  0.58392773  0.18787557  1
  O  O293  1  0.05916075  0.58336055  0.43753478  1
  O  O294  1  0.05787926  0.58318767  0.68776272  1
  O  O295  1  0.05674174  0.58353281  0.93706705  1
  O  O296  1  0.05869330  0.91666706  0.18732379  1
  O  O297  1  0.05525604  0.91699988  0.43600540  1
  O  O298  1  0.05525684  0.91724111  0.68698601  1
  O  O299  1  0.05684042  0.91712995  0.93721674  1
  O  O300  1  0.55640979  0.25026820  0.18588520  1
  O  O301  1  0.55861315  0.24955807  0.43855588  1
  O  O302  1  0.55921023  0.24999984  0.68792963  1
  O  O303  1  0.55951389  0.25062396  0.93715592  1
  O  O304  1  0.55620173  0.58345712  0.18588241  1
  O  O305  1  0.55630629  0.58346937  0.43693030  1
  O  O306  1  0.55606790  0.58370624  0.68667029  1
  O  O307  1  0.55929715  0.58347011  0.93759222  1
  O  O308  1  0.55646944  0.91620651  0.18633638  1
  O  O309  1  0.55636650  0.91641539  0.43692283  1
  O  O310  1  0.55704573  0.91628510  0.68669699  1
  O  O311  1  0.55862899  0.91592871  0.93790668  1
  O  O312  1  0.44207783  0.08344387  0.06189145  1
  O  O313  1  0.44445737  0.08310676  0.31361089  1
  O  O314  1  0.44296162  0.08374724  0.56419261  1
  O  O315  1  0.44088037  0.08363164  0.81224621  1
  O  O316  1  0.44104503  0.41688286  0.06181455  1
  O  O317  1  0.44291413  0.41686418  0.31422164  1
  O  O318  1  0.44071978  0.41700655  0.56228604  1
  O  O319  1  0.44213441  0.41660293  0.81342710  1
  O  O320  1  0.44063565  0.74962235  0.06255733  1
  O  O321  1  0.44018194  0.74993907  0.31198634  1
  O  O322  1  0.44265296  0.74935183  0.56349327  1
  O  O323  1  0.44243359  0.74991331  0.81377509  1
  O  O324  1  0.94168622  0.08342637  0.06352269  1
  O  O325  1  0.94145935  0.08358681  0.31249389  1
  O  O326  1  0.94115882  0.08429739  0.56257151  1
  O  O327  1  0.94146082  0.08388996  0.81231239  1
  O  O328  1  0.94114531  0.41694562  0.06226240  1
  O  O329  1  0.94525195  0.41652841  0.31331085  1
  O  O330  1  0.94460329  0.41658292  0.56302114  1
  O  O331  1  0.94457551  0.41635758  0.81371260  1
  O  O332  1  0.94142390  0.74996250  0.06187903  1
  O  O333  1  0.94486589  0.74980493  0.31321291  1
  O  O334  1  0.94242374  0.74986424  0.56240249  1
  O  O335  1  0.94209369  0.74984532  0.81305734  1
  O  O336  1  0.19479863  0.08328641  0.06170392  1
  O  O337  1  0.19034772  0.08289194  0.31309891  1
  O  O338  1  0.18985271  0.08282905  0.56177107  1
  O  O339  1  0.19375889  0.08363365  0.81078984  1
  O  O340  1  0.19182823  0.41635089  0.06230304  1
  O  O341  1  0.19075794  0.41637004  0.31220140  1
  O  O342  1  0.19146086  0.41656364  0.56249057  1
  O  O343  1  0.18973343  0.41662050  0.81317821  1
  O  O344  1  0.19216666  0.75018225  0.06234812  1
  O  O345  1  0.19080542  0.75100593  0.31257764  1
  O  O346  1  0.18903331  0.75071492  0.56256717  1
  O  O347  1  0.18987897  0.75005998  0.81245574  1
  O  O348  1  0.69278051  0.08291578  0.06143492  1
  O  O349  1  0.69169107  0.08260240  0.31282760  1
  O  O350  1  0.69390668  0.08283864  0.56175880  1
  O  O351  1  0.69185994  0.08315861  0.81289174  1
  O  O352  1  0.69423307  0.41737615  0.06169700  1
  O  O353  1  0.69060020  0.41718077  0.31240288  1
  O  O354  1  0.69316158  0.41692748  0.56156558  1
  O  O355  1  0.69406251  0.41718170  0.81168008  1
  O  O356  1  0.69305334  0.74958192  0.06102594  1
  O  O357  1  0.69384362  0.74998175  0.31154227  1
  O  O358  1  0.69521151  0.74969446  0.56202054  1
  O  O359  1  0.69221820  0.74954630  0.81223809  1
  O  O360  1  0.30919904  0.24992387  0.18767274  1
  O  O361  1  0.30699433  0.25033339  0.43872992  1
  O  O362  1  0.30772284  0.24999393  0.68689417  1
  O  O363  1  0.30648755  0.25020834  0.93868554  1
  O  O364  1  0.30783635  0.58341608  0.18726265  1
  O  O365  1  0.30494753  0.58324829  0.43907003  1
  O  O366  1  0.30666107  0.58359965  0.68733946  1
  O  O367  1  0.30599724  0.58346926  0.93845334  1
  O  O368  1  0.30866073  0.91663757  0.18825649  1
  O  O369  1  0.30807832  0.91701102  0.43717364  1
  O  O370  1  0.30524988  0.91655998  0.68797080  1
  O  O371  1  0.30720535  0.91647184  0.93875831  1
  O  O372  1  0.80623585  0.24999476  0.18832206  1
  O  O373  1  0.80611665  0.25031660  0.43820806  1
  O  O374  1  0.80702961  0.25006257  0.68890060  1
  O  O375  1  0.80817500  0.25093744  0.93690886  1
  O  O376  1  0.80691053  0.58325689  0.18840361  1
  O  O377  1  0.80817860  0.58295992  0.43879741  1
  O  O378  1  0.81152802  0.58276925  0.68752816  1
  O  O379  1  0.80905217  0.58317213  0.93653768  1
  O  O380  1  0.80672664  0.91643898  0.18880815  1
  O  O381  1  0.81045482  0.91645256  0.43732207  1
  O  O382  1  0.80998820  0.91658813  0.68672973  1
  O  O383  1  0.80527279  0.91593497  0.93783852  1
  O  O384  1  0.23481302  0.24956302  0.04149850  1
  O  O385  1  0.23460581  0.25038736  0.28828167  1
  O  O386  1  0.23419868  0.25033945  0.54026419  1
  O  O387  1  0.23267813  0.24991783  0.78750094  1
  O  O388  1  0.23431260  0.58348730  0.04092853  1
  O  O389  1  0.23239197  0.58433213  0.28733571  1
  O  O390  1  0.23136387  0.58289930  0.54033408  1
  O  O391  1  0.23149404  0.58308040  0.78771779  1
  O  O392  1  0.23517695  0.91663477  0.04124021  1
  O  O393  1  0.23327604  0.91604367  0.28838961  1
  O  O394  1  0.23333084  0.91651381  0.53764554  1
  O  O395  1  0.23331721  0.91751443  0.79056146  1
  O  O396  1  0.73259593  0.24998050  0.03723179  1
  O  O397  1  0.73364319  0.24938401  0.29014788  1
  O  O398  1  0.73209504  0.24933794  0.53944526  1
  O  O399  1  0.73331069  0.25015484  0.79002662  1
  O  O400  1  0.73368107  0.58371107  0.03700902  1
  O  O401  1  0.73409175  0.58375114  0.29037675  1
  O  O402  1  0.73551539  0.58329043  0.54096606  1
  O  O403  1  0.73664131  0.58326972  0.78770441  1
  O  O404  1  0.73128303  0.91610211  0.03917217  1
  O  O405  1  0.73486909  0.91643966  0.29136427  1
  O  O406  1  0.73665439  0.91682304  0.53874472  1
  O  O407  1  0.73585351  0.91657606  0.78761641  1
  O  O408  1  0.26550881  0.08220771  0.21300096  1
  O  O409  1  0.26453649  0.08367084  0.46126005  1
  O  O410  1  0.26686885  0.08343669  0.70901911  1
  O  O411  1  0.26935080  0.08369699  0.96099540  1
  O  O412  1  0.26463380  0.41671590  0.21150179  1
  O  O413  1  0.26644213  0.41717205  0.46175953  1
  O  O414  1  0.26331345  0.41634762  0.71206173  1
  O  O415  1  0.26683530  0.41663657  0.96190134  1
  O  O416  1  0.26560164  0.75044827  0.21213372  1
  O  O417  1  0.26356625  0.74950614  0.46190432  1
  O  O418  1  0.26344235  0.75025972  0.71108240  1
  O  O419  1  0.26715234  0.74985452  0.96206970  1
  O  O420  1  0.76682847  0.08285858  0.21221656  1
  O  O421  1  0.76782718  0.08335753  0.46086472  1
  O  O422  1  0.76734215  0.08378316  0.71264814  1
  O  O423  1  0.76475000  0.08301556  0.95909771  1
  O  O424  1  0.76536106  0.41664486  0.21167672  1
  O  O425  1  0.76581132  0.41663346  0.45949501  1
  O  O426  1  0.76704981  0.41561476  0.71000319  1
  O  O427  1  0.76797834  0.41739740  0.96009203  1
  O  O428  1  0.76668157  0.75016760  0.20956738  1
  O  O429  1  0.76953387  0.74973214  0.46127000  1
  O  O430  1  0.76853686  0.74984753  0.71294672  1
  O  O431  1  0.76701820  0.74945469  0.95969131  1
  O  O432  1  0.01542303  0.08326223  0.16452997  1
  O  O433  1  0.01638300  0.08299751  0.41292143  1
  O  O434  1  0.01601583  0.08337096  0.66309040  1
  O  O435  1  0.01549687  0.08419349  0.91354032  1
  O  O436  1  0.01735174  0.41688523  0.16180529  1
  O  O437  1  0.01936368  0.41715901  0.41437070  1
  O  O438  1  0.01872414  0.41682592  0.66399263  1
  O  O439  1  0.01770916  0.41692792  0.91520547  1
  O  O440  1  0.01755261  0.74985638  0.16172573  1
  O  O441  1  0.01820776  0.75079330  0.41456720  1
  O  O442  1  0.01646463  0.74952905  0.66329323  1
  O  O443  1  0.01680606  0.74942143  0.91351039  1
  O  O444  1  0.51502823  0.08354907  0.16376941  1
  O  O445  1  0.51819473  0.08299821  0.41520401  1
  O  O446  1  0.51562094  0.08358444  0.66603997  1
  O  O447  1  0.51659330  0.08314264  0.91204813  1
  O  O448  1  0.51476014  0.41680863  0.16323620  1
  O  O449  1  0.51690086  0.41623407  0.41528376  1
  O  O450  1  0.51434676  0.41711689  0.66384501  1
  O  O451  1  0.51552160  0.41683067  0.91473232  1
  O  O452  1  0.51385071  0.74977872  0.16404218  1
  O  O453  1  0.51451697  0.75011475  0.41308461  1
  O  O454  1  0.51583062  0.74943295  0.66543524  1
  O  O455  1  0.51714906  0.75013974  0.91437623  1
  O  O456  1  0.48260615  0.24977056  0.08477422  1
  O  O457  1  0.48511686  0.25017806  0.33682660  1
  O  O458  1  0.48356391  0.25003480  0.58807303  1
  O  O459  1  0.48528763  0.25041218  0.83644691  1
  O  O460  1  0.48203748  0.58379235  0.08524338  1
  O  O461  1  0.48286155  0.58294651  0.33531839  1
  O  O462  1  0.48127134  0.58316317  0.58582151  1
  O  O463  1  0.48468020  0.58357748  0.83696828  1
  O  O464  1  0.48205284  0.91646418  0.08573548  1
  O  O465  1  0.48218657  0.91698828  0.33544757  1
  O  O466  1  0.48353330  0.91661846  0.58535797  1
  O  O467  1  0.48530179  0.91612534  0.83641536  1
  O  O468  1  0.98354452  0.25045413  0.08446655  1
  O  O469  1  0.98409960  0.25007125  0.33432707  1
  O  O470  1  0.98500338  0.24998748  0.58626822  1
  O  O471  1  0.98282451  0.25061379  0.83520001  1
  O  O472  1  0.98570525  0.58351848  0.08654439  1
  O  O473  1  0.98643150  0.58349671  0.33545411  1
  O  O474  1  0.98422342  0.58399866  0.58649184  1
  O  O475  1  0.98307228  0.58277721  0.83577787  1
  O  O476  1  0.98477376  0.91670151  0.08600136  1
  O  O477  1  0.98260530  0.91649329  0.33412812  1
  O  O478  1  0.98195627  0.91707338  0.58539042  1
  O  O479  1  0.98357924  0.91594506  0.83562543  1
  O  O480  1  0.08747944  0.31547387  0.07735469  1
  O  O481  1  0.08805823  0.31487578  0.32792413  1
  O  O482  1  0.08891622  0.31457022  0.57884579  1
  O  O483  1  0.08687198  0.31592313  0.82768312  1
  O  O484  1  0.08919354  0.64867414  0.07804509  1
  O  O485  1  0.08989668  0.64902640  0.32815731  1
  O  O486  1  0.08820402  0.64835754  0.57815762  1
  O  O487  1  0.08676690  0.64835375  0.82738601  1
  O  O488  1  0.08848314  0.98117272  0.07746783  1
  O  O489  1  0.08659102  0.98182370  0.32668415  1
  O  O490  1  0.08568632  0.98212638  0.57750502  1
  O  O491  1  0.08699101  0.98133059  0.82755328  1
  O  O492  1  0.58649161  0.31509833  0.07614976  1
  O  O493  1  0.58857569  0.31513333  0.32911321  1
  O  O494  1  0.58736520  0.31491751  0.57768299  1
  O  O495  1  0.58946321  0.31430265  0.82700851  1
  O  O496  1  0.58635390  0.64842769  0.07646315  1
  O  O497  1  0.58668743  0.64760376  0.32737557  1
  O  O498  1  0.58504247  0.64863453  0.57685599  1
  O  O499  1  0.58800040  0.64956655  0.82800617  1
  O  O500  1  0.58618562  0.98124279  0.07677076  1
  O  O501  1  0.58596331  0.98237925  0.32776570  1
  O  O502  1  0.58751522  0.98137396  0.57764064  1
  O  O503  1  0.58883599  0.98129171  0.82833674  1
  O  O504  1  0.41152765  0.01828408  0.17144722  1
  O  O505  1  0.41423354  0.01736608  0.42269127  1
  O  O506  1  0.41121811  0.01955327  0.67351425  1
  O  O507  1  0.41276811  0.01846584  0.92238113  1
  O  O508  1  0.41148338  0.35144041  0.17143689  1
  O  O509  1  0.41273527  0.35165693  0.42373600  1
  O  O510  1  0.41101682  0.35161152  0.67189849  1
  O  O511  1  0.41161475  0.35171456  0.92276498  1
  O  O512  1  0.41005911  0.68453269  0.17218228  1
  O  O513  1  0.41047870  0.68608917  0.42203112  1
  O  O514  1  0.41211450  0.68360297  0.67252968  1
  O  O515  1  0.41310903  0.68499489  0.92336892  1
  O  O516  1  0.91141826  0.01838870  0.17290533  1
  O  O517  1  0.91286445  0.01738054  0.42197834  1
  O  O518  1  0.91229280  0.01794990  0.67210726  1
  O  O519  1  0.91180979  0.01960929  0.92230370  1
  O  O520  1  0.91376469  0.35193796  0.17248014  1
  O  O521  1  0.91569038  0.35171784  0.42308238  1
  O  O522  1  0.91483062  0.35234310  0.67275516  1
  O  O523  1  0.91364204  0.35151999  0.92303731  1
  O  O524  1  0.91418300  0.68490583  0.17223936  1
  O  O525  1  0.91448652  0.68571850  0.42316984  1
  O  O526  1  0.91261087  0.68502888  0.67233027  1
  O  O527  1  0.91336254  0.68339808  0.92261958  1
  O  O528  1  0.16217625  0.01681117  0.20337190  1
  O  O529  1  0.16085065  0.01824840  0.45168986  1
  O  O530  1  0.16240140  0.01943917  0.70126512  1
  O  O531  1  0.16566245  0.01836560  0.95194802  1
  O  O532  1  0.16056321  0.35270032  0.20186539  1
  O  O533  1  0.16266482  0.35254414  0.45207996  1
  O  O534  1  0.15974845  0.35130090  0.70335926  1
  O  O535  1  0.16308531  0.35139658  0.95226633  1
  O  O536  1  0.16176161  0.68588747  0.20241846  1
  O  O537  1  0.16028518  0.68375743  0.45339503  1
  O  O538  1  0.16003055  0.68425325  0.70304979  1
  O  O539  1  0.16298659  0.68541309  0.95232141  1
  O  O540  1  0.66321402  0.01769252  0.20291779  1
  O  O541  1  0.66387905  0.01861723  0.45177266  1
  O  O542  1  0.66378713  0.01931239  0.70229279  1
  O  O543  1  0.66095589  0.01770498  0.95235491  1
  O  O544  1  0.66160576  0.35192843  0.20264390  1
  O  O545  1  0.66206379  0.35077737  0.45285504  1
  O  O546  1  0.66292517  0.35075319  0.70326139  1
  O  O547  1  0.66400920  0.35225413  0.95253648  1
  O  O548  1  0.66293750  0.68505207  0.20215176  1
  O  O549  1  0.66540122  0.68479992  0.45258301  1
  O  O550  1  0.66506423  0.68466512  0.70186593  1
  O  O551  1  0.66298963  0.68463444  0.95138455  1
  O  O552  1  0.33830410  0.31542952  0.04770600  1
  O  O553  1  0.33827044  0.31499764  0.29739396  1
  O  O554  1  0.33756625  0.31656232  0.54788897  1
  O  O555  1  0.33656727  0.31395460  0.79723112  1
  O  O556  1  0.33825048  0.64837198  0.04750333  1
  O  O557  1  0.33574740  0.64953524  0.29717071  1
  O  O558  1  0.33541771  0.64732722  0.54893761  1
  O  O559  1  0.33500251  0.64847628  0.79741163  1
  O  O560  1  0.33911318  0.98164164  0.04779346  1
  O  O561  1  0.33743120  0.98024368  0.29883107  1
  O  O562  1  0.33688800  0.98170200  0.54704481  1
  O  O563  1  0.33724403  0.98277740  0.79636082  1
  O  O564  1  0.83580708  0.31629763  0.04698048  1
  O  O565  1  0.83743323  0.31416885  0.29789097  1
  O  O566  1  0.83585540  0.31460462  0.54790540  1
  O  O567  1  0.83777871  0.31417392  0.79849837  1
  O  O568  1  0.83732510  0.64879168  0.04631972  1
  O  O569  1  0.83821644  0.64837634  0.29726224  1
  O  O570  1  0.83955765  0.64871750  0.54761359  1
  O  O571  1  0.84020258  0.64879937  0.79739941  1
  O  O572  1  0.83543602  0.98032017  0.04719462  1
  O  O573  1  0.83846092  0.98252186  0.29761465  1
  O  O574  1  0.84032616  0.98194847  0.54684408  1
  O  O575  1  0.83909609  0.98201813  0.79651476  1
  O  O576  1  0.41151021  0.14867761  0.17143541  1
  O  O577  1  0.41413385  0.14736472  0.42310756  1
  O  O578  1  0.41195246  0.14962512  0.67323073  1
  O  O579  1  0.41302231  0.14841226  0.92249100  1
  O  O580  1  0.41122855  0.48197578  0.17151678  1
  O  O581  1  0.41274514  0.48146679  0.42380949  1
  O  O582  1  0.41051824  0.48203494  0.67182991  1
  O  O583  1  0.41134909  0.48160960  0.92268331  1
  O  O584  1  0.40999732  0.81479772  0.17208646  1
  O  O585  1  0.41128718  0.81626025  0.42142474  1
  O  O586  1  0.41189190  0.81391179  0.67277522  1
  O  O587  1  0.41296718  0.81484544  0.92332603  1
  O  O588  1  0.91150628  0.14833926  0.17309742  1
  O  O589  1  0.91252297  0.14745098  0.42315389  1
  O  O590  1  0.91207851  0.14800954  0.67296824  1
  O  O591  1  0.91200104  0.14993997  0.92149029  1
  O  O592  1  0.91403158  0.48203543  0.17262537  1
  O  O593  1  0.91536713  0.48173644  0.42257679  1
  O  O594  1  0.91527566  0.48243126  0.67239496  1
  O  O595  1  0.91358089  0.48165202  0.92305562  1
  O  O596  1  0.91404648  0.81494376  0.17194526  1
  O  O597  1  0.91404152  0.81573814  0.42216926  1
  O  O598  1  0.91306293  0.81521977  0.67235847  1
  O  O599  1  0.91249698  0.81338798  0.92352807  1
  O  O600  1  0.08703426  0.18522650  0.07650277  1
  O  O601  1  0.08757046  0.18456174  0.32770765  1
  O  O602  1  0.08818024  0.18428853  0.57835393  1
  O  O603  1  0.08704765  0.18591363  0.82646565  1
  O  O604  1  0.08919519  0.51840725  0.07832475  1
  O  O605  1  0.09043061  0.51879311  0.32798724  1
  O  O606  1  0.08781046  0.51832532  0.57775483  1
  O  O607  1  0.08727454  0.51825823  0.82789879  1
  O  O608  1  0.08821268  0.85090766  0.07791703  1
  O  O609  1  0.08691214  0.85186509  0.32687595  1
  O  O610  1  0.08561978  0.85198897  0.57770312  1
  O  O611  1  0.08733496  0.85099833  0.82845401  1
  O  O612  1  0.58691290  0.18522100  0.07661733  1
  O  O613  1  0.58832661  0.18451875  0.32879322  1
  O  O614  1  0.58739072  0.18500178  0.57777577  1
  O  O615  1  0.58861988  0.18415799  0.82766970  1
  O  O616  1  0.58601348  0.51858355  0.07607931  1
  O  O617  1  0.58629009  0.51709447  0.32806791  1
  O  O618  1  0.58544968  0.51868902  0.57737252  1
  O  O619  1  0.58843440  0.51924093  0.82747760  1
  O  O620  1  0.58599928  0.85137004  0.07661170  1
  O  O621  1  0.58591615  0.85207121  0.32726448  1
  O  O622  1  0.58721100  0.85122543  0.57720827  1
  O  O623  1  0.58886990  0.85084364  0.82833437  1
  O  O624  1  0.33918283  0.18526288  0.04752489  1
  O  O625  1  0.33787841  0.18482205  0.29767960  1
  O  O626  1  0.33864405  0.18646889  0.54816569  1
  O  O627  1  0.33613068  0.18394690  0.79649589  1
  O  O628  1  0.33811172  0.51823541  0.04749463  1
  O  O629  1  0.33574260  0.51939263  0.29776873  1
  O  O630  1  0.33532286  0.51738624  0.54830817  1
  O  O631  1  0.33539975  0.51851015  0.79719781  1
  O  O632  1  0.33884687  0.85137656  0.04781718  1
  O  O633  1  0.33677774  0.85027952  0.29787913  1
  O  O634  1  0.33677487  0.85150947  0.54704252  1
  O  O635  1  0.33704823  0.85263432  0.79737068  1
  O  O636  1  0.83651994  0.18599088  0.04673814  1
  O  O637  1  0.83730419  0.18396080  0.29719928  1
  O  O638  1  0.83620110  0.18452702  0.54730883  1
  O  O639  1  0.83704520  0.18429100  0.79830717  1
  O  O640  1  0.83733571  0.51852164  0.04672841  1
  O  O641  1  0.83768084  0.51830027  0.29778345  1
  O  O642  1  0.83972534  0.51864345  0.54810335  1
  O  O643  1  0.84044509  0.51873847  0.79784411  1
  O  O644  1  0.83504509  0.85018531  0.04702184  1
  O  O645  1  0.83946147  0.85257147  0.29795401  1
  O  O646  1  0.84047310  0.85168420  0.54709994  1
  O  O647  1  0.83940266  0.85168261  0.79666724  1
  O  O648  1  0.16223838  0.14710657  0.20257962  1
  O  O649  1  0.16065506  0.14818790  0.45204570  1
  O  O650  1  0.16305897  0.14938043  0.70171698  1
  O  O651  1  0.16529402  0.14822239  0.95205362  1
  O  O652  1  0.16137641  0.48278515  0.20265778  1
  O  O653  1  0.16266909  0.48256143  0.45301673  1
  O  O654  1  0.15976027  0.48151014  0.70321748  1
  O  O655  1  0.16281708  0.48123896  0.95234884  1
  O  O656  1  0.16214194  0.81596464  0.20238489  1
  O  O657  1  0.15979045  0.81393725  0.45189967  1
  O  O658  1  0.15938740  0.81436881  0.70243311  1
  O  O659  1  0.16339712  0.81521491  0.95233370  1
  O  O660  1  0.66312815  0.14771481  0.20279925  1
  O  O661  1  0.66361203  0.14860697  0.45256654  1
  O  O662  1  0.66388340  0.14946791  0.70339964  1
  O  O663  1  0.66071398  0.14794199  0.95243917  1
  O  O664  1  0.66195279  0.48205347  0.20231081  1
  O  O665  1  0.66149587  0.48094655  0.45219275  1
  O  O666  1  0.66349506  0.48094627  0.70194459  1
  O  O667  1  0.66413871  0.48242534  0.95221419  1
  O  O668  1  0.66272843  0.81505644  0.20251883  1
  O  O669  1  0.66566485  0.81484083  0.45241912  1
  O  O670  1  0.66493727  0.81475291  0.70201852  1
  O  O671  1  0.66305586  0.81474743  0.95160547  1
