# generated using pymatgen
data_Na2MnFe(PO4)2
_symmetry_space_group_name_H-M   'P 1'
_cell_length_a   21.09442901
_cell_length_b   18.94860371
_cell_length_c   20.05267913
_cell_angle_alpha   89.99986780
_cell_angle_beta   90.00012769
_cell_angle_gamma   90.00312973
_symmetry_Int_Tables_number   1
_chemical_formula_structural   Na2MnFe(PO4)2
_chemical_formula_sum   'Na96 Mn48 Fe48 P96 O384'
_cell_volume   8015.25587716
_cell_formula_units_Z   48
loop_
 _symmetry_equiv_pos_site_id
 _symmetry_equiv_pos_as_xyz
  1  'x, y, z'
loop_
 _atom_site_type_symbol
 _atom_site_label
 _atom_site_symmetry_multiplicity
 _atom_site_fract_x
 _atom_site_fract_y
 _atom_site_fract_z
 _atom_site_occupancy
  Na  Na0  1  0.00249441  0.00045805  0.00043411  1
  Na  Na1  1  -0.00013720  -0.00027698  0.25090370  1
  Na  Na2  1  0.00019037  -0.00015795  0.49925111  1
  Na  Na3  1  0.00145959  -0.00049933  0.74954306  1
  Na  Na4  1  -0.00065152  0.33250154  0.00063864  1
  Na  Na5  1  0.00291431  0.33460988  0.24881164  1
  Na  Na6  1  0.00034332  0.33261668  0.50051236  1
  Na  Na7  1  -0.00001598  0.33294377  0.75024219  1
  Na  Na8  1  0.00063637  0.66693699  0.00055530  1
  Na  Na9  1  0.00171202  0.66700137  0.24998353  1
  Na  Na10  1  0.00026636  0.66635380  0.49976388  1
  Na  Na11  1  0.00111716  0.66781201  0.74962728  1
  Na  Na12  1  0.49942183  -0.00005506  -0.00033036  1
  Na  Na13  1  0.49716612  -0.00023962  0.25005913  1
  Na  Na14  1  0.49795023  -0.00027330  0.50052570  1
  Na  Na15  1  0.49968956  -0.00032233  0.74996438  1
  Na  Na16  1  0.50023745  0.33269562  -0.00039057  1
  Na  Na17  1  0.50076506  0.33286354  0.24977403  1
  Na  Na18  1  0.50037667  0.33328995  0.50026487  1
  Na  Na19  1  0.50087267  0.33325244  0.75047758  1
  Na  Na20  1  0.49858690  0.66675081  0.00018768  1
  Na  Na21  1  0.49802524  0.66687179  0.25069403  1
  Na  Na22  1  0.49795144  0.66642480  0.49928029  1
  Na  Na23  1  0.49867403  0.66651061  0.74910834  1
  Na  Na24  1  0.24970036  -0.00066745  0.12437165  1
  Na  Na25  1  0.25213489  0.00077388  0.37430240  1
  Na  Na26  1  0.24782144  -0.00085393  0.62551243  1
  Na  Na27  1  0.25000037  0.00063332  0.87586024  1
  Na  Na28  1  0.24903671  0.33293041  0.12545647  1
  Na  Na29  1  0.24804802  0.33233082  0.37377308  1
  Na  Na30  1  0.25061031  0.33370285  0.62450974  1
  Na  Na31  1  0.24923013  0.33303395  0.87676160  1
  Na  Na32  1  0.25006453  0.66652194  0.12417887  1
  Na  Na33  1  0.25053181  0.66632225  0.37438329  1
  Na  Na34  1  0.25078237  0.66681217  0.62602872  1
  Na  Na35  1  0.24903103  0.66642728  0.87495496  1
  Na  Na36  1  0.74878696  -0.00071915  0.12379751  1
  Na  Na37  1  0.75237239  0.00099715  0.37479616  1
  Na  Na38  1  0.75168421  -0.00031996  0.62557823  1
  Na  Na39  1  0.74960230  -0.00061332  0.87587494  1
  Na  Na40  1  0.75006924  0.33289917  0.12506907  1
  Na  Na41  1  0.74880264  0.33203713  0.37444909  1
  Na  Na42  1  0.75134049  0.33351668  0.62477235  1
  Na  Na43  1  0.75001917  0.33281068  0.87472287  1
  Na  Na44  1  0.75180190  0.66786975  0.12609225  1
  Na  Na45  1  0.74915051  0.66666586  0.37347177  1
  Na  Na46  1  0.74945180  0.66766053  0.62575524  1
  Na  Na47  1  0.74935617  0.66676301  0.87524796  1
  Na  Na48  1  0.00061131  0.16637085  0.00039774  1
  Na  Na49  1  -0.00016390  0.16630932  0.25043560  1
  Na  Na50  1  -0.00130977  0.16686737  0.49960707  1
  Na  Na51  1  0.00252899  0.16497716  0.74936265  1
  Na  Na52  1  0.00039164  0.50021348  0.00067500  1
  Na  Na53  1  0.00231130  0.50025706  0.24916281  1
  Na  Na54  1  0.00367754  0.49941684  0.49939170  1
  Na  Na55  1  -0.00051447  0.50102065  0.75059763  1
  Na  Na56  1  0.00193033  0.83314629  0.00042810  1
  Na  Na57  1  0.00149187  0.83288710  0.24985503  1
  Na  Na58  1  -0.00096344  0.83394414  0.50070247  1
  Na  Na59  1  0.00041772  0.83370175  0.74951665  1
  Na  Na60  1  0.49997267  0.16677348  -0.00005973  1
  Na  Na61  1  0.50049335  0.16571689  0.24958690  1
  Na  Na62  1  0.49821851  0.16715522  0.50013407  1
  Na  Na63  1  0.50090866  0.16618295  0.75025491  1
  Na  Na64  1  0.49785503  0.50066779  -0.00066746  1
  Na  Na65  1  0.49744566  0.50126577  0.25082547  1
  Na  Na66  1  0.49870809  0.50044868  0.49966165  1
  Na  Na67  1  0.49733247  0.50105500  0.75045338  1
  Na  Na68  1  0.49946298  0.83412499  0.00009430  1
  Na  Na69  1  0.49705035  0.83435927  0.24994689  1
  Na  Na70  1  0.49920701  0.83323498  0.50043878  1
  Na  Na71  1  0.50158408  0.83287680  0.74900579  1
  Na  Na72  1  0.25169046  0.16516164  0.12469482  1
  Na  Na73  1  0.24987813  0.16619709  0.37497683  1
  Na  Na74  1  0.24782777  0.16653655  0.62580315  1
  Na  Na75  1  0.24898139  0.16610658  0.87578449  1
  Na  Na76  1  0.24776673  0.50129164  0.12500599  1
  Na  Na77  1  0.24900994  0.50104461  0.37406193  1
  Na  Na78  1  0.25086564  0.50042839  0.62470888  1
  Na  Na79  1  0.25192000  0.49933244  0.87560614  1
  Na  Na80  1  0.25072213  0.83342468  0.12417754  1
  Na  Na81  1  0.25197072  0.83304716  0.37365330  1
  Na  Na82  1  0.25018972  0.83339524  0.62557752  1
  Na  Na83  1  0.24735095  0.83478475  0.87620441  1
  Na  Na84  1  0.74916100  0.16692838  0.12457731  1
  Na  Na85  1  0.75125350  0.16613606  0.37442521  1
  Na  Na86  1  0.75115251  0.16625936  0.62523500  1
  Na  Na87  1  0.74780670  0.16745676  0.87556686  1
  Na  Na88  1  0.75278166  0.49954441  0.12555557  1
  Na  Na89  1  0.74956164  0.50084214  0.37388135  1
  Na  Na90  1  0.74911005  0.50101838  0.62503242  1
  Na  Na91  1  0.75168611  0.49962941  0.87560411  1
  Na  Na92  1  0.74869216  0.83357676  0.12499375  1
  Na  Na93  1  0.74955734  0.83350747  0.37438891  1
  Na  Na94  1  0.75124572  0.83299592  0.62604261  1
  Na  Na95  1  0.74965621  0.83355225  0.87459195  1
  Mn  Mn96  1  0.89216410  0.91612653  0.37716627  1
  Mn  Mn97  1  0.60787887  0.41780393  0.87319296  1
  Mn  Mn98  1  0.39150630  0.25055613  0.62797369  1
  Mn  Mn99  1  0.60793485  0.08337371  0.62244635  1
  Mn  Mn100  1  0.60759820  0.08250769  0.37317946  1
  Mn  Mn101  1  0.35662727  0.41630904  0.25187427  1
  Mn  Mn102  1  0.89324167  0.58315005  0.37741618  1
  Mn  Mn103  1  0.60659058  0.75024986  0.12265388  1
  Mn  Mn104  1  0.35737743  0.75042481  0.75337981  1
  Mn  Mn105  1  0.60752074  0.41727191  0.62280873  1
  Mn  Mn106  1  0.85801845  0.41671658  0.75203604  1
  Mn  Mn107  1  0.64243902  0.58340643  0.99876780  1
  Mn  Mn108  1  0.89282325  0.91674693  0.12660116  1
  Mn  Mn109  1  0.39212378  0.24953082  0.87718885  1
  Mn  Mn110  1  0.35727428  0.41642733  0.50207079  1
  Mn  Mn111  1  0.85830055  0.08322531  0.75268333  1
  Mn  Mn112  1  0.89235505  0.58425871  0.87796288  1
  Mn  Mn113  1  0.10883509  0.74953643  0.37304549  1
  Mn  Mn114  1  0.89252845  0.24900174  0.87729148  1
  Mn  Mn115  1  0.85841884  0.41746568  0.50188488  1
  Mn  Mn116  1  0.64123592  0.58314054  0.74801078  1
  Mn  Mn117  1  0.60759998  0.41705548  0.37264833  1
  Mn  Mn118  1  0.64168397  0.58286078  0.24713806  1
  Mn  Mn119  1  0.64287163  0.91649956  0.49763548  1
  Mn  Mn120  1  0.14349702  0.91663165  0.24768149  1
  Mn  Mn121  1  0.10795294  0.08359391  0.37264688  1
  Mn  Mn122  1  0.10808147  0.75043980  0.62202590  1
  Mn  Mn123  1  0.39140644  0.91657143  0.62765355  1
  Mn  Mn124  1  0.85841401  0.75082326  0.25211885  1
  Mn  Mn125  1  0.39184475  0.25001053  0.37681853  1
  Mn  Mn126  1  0.10860498  0.41633304  0.62304869  1
  Mn  Mn127  1  0.35753115  0.41606020  0.00318227  1
  Mn  Mn128  1  0.85867490  0.41599686  0.25255028  1
  Mn  Mn129  1  0.85777198  0.08300688  0.00253955  1
  Mn  Mn130  1  0.60736206  0.08257731  0.87292743  1
  Mn  Mn131  1  0.60739459  0.74955910  0.62207105  1
  Mn  Mn132  1  0.14215786  0.24957745  0.99826804  1
  Mn  Mn133  1  0.64307168  0.24995504  0.49783722  1
  Mn  Mn134  1  0.35627807  0.08371843  0.75227932  1
  Mn  Mn135  1  0.35723390  0.75051816  0.00170373  1
  Mn  Mn136  1  0.14284595  0.58275943  0.74793833  1
  Mn  Mn137  1  0.64107613  0.91765091  0.24818319  1
  Mn  Mn138  1  0.85771116  0.75010791  0.75273292  1
  Mn  Mn139  1  0.10765937  0.41652104  0.87246580  1
  Mn  Mn140  1  0.60744117  0.41684697  0.12247949  1
  Mn  Mn141  1  0.89268261  0.25074307  0.37642740  1
  Mn  Mn142  1  0.89217353  0.58328202  0.62630686  1
  Mn  Mn143  1  0.14186323  0.25006804  0.49745289  1
  Fe  Fe144  1  0.85680529  0.75003416  0.50110377  1
  Fe  Fe145  1  0.35721201  0.08329274  0.00189475  1
  Fe  Fe146  1  0.39230726  0.91705489  0.12615955  1
  Fe  Fe147  1  0.85766858  0.75000751  0.00162854  1
  Fe  Fe148  1  0.60658737  0.08312666  0.12359677  1
  Fe  Fe149  1  0.85819064  0.08270741  0.50223739  1
  Fe  Fe150  1  0.35707115  0.75049436  0.50140856  1
  Fe  Fe151  1  0.35738689  0.41581385  0.75183128  1
  Fe  Fe152  1  0.10668285  0.08302864  0.62251233  1
  Fe  Fe153  1  0.64296433  0.25022596  0.99873785  1
  Fe  Fe154  1  0.60598803  0.75032909  0.37375588  1
  Fe  Fe155  1  0.14292779  0.91651959  0.99809881  1
  Fe  Fe156  1  0.10687968  0.41655801  0.12291437  1
  Fe  Fe157  1  0.35715220  0.75015980  0.25142799  1
  Fe  Fe158  1  0.64194737  0.91626720  0.99787321  1
  Fe  Fe159  1  0.85717877  0.08327895  0.25027846  1
  Fe  Fe160  1  0.14236031  0.25007289  0.74846878  1
  Fe  Fe161  1  0.64286257  0.24962675  0.74783187  1
  Fe  Fe162  1  0.39246011  0.91622159  0.87650539  1
  Fe  Fe163  1  0.14264179  0.24932386  0.24726775  1
  Fe  Fe164  1  0.85790750  0.41705182  0.00186479  1
  Fe  Fe165  1  0.14257410  0.58383559  0.99797210  1
  Fe  Fe166  1  0.39196877  0.58374532  0.37717877  1
  Fe  Fe167  1  0.10847030  0.41654239  0.37288398  1
  Fe  Fe168  1  0.89429043  0.58348729  0.12640466  1
  Fe  Fe169  1  0.10779686  0.08330229  0.12386466  1
  Fe  Fe170  1  0.39321042  0.24985642  0.12698898  1
  Fe  Fe171  1  0.89348107  0.91646786  0.87693833  1
  Fe  Fe172  1  0.64296983  0.91723833  0.74856505  1
  Fe  Fe173  1  0.14316000  0.91599526  0.49820159  1
  Fe  Fe174  1  0.89343029  0.91691859  0.62692927  1
  Fe  Fe175  1  0.14216534  0.91704175  0.74839747  1
  Fe  Fe176  1  0.10782668  0.08268902  0.87360514  1
  Fe  Fe177  1  0.35742998  0.08353766  0.25131915  1
  Fe  Fe178  1  0.10834687  0.75022202  0.12285956  1
  Fe  Fe179  1  0.39236907  0.58414551  0.87685698  1
  Fe  Fe180  1  0.64260040  0.24950320  0.24787331  1
  Fe  Fe181  1  0.35646941  0.08315659  0.50220382  1
  Fe  Fe182  1  0.89319757  0.24959626  0.62693277  1
  Fe  Fe183  1  0.10689204  0.75054805  0.87351622  1
  Fe  Fe184  1  0.39212385  0.91648300  0.37764824  1
  Fe  Fe185  1  0.39131475  0.58317796  0.12664299  1
  Fe  Fe186  1  0.14363661  0.58415376  0.49837560  1
  Fe  Fe187  1  0.89273927  0.24977775  0.12671664  1
  Fe  Fe188  1  0.64187406  0.58386964  0.49805108  1
  Fe  Fe189  1  0.60714075  0.74998200  0.87443005  1
  Fe  Fe190  1  0.39209209  0.58303356  0.62651324  1
  Fe  Fe191  1  0.14341595  0.58371749  0.24753233  1
  P  P192  1  0.05360769  0.24936391  0.11143168  1
  P  P193  1  0.05451123  0.25050913  0.35889949  1
  P  P194  1  0.05362495  0.24893292  0.61126533  1
  P  P195  1  0.05410531  0.24886787  0.85968921  1
  P  P196  1  0.05515217  0.58371358  0.11076305  1
  P  P197  1  0.05637284  0.58289393  0.36020447  1
  P  P198  1  0.05450958  0.58349026  0.60922215  1
  P  P199  1  0.05450613  0.58449508  0.86131149  1
  P  P200  1  0.05497848  0.91699395  0.10998720  1
  P  P201  1  0.05504442  0.91621383  0.36096103  1
  P  P202  1  0.05440630  0.91741512  0.61026388  1
  P  P203  1  0.05438861  0.91644374  0.86094437  1
  P  P204  1  0.55399492  0.24892299  0.11066795  1
  P  P205  1  0.55398916  0.24931731  0.35930297  1
  P  P206  1  0.55416910  0.25001857  0.61085861  1
  P  P207  1  0.55537147  0.25003277  0.86071209  1
  P  P208  1  0.55085469  0.58335713  0.11013769  1
  P  P209  1  0.55286788  0.58468694  0.36119526  1
  P  P210  1  0.55190929  0.58338400  0.60904827  1
  P  P211  1  0.55183058  0.58448417  0.86053358  1
  P  P212  1  0.55220955  0.91777013  0.10978429  1
  P  P213  1  0.55131575  0.91594682  0.36054462  1
  P  P214  1  0.55417809  0.91685211  0.61070436  1
  P  P215  1  0.55369440  0.91574927  0.86054735  1
  P  P216  1  0.44554034  0.08345947  0.13876878  1
  P  P217  1  0.44431174  0.08273110  0.38959809  1
  P  P218  1  0.44502253  0.08340800  0.63957881  1
  P  P219  1  0.44532418  0.08235039  0.89037310  1
  P  P220  1  0.44620635  0.41618657  0.14007108  1
  P  P221  1  0.44605277  0.41701185  0.38975381  1
  P  P222  1  0.44558725  0.41741351  0.64073407  1
  P  P223  1  0.44505344  0.41688486  0.88911099  1
  P  P224  1  0.44500867  0.75035750  0.14019980  1
  P  P225  1  0.44476854  0.75036390  0.38922324  1
  P  P226  1  0.44450786  0.74939828  0.63873874  1
  P  P227  1  0.44735715  0.75068715  0.88979687  1
  P  P228  1  0.94762940  0.08362223  0.14033455  1
  P  P229  1  0.94495440  0.08339245  0.38915604  1
  P  P230  1  0.94654914  0.08266923  0.63876802  1
  P  P231  1  0.94835100  0.08191147  0.89001694  1
  P  P232  1  0.94650497  0.41676841  0.13853399  1
  P  P233  1  0.94923177  0.41677115  0.38976368  1
  P  P234  1  0.94724211  0.41630716  0.63995922  1
  P  P235  1  0.94626811  0.41651665  0.89102793  1
  P  P236  1  0.94758421  0.74969362  0.13866016  1
  P  P237  1  0.94685048  0.74983714  0.39083068  1
  P  P238  1  0.94536936  0.75069437  0.63861753  1
  P  P239  1  0.94738296  0.75137763  0.89068090  1
  P  P240  1  0.19747589  0.08360593  0.23436366  1
  P  P241  1  0.19624095  0.08212039  0.48606957  1
  P  P242  1  0.19367378  0.08301397  0.73605333  1
  P  P243  1  0.19581476  0.08245184  0.98617177  1
  P  P244  1  0.19430837  0.41675837  0.23526667  1
  P  P245  1  0.19633719  0.41762734  0.48407046  1
  P  P246  1  0.19820566  0.41591557  0.73532871  1
  P  P247  1  0.19495778  0.41746052  0.98658097  1
  P  P248  1  0.19776363  0.74946188  0.23417982  1
  P  P249  1  0.19838941  0.75035871  0.48502487  1
  P  P250  1  0.19510294  0.75103054  0.73658678  1
  P  P251  1  0.19450911  0.75004194  0.98570117  1
  P  P252  1  0.69665505  0.08367234  0.23414657  1
  P  P253  1  0.69870864  0.08294504  0.48504923  1
  P  P254  1  0.69649334  0.08271799  0.73541730  1
  P  P255  1  0.69484288  0.08313492  0.98667221  1
  P  P256  1  0.69666422  0.41583402  0.23468798  1
  P  P257  1  0.69704069  0.41769664  0.48467933  1
  P  P258  1  0.69649700  0.41608468  0.73503029  1
  P  P259  1  0.69817824  0.41642999  0.98561400  1
  P  P260  1  0.69482825  0.75052070  0.23599335  1
  P  P261  1  0.69681819  0.74964498  0.48417592  1
  P  P262  1  0.69458630  0.75102100  0.73663623  1
  P  P263  1  0.69695576  0.75039844  0.98493222  1
  P  P264  1  0.30402414  0.24887833  0.01591903  1
  P  P265  1  0.30303997  0.24909043  0.26326228  1
  P  P266  1  0.30289369  0.24897750  0.51493250  1
  P  P267  1  0.30136860  0.25040608  0.76554184  1
  P  P268  1  0.30363127  0.58377618  0.01425219  1
  P  P269  1  0.30408864  0.58395184  0.26385661  1
  P  P270  1  0.30405425  0.58435356  0.51412037  1
  P  P271  1  0.30523519  0.58243839  0.76474595  1
  P  P272  1  0.30402350  0.91735556  0.01391289  1
  P  P273  1  0.30595678  0.91691329  0.26353940  1
  P  P274  1  0.30327567  0.91666716  0.51393973  1
  P  P275  1  0.30192896  0.91698593  0.76622015  1
  P  P276  1  0.80329485  0.25034131  0.01540239  1
  P  P277  1  0.80373591  0.24879262  0.26323167  1
  P  P278  1  0.80493797  0.24937248  0.51533886  1
  P  P279  1  0.80363570  0.24949429  0.76410751  1
  P  P280  1  0.80448022  0.58416560  0.01602205  1
  P  P281  1  0.80535395  0.58352294  0.26371022  1
  P  P282  1  0.80174415  0.58468020  0.51441793  1
  P  P283  1  0.80312303  0.58367624  0.76532342  1
  P  P284  1  0.80330324  0.91546938  0.01352053  1
  P  P285  1  0.80330221  0.91779993  0.26429487  1
  P  P286  1  0.80446799  0.91607242  0.51564187  1
  P  P287  1  0.80447778  0.91691019  0.76513213  1
  O  O288  1  0.05838285  0.24918922  0.18804616  1
  O  O289  1  0.05706022  0.24932228  0.43573912  1
  O  O290  1  0.05849480  0.24991874  0.68787213  1
  O  O291  1  0.05696368  0.24972029  0.93649469  1
  O  O292  1  0.05952192  0.58416123  0.18747755  1
  O  O293  1  0.06069430  0.58418493  0.43693746  1
  O  O294  1  0.05752162  0.58376946  0.68602424  1
  O  O295  1  0.05840627  0.58356730  0.93804258  1
  O  O296  1  0.05778164  0.91678405  0.18676306  1
  O  O297  1  0.05948064  0.91612183  0.43767723  1
  O  O298  1  0.05875481  0.91643593  0.68695793  1
  O  O299  1  0.05894021  0.91675511  0.93761881  1
  O  O300  1  0.55879124  0.24942851  0.18733679  1
  O  O301  1  0.55726919  0.24942148  0.43609872  1
  O  O302  1  0.55900817  0.24950661  0.68760023  1
  O  O303  1  0.55980941  0.25021691  0.93750023  1
  O  O304  1  0.55491576  0.58325097  0.18679730  1
  O  O305  1  0.55800315  0.58390067  0.43780021  1
  O  O306  1  0.55590415  0.58358585  0.68575290  1
  O  O307  1  0.55604282  0.58368620  0.93715948  1
  O  O308  1  0.55556858  0.91737009  0.18646734  1
  O  O309  1  0.55562607  0.91667778  0.43716683  1
  O  O310  1  0.55889861  0.91724704  0.68738874  1
  O  O311  1  0.55843445  0.91655440  0.93729286  1
  O  O312  1  0.44128689  0.08350730  0.06209034  1
  O  O313  1  0.44046594  0.08375586  0.31278426  1
  O  O314  1  0.44025307  0.08338964  0.56284837  1
  O  O315  1  0.44212010  0.08311938  0.81362446  1
  O  O316  1  0.44371119  0.41596925  0.06326496  1
  O  O317  1  0.44256762  0.41632527  0.31304171  1
  O  O318  1  0.44261134  0.41614377  0.56395237  1
  O  O319  1  0.44103973  0.41571285  0.81240325  1
  O  O320  1  0.44243828  0.75035468  0.06342193  1
  O  O321  1  0.44051170  0.75017967  0.31254701  1
  O  O322  1  0.44027904  0.75045896  0.56200997  1
  O  O323  1  0.44406306  0.75086221  0.81310447  1
  O  O324  1  0.94388504  0.08313002  0.06360694  1
  O  O325  1  0.94061753  0.08314363  0.31247156  1
  O  O326  1  0.94219727  0.08278517  0.56208008  1
  O  O327  1  0.94461150  0.08235818  0.81335695  1
  O  O328  1  0.94155504  0.41647682  0.06190790  1
  O  O329  1  0.94516871  0.41701928  0.31305622  1
  O  O330  1  0.94431236  0.41693132  0.56317386  1
  O  O331  1  0.94320799  0.41671936  0.81423727  1
  O  O332  1  0.94235360  0.75042542  0.06210092  1
  O  O333  1  0.94388845  0.75004584  0.31400360  1
  O  O334  1  0.94087482  0.74973241  0.56198226  1
  O  O335  1  0.94369816  0.75076549  0.81396256  1
  O  O336  1  0.19122892  0.08313955  0.06280034  1
  O  O337  1  0.19375864  0.08330552  0.31104225  1
  O  O338  1  0.19133046  0.08271622  0.56272955  1
  O  O339  1  0.19049616  0.08286230  0.81291555  1
  O  O340  1  0.19047376  0.41683298  0.06332730  1
  O  O341  1  0.19140873  0.41659108  0.31206386  1
  O  O342  1  0.19386107  0.41682417  0.56088998  1
  O  O343  1  0.19442069  0.41653372  0.81202489  1
  O  O344  1  0.19126401  0.74999848  0.06251592  1
  O  O345  1  0.19440074  0.75008064  0.31084468  1
  O  O346  1  0.19487102  0.75028316  0.56171838  1
  O  O347  1  0.19092906  0.75063108  0.81328707  1
  O  O348  1  0.69065926  0.08281550  0.06332591  1
  O  O349  1  0.69329734  0.08291975  0.31086115  1
  O  O350  1  0.69441120  0.08270884  0.56166935  1
  O  O351  1  0.69325599  0.08260703  0.81218467  1
  O  O352  1  0.69414466  0.41718824  0.06225440  1
  O  O353  1  0.69311701  0.41667563  0.31142996  1
  O  O354  1  0.69395058  0.41734437  0.56142658  1
  O  O355  1  0.69357241  0.41687399  0.81183309  1
  O  O356  1  0.69300458  0.75002646  0.06164868  1
  O  O357  1  0.68973117  0.75047560  0.31263507  1
  O  O358  1  0.69334101  0.75025709  0.56095172  1
  O  O359  1  0.69023504  0.75008515  0.81332701  1
  O  O360  1  0.30833882  0.24979975  0.18671017  1
  O  O361  1  0.30588303  0.24955730  0.43817337  1
  O  O362  1  0.30505091  0.24978032  0.68886519  1
  O  O363  1  0.30681285  0.24969246  0.93916893  1
  O  O364  1  0.30841264  0.58318926  0.18711837  1
  O  O365  1  0.30844321  0.58360191  0.43734447  1
  O  O366  1  0.30879533  0.58344521  0.68796562  1
  O  O367  1  0.30884476  0.58396500  0.93760613  1
  O  O368  1  0.30926680  0.91692248  0.18672259  1
  O  O369  1  0.30759280  0.91662930  0.43723701  1
  O  O370  1  0.30590641  0.91661557  0.68952005  1
  O  O371  1  0.30862996  0.91662652  0.93730026  1
  O  O372  1  0.80896972  0.24987809  0.18661371  1
  O  O373  1  0.80745872  0.25012801  0.43850427  1
  O  O374  1  0.80933820  0.24923318  0.68752399  1
  O  O375  1  0.80688714  0.24943015  0.93867982  1
  O  O376  1  0.81080629  0.58367206  0.18706895  1
  O  O377  1  0.80594891  0.58381246  0.43775004  1
  O  O378  1  0.80657849  0.58415859  0.68860320  1
  O  O379  1  0.80687268  0.58407929  0.93921112  1
  O  O380  1  0.80655196  0.91665054  0.18756477  1
  O  O381  1  0.80685168  0.91627990  0.43883418  1
  O  O382  1  0.80967369  0.91688795  0.68852093  1
  O  O383  1  0.80868956  0.91632123  0.93695556  1
  O  O384  1  0.23421801  0.24909580  0.04070474  1
  O  O385  1  0.23264953  0.24930614  0.28672497  1
  O  O386  1  0.23322547  0.24966960  0.54007791  1
  O  O387  1  0.23147950  0.24968131  0.79046749  1
  O  O388  1  0.23318082  0.58413288  0.03738588  1
  O  O389  1  0.23365071  0.58344344  0.28724649  1
  O  O390  1  0.23376914  0.58380998  0.53808553  1
  O  O391  1  0.23528405  0.58309995  0.78919468  1
  O  O392  1  0.23362533  0.91639223  0.03747559  1
  O  O393  1  0.23602270  0.91717599  0.28816348  1
  O  O394  1  0.23319298  0.91644336  0.53845731  1
  O  O395  1  0.23176920  0.91762325  0.79017525  1
  O  O396  1  0.73305605  0.24982378  0.03954544  1
  O  O397  1  0.73344092  0.24890982  0.28688659  1
  O  O398  1  0.73527495  0.24987152  0.54061519  1
  O  O399  1  0.73323978  0.24953921  0.78736512  1
  O  O400  1  0.73486416  0.58402256  0.04165741  1
  O  O401  1  0.73501543  0.58352065  0.28671390  1
  O  O402  1  0.73174001  0.58452265  0.53912936  1
  O  O403  1  0.73339934  0.58319951  0.79025691  1
  O  O404  1  0.73283092  0.91592873  0.03690646  1
  O  O405  1  0.73371927  0.91766828  0.28966541  1
  O  O406  1  0.73487858  0.91613732  0.54120209  1
  O  O407  1  0.73400946  0.91666361  0.78832098  1
  O  O408  1  0.26762056  0.08257859  0.21014677  1
  O  O409  1  0.26643673  0.08283105  0.46209052  1
  O  O410  1  0.26358206  0.08280053  0.71139591  1
  O  O411  1  0.26618401  0.08325757  0.96255494  1
  O  O412  1  0.26416620  0.41700696  0.21041317  1
  O  O413  1  0.26585765  0.41666456  0.45843001  1
  O  O414  1  0.26803514  0.41652250  0.71035619  1
  O  O415  1  0.26502714  0.41666241  0.96278126  1
  O  O416  1  0.26782027  0.74989763  0.20962342  1
  O  O417  1  0.26820860  0.75017570  0.45986697  1
  O  O418  1  0.26507839  0.75032703  0.71238345  1
  O  O419  1  0.26442785  0.75038207  0.96104223  1
  O  O420  1  0.76659765  0.08317743  0.20918502  1
  O  O421  1  0.76885765  0.08303343  0.46102777  1
  O  O422  1  0.76621554  0.08290124  0.71049012  1
  O  O423  1  0.76485198  0.08328499  0.96217361  1
  O  O424  1  0.76652545  0.41603699  0.21018804  1
  O  O425  1  0.76664557  0.41691266  0.45914649  1
  O  O426  1  0.76606687  0.41676477  0.70965851  1
  O  O427  1  0.76826803  0.41649073  0.96119128  1
  O  O428  1  0.76506540  0.75078150  0.21252736  1
  O  O429  1  0.76682429  0.75024227  0.45950618  1
  O  O430  1  0.76465892  0.75073186  0.71268317  1
  O  O431  1  0.76703217  0.75001155  0.96051320  1
  O  O432  1  0.01773984  0.08296704  0.16476924  1
  O  O433  1  0.01509136  0.08345503  0.41302760  1
  O  O434  1  0.01676539  0.08239481  0.66280699  1
  O  O435  1  0.01841052  0.08264706  0.91450114  1
  O  O436  1  0.01702130  0.41712085  0.16187503  1
  O  O437  1  0.01921906  0.41620536  0.41415330  1
  O  O438  1  0.01682310  0.41681444  0.66546343  1
  O  O439  1  0.01603448  0.41623673  0.91583826  1
  O  O440  1  0.01808351  0.75022377  0.16211835  1
  O  O441  1  0.01659952  0.75019461  0.41567350  1
  O  O442  1  0.01544729  0.75064248  0.66263305  1
  O  O443  1  0.01749676  0.75065205  0.91489917  1
  O  O444  1  0.51583350  0.08310709  0.16288601  1
  O  O445  1  0.51429841  0.08324132  0.41401444  1
  O  O446  1  0.51505371  0.08311539  0.66343113  1
  O  O447  1  0.51517028  0.08308372  0.91496107  1
  O  O448  1  0.51562993  0.41680417  0.16591187  1
  O  O449  1  0.51571370  0.41699033  0.41481836  1
  O  O450  1  0.51519486  0.41722008  0.66597346  1
  O  O451  1  0.51497071  0.41690964  0.91368525  1
  O  O452  1  0.51461953  0.75055363  0.16566756  1
  O  O453  1  0.51497383  0.75017729  0.41348842  1
  O  O454  1  0.51450493  0.74957902  0.66277677  1
  O  O455  1  0.51711491  0.75049687  0.91514897  1
  O  O456  1  0.48356231  0.24942684  0.08712553  1
  O  O457  1  0.48414032  0.24932875  0.33463838  1
  O  O458  1  0.48404729  0.25026146  0.58720383  1
  O  O459  1  0.48514736  0.24934895  0.83704419  1
  O  O460  1  0.48073863  0.58354490  0.08589109  1
  O  O461  1  0.48230466  0.58440980  0.33801176  1
  O  O462  1  0.48173716  0.58336712  0.58503473  1
  O  O463  1  0.48172832  0.58416767  0.83617459  1
  O  O464  1  0.48199121  0.91726218  0.08549619  1
  O  O465  1  0.48122741  0.91643766  0.33629563  1
  O  O466  1  0.48403275  0.91654513  0.58709626  1
  O  O467  1  0.48330269  0.91647373  0.83684012  1
  O  O468  1  0.98331603  0.24943019  0.08745195  1
  O  O469  1  0.98489528  0.25051802  0.33364173  1
  O  O470  1  0.98342355  0.24913273  0.58726786  1
  O  O471  1  0.98440642  0.24904640  0.83459326  1
  O  O472  1  0.98474842  0.58340919  0.08702211  1
  O  O473  1  0.98634055  0.58378647  0.33609450  1
  O  O474  1  0.98484624  0.58308344  0.58415664  1
  O  O475  1  0.98463764  0.58462780  0.83672323  1
  O  O476  1  0.98526267  0.91697781  0.08483733  1
  O  O477  1  0.98506104  0.91606360  0.33687834  1
  O  O478  1  0.98411192  0.91703645  0.58653925  1
  O  O479  1  0.98413266  0.91635900  0.83683370  1
  O  O480  1  0.08691491  0.31437985  0.07814477  1
  O  O481  1  0.08900883  0.31549851  0.32716521  1
  O  O482  1  0.08710954  0.31381792  0.57781797  1
  O  O483  1  0.08839361  0.31377035  0.82693848  1
  O  O484  1  0.08841034  0.64871197  0.07734901  1
  O  O485  1  0.09053914  0.64748711  0.32663385  1
  O  O486  1  0.08859301  0.64851344  0.57653596  1
  O  O487  1  0.08826396  0.64963035  0.82885582  1
  O  O488  1  0.08910224  0.98213404  0.07772179  1
  O  O489  1  0.08843548  0.98131782  0.32793035  1
  O  O490  1  0.08778561  0.98253751  0.57728538  1
  O  O491  1  0.08779245  0.98142920  0.82759575  1
  O  O492  1  0.58751592  0.31381097  0.07705785  1
  O  O493  1  0.58822634  0.31420102  0.32669706  1
  O  O494  1  0.58757857  0.31519089  0.57800067  1
  O  O495  1  0.58857093  0.31514914  0.82756082  1
  O  O496  1  0.58468404  0.64838873  0.07753566  1
  O  O497  1  0.58571411  0.64990517  0.32795545  1
  O  O498  1  0.58564071  0.64831920  0.57597343  1
  O  O499  1  0.58526755  0.64965185  0.82791131  1
  O  O500  1  0.58601088  0.98269939  0.07705698  1
  O  O501  1  0.58502633  0.98094349  0.32744678  1
  O  O502  1  0.58741423  0.98173133  0.57707767  1
  O  O503  1  0.58740488  0.98057371  0.82703833  1
  O  O504  1  0.41184678  0.01849564  0.17177620  1
  O  O505  1  0.41080869  0.01733611  0.42215297  1
  O  O506  1  0.41135337  0.01843970  0.67264286  1
  O  O507  1  0.41167747  0.01701130  0.92266445  1
  O  O508  1  0.41229545  0.35083404  0.17225458  1
  O  O509  1  0.41224661  0.35188803  0.42237500  1
  O  O510  1  0.41111060  0.35277073  0.67387357  1
  O  O511  1  0.41152852  0.35192380  0.92246763  1
  O  O512  1  0.41076192  0.68535680  0.17257264  1
  O  O513  1  0.41096528  0.68550876  0.42237433  1
  O  O514  1  0.41105203  0.68409938  0.67118066  1
  O  O515  1  0.41296336  0.68583826  0.92219875  1
  O  O516  1  0.91340947  0.01876426  0.17303501  1
  O  O517  1  0.91150551  0.01844681  0.42258437  1
  O  O518  1  0.91323320  0.01752592  0.67192286  1
  O  O519  1  0.91482142  0.01683000  0.92282214  1
  O  O520  1  0.91379769  0.35151005  0.17211417  1
  O  O521  1  0.91507188  0.35189208  0.42211771  1
  O  O522  1  0.91336233  0.35098479  0.67204225  1
  O  O523  1  0.91195261  0.35153809  0.92331304  1
  O  O524  1  0.91471654  0.68454142  0.17200299  1
  O  O525  1  0.91283795  0.68477246  0.42322716  1
  O  O526  1  0.91197175  0.68578451  0.67220434  1
  O  O527  1  0.91312162  0.68674661  0.92375784  1
  O  O528  1  0.16324337  0.01884633  0.20155793  1
  O  O529  1  0.16335207  0.01694348  0.45274744  1
  O  O530  1  0.15984335  0.01797896  0.70320515  1
  O  O531  1  0.16285362  0.01713494  0.95297146  1
  O  O532  1  0.16043554  0.35173178  0.20246498  1
  O  O533  1  0.16138608  0.35295500  0.45172753  1
  O  O534  1  0.16445123  0.35071512  0.70286299  1
  O  O535  1  0.16136218  0.35241720  0.95359178  1
  O  O536  1  0.16388715  0.68441421  0.20163861  1
  O  O537  1  0.16449631  0.68532635  0.45245706  1
  O  O538  1  0.16136512  0.68623583  0.70332974  1
  O  O539  1  0.16086343  0.68505622  0.95279629  1
  O  O540  1  0.66215866  0.01893880  0.20133847  1
  O  O541  1  0.66507572  0.01793835  0.45193285  1
  O  O542  1  0.66272750  0.01741327  0.70304238  1
  O  O543  1  0.66135843  0.01802692  0.95352739  1
  O  O544  1  0.66286473  0.35057819  0.20254165  1
  O  O545  1  0.66255984  0.35268772  0.45254127  1
  O  O546  1  0.66270692  0.35080930  0.70292003  1
  O  O547  1  0.66427499  0.35139237  0.95324806  1
  O  O548  1  0.66172761  0.68545385  0.20247455  1
  O  O549  1  0.66276992  0.68463573  0.45173006  1
  O  O550  1  0.66103706  0.68613821  0.70311540  1
  O  O551  1  0.66277121  0.68541767  0.95224230  1
  O  O552  1  0.33823575  0.31367127  0.04880264  1
  O  O553  1  0.33604081  0.31405161  0.29709684  1
  O  O554  1  0.33718593  0.31399021  0.54726376  1
  O  O555  1  0.33515726  0.31549424  0.79800072  1
  O  O556  1  0.33705157  0.64869843  0.04758898  1
  O  O557  1  0.33715013  0.64921781  0.29685061  1
  O  O558  1  0.33719504  0.64951773  0.54711516  1
  O  O559  1  0.33917307  0.64725538  0.79816683  1
  O  O560  1  0.33697735  0.98255077  0.04722608  1
  O  O561  1  0.33982028  0.98182049  0.29639447  1
  O  O562  1  0.33655010  0.98175321  0.54717247  1
  O  O563  1  0.33622197  0.98173190  0.79877821  1
  O  O564  1  0.83702387  0.31541671  0.04800216  1
  O  O565  1  0.83705582  0.31359295  0.29719390  1
  O  O566  1  0.83957013  0.31416898  0.54778044  1
  O  O567  1  0.83684145  0.31451243  0.79740547  1
  O  O568  1  0.83881992  0.64944925  0.04792734  1
  O  O569  1  0.83851213  0.64852714  0.29711602  1
  O  O570  1  0.83546552  0.64985942  0.54695136  1
  O  O571  1  0.83683208  0.64877846  0.79813753  1
  O  O572  1  0.83664431  0.98040119  0.04715773  1
  O  O573  1  0.83743686  0.98310487  0.29598531  1
  O  O574  1  0.83896723  0.98104821  0.54794317  1
  O  O575  1  0.83767695  0.98189259  0.79874158  1
  O  O576  1  0.41227274  0.14849934  0.17232617  1
  O  O577  1  0.41015941  0.14738646  0.42279997  1
  O  O578  1  0.41167296  0.14844468  0.67286780  1
  O  O579  1  0.41089290  0.14699452  0.92327599  1
  O  O580  1  0.41139406  0.48114438  0.17176167  1
  O  O581  1  0.41196248  0.48218823  0.42180618  1
  O  O582  1  0.41142816  0.48279530  0.67225758  1
  O  O583  1  0.41129833  0.48213075  0.92145997  1
  O  O584  1  0.41071471  0.81552922  0.17217450  1
  O  O585  1  0.41135223  0.81550930  0.42244042  1
  O  O586  1  0.41097245  0.81417533  0.67242585  1
  O  O587  1  0.41333064  0.81575096  0.92230329  1
  O  O588  1  0.91376207  0.14867234  0.17287977  1
  O  O589  1  0.91154252  0.14845352  0.42219435  1
  O  O590  1  0.91339133  0.14770448  0.67221472  1
  O  O591  1  0.91422579  0.14675799  0.92278223  1
  O  O592  1  0.91359512  0.48188823  0.17188393  1
  O  O593  1  0.91577469  0.48186204  0.42276850  1
  O  O594  1  0.91290452  0.48132443  0.67220684  1
  O  O595  1  0.91226304  0.48156255  0.92356655  1
  O  O596  1  0.91429086  0.81466527  0.17228338  1
  O  O597  1  0.91226391  0.81455725  0.42321444  1
  O  O598  1  0.91217481  0.81608822  0.67149645  1
  O  O599  1  0.91390085  0.81655805  0.92345084  1
  O  O600  1  0.08686522  0.18422861  0.07827298  1
  O  O601  1  0.08877283  0.18553786  0.32624198  1
  O  O602  1  0.08676004  0.18369727  0.57811774  1
  O  O603  1  0.08824841  0.18372306  0.82785268  1
  O  O604  1  0.08855010  0.51866039  0.07762937  1
  O  O605  1  0.08944424  0.51746323  0.32753152  1
  O  O606  1  0.08923152  0.51870325  0.57717109  1
  O  O607  1  0.08797004  0.51941909  0.82805709  1
  O  O608  1  0.08932018  0.85211917  0.07747810  1
  O  O609  1  0.08876293  0.85134868  0.32785748  1
  O  O610  1  0.08813970  0.85269180  0.57660516  1
  O  O611  1  0.08777100  0.85133832  0.82774453  1
  O  O612  1  0.58708926  0.18374418  0.07755115  1
  O  O613  1  0.58799842  0.18422383  0.32684572  1
  O  O614  1  0.58742997  0.18509984  0.57725776  1
  O  O615  1  0.58910884  0.18509920  0.82764865  1
  O  O616  1  0.58457094  0.51843320  0.07714931  1
  O  O617  1  0.58603118  0.51979843  0.32735809  1
  O  O618  1  0.58576467  0.51843360  0.57631382  1
  O  O619  1  0.58543881  0.51944684  0.82742947  1
  O  O620  1  0.58618882  0.85284698  0.07686252  1
  O  O621  1  0.58471596  0.85080707  0.32779126  1
  O  O622  1  0.58752970  0.85171481  0.57767028  1
  O  O623  1  0.58692278  0.85058140  0.82774463  1
  O  O624  1  0.33815700  0.18371799  0.04789322  1
  O  O625  1  0.33615742  0.18392999  0.29639022  1
  O  O626  1  0.33654434  0.18385120  0.54744435  1
  O  O627  1  0.33544292  0.18544851  0.79824798  1
  O  O628  1  0.33661581  0.51880216  0.04798656  1
  O  O629  1  0.33758754  0.51922214  0.29752445  1
  O  O630  1  0.33769996  0.51947524  0.54744564  1
  O  O631  1  0.33863776  0.51715408  0.79721626  1
  O  O632  1  0.33782018  0.85266446  0.04739737  1
  O  O633  1  0.33929161  0.85159915  0.29638202  1
  O  O634  1  0.33678996  0.85158592  0.54694787  1
  O  O635  1  0.33546353  0.85194305  0.79935458  1
  O  O636  1  0.83737474  0.18546995  0.04838741  1
  O  O637  1  0.83696311  0.18347432  0.29583950  1
  O  O638  1  0.83891901  0.18407556  0.54746112  1
  O  O639  1  0.83656556  0.18447959  0.79799205  1
  O  O640  1  0.83908628  0.51919162  0.04806811  1
  O  O641  1  0.83842502  0.51836751  0.29715306  1
  O  O642  1  0.83573789  0.51972045  0.54730486  1
  O  O643  1  0.83757812  0.51881641  0.79750717  1
  O  O644  1  0.83632811  0.85029976  0.04687040  1
  O  O645  1  0.83758734  0.85305297  0.29718526  1
  O  O646  1  0.83864957  0.85089409  0.54773586  1
  O  O647  1  0.83800397  0.85208602  0.79864726  1
  O  O648  1  0.16387719  0.14860205  0.20136872  1
  O  O649  1  0.16263757  0.14705751  0.45275952  1
  O  O650  1  0.16000891  0.14814688  0.70330870  1
  O  O651  1  0.16195447  0.14705694  0.95262048  1
  O  O652  1  0.16039797  0.48189216  0.20274793  1
  O  O653  1  0.16262313  0.48304563  0.45219249  1
  O  O654  1  0.16418051  0.48081037  0.70251977  1
  O  O655  1  0.16206188  0.48272739  0.95346052  1
  O  O656  1  0.16366567  0.81431866  0.20134168  1
  O  O657  1  0.16462246  0.81538873  0.45231607  1
  O  O658  1  0.16204583  0.81644358  0.70364905  1
  O  O659  1  0.16057743  0.81515210  0.95317640  1
  O  O660  1  0.66261171  0.14873473  0.20173207  1
  O  O661  1  0.66498057  0.14790434  0.45225608  1
  O  O662  1  0.66240490  0.14772632  0.70295711  1
  O  O663  1  0.66135479  0.14834199  0.95398311  1
  O  O664  1  0.66270141  0.48080745  0.20185200  1
  O  O665  1  0.66315499  0.48298910  0.45246110  1
  O  O666  1  0.66202590  0.48104733  0.70271981  1
  O  O667  1  0.66445664  0.48157695  0.95274395  1
  O  O668  1  0.66147256  0.81559865  0.20279214  1
  O  O669  1  0.66249537  0.81453560  0.45144603  1
  O  O670  1  0.66140859  0.81635710  0.70382158  1
  O  O671  1  0.66290128  0.81532908  0.95221627  1
