# generated using pymatgen
data_Na2MnFe(PO4)2
_symmetry_space_group_name_H-M   'P 1'
_cell_length_a   21.09201171
_cell_length_b   18.94607857
_cell_length_c   20.05006732
_cell_angle_alpha   89.99891233
_cell_angle_beta   89.99727120
_cell_angle_gamma   90.00185765
_symmetry_Int_Tables_number   1
_chemical_formula_structural   Na2MnFe(PO4)2
_chemical_formula_sum   'Na96 Mn48 Fe48 P96 O384'
_cell_volume   8012.22565025
_cell_formula_units_Z   48
loop_
 _symmetry_equiv_pos_site_id
 _symmetry_equiv_pos_as_xyz
  1  'x, y, z'
loop_
 _atom_site_type_symbol
 _atom_site_label
 _atom_site_symmetry_multiplicity
 _atom_site_fract_x
 _atom_site_fract_y
 _atom_site_fract_z
 _atom_site_occupancy
  Na  Na0  1  0.00021307  0.00023613  -0.00068608  1
  Na  Na1  1  -0.00125493  -0.00124380  0.24991145  1
  Na  Na2  1  0.00031875  0.00004248  0.50130651  1
  Na  Na3  1  0.00012313  -0.00022524  0.75012156  1
  Na  Na4  1  -0.00130681  0.33308090  0.00111041  1
  Na  Na5  1  0.00165006  0.33369112  0.25062638  1
  Na  Na6  1  0.00145918  0.33337664  0.49916271  1
  Na  Na7  1  -0.00029945  0.33302897  0.74980916  1
  Na  Na8  1  -0.00208953  0.66670785  -0.00102307  1
  Na  Na9  1  -0.00168028  0.66705448  0.24973713  1
  Na  Na10  1  -0.00074261  0.66715556  0.50083823  1
  Na  Na11  1  -0.00175497  0.66590179  0.74944649  1
  Na  Na12  1  0.50255798  0.00020895  -0.00117223  1
  Na  Na13  1  0.50069474  0.00022878  0.24978807  1
  Na  Na14  1  0.49972846  0.00029916  0.50137400  1
  Na  Na15  1  0.50176075  0.00059198  0.74945939  1
  Na  Na16  1  0.49886996  0.33310632  -0.00034343  1
  Na  Na17  1  0.50166399  0.33449873  0.24903530  1
  Na  Na18  1  0.49892337  0.33322509  0.50077382  1
  Na  Na19  1  0.49858032  0.33379593  0.75048463  1
  Na  Na20  1  0.50151927  0.66663524  -0.00045999  1
  Na  Na21  1  0.50147814  0.66726689  0.25007030  1
  Na  Na22  1  0.49834894  0.66634321  0.50051894  1
  Na  Na23  1  0.49913958  0.66633211  0.75032611  1
  Na  Na24  1  0.24824226  -0.00026215  0.12573943  1
  Na  Na25  1  0.25158240  0.00049657  0.37461477  1
  Na  Na26  1  0.25056675  -0.00012300  0.62473520  1
  Na  Na27  1  0.24745041  -0.00079850  0.87490521  1
  Na  Na28  1  0.24830706  0.33313213  0.12456939  1
  Na  Na29  1  0.25037500  0.33323571  0.37447193  1
  Na  Na30  1  0.25124148  0.33376916  0.62549049  1
  Na  Na31  1  0.25059173  0.33456656  0.87565616  1
  Na  Na32  1  0.24973500  0.66721146  0.12442601  1
  Na  Na33  1  0.25050882  0.66729164  0.37421151  1
  Na  Na34  1  0.25031899  0.66684801  0.62499335  1
  Na  Na35  1  0.25050854  0.66728748  0.87671547  1
  Na  Na36  1  0.74978934  -0.00024879  0.12541041  1
  Na  Na37  1  0.74923756  -0.00019662  0.37428997  1
  Na  Na38  1  0.74899130  -0.00005427  0.62401440  1
  Na  Na39  1  0.74997853  0.00037025  0.87585993  1
  Na  Na40  1  0.74993948  0.33321595  0.12548504  1
  Na  Na41  1  0.74790299  0.33273384  0.37397885  1
  Na  Na42  1  0.74951695  0.33312017  0.62517024  1
  Na  Na43  1  0.75291870  0.33440356  0.87602320  1
  Na  Na44  1  0.75062915  0.66625782  0.12441460  1
  Na  Na45  1  0.75060175  0.66650896  0.37399632  1
  Na  Na46  1  0.75150955  0.66709658  0.62427930  1
  Na  Na47  1  0.75266506  0.66724077  0.87635578  1
  Na  Na48  1  -0.00100858  0.16732767  0.00024196  1
  Na  Na49  1  0.00203275  0.16618229  0.25099685  1
  Na  Na50  1  0.00202373  0.16621812  0.49953142  1
  Na  Na51  1  -0.00131427  0.16728362  0.75005301  1
  Na  Na52  1  -0.00118912  0.50042017  0.00017956  1
  Na  Na53  1  -0.00116002  0.50042208  0.24997596  1
  Na  Na54  1  -0.00111673  0.50115692  0.50073614  1
  Na  Na55  1  0.00125119  0.49938656  0.74947384  1
  Na  Na56  1  -0.00232097  0.83378768  -0.00129399  1
  Na  Na57  1  -0.00089388  0.83263669  0.24984728  1
  Na  Na58  1  -0.00151818  0.83381411  0.50063375  1
  Na  Na59  1  -0.00104848  0.83352246  0.75017927  1
  Na  Na60  1  0.50281748  0.16524605  -0.00033070  1
  Na  Na61  1  0.50160803  0.16610231  0.24940236  1
  Na  Na62  1  0.49901179  0.16656644  0.50044959  1
  Na  Na63  1  0.49991063  0.16581060  0.75012781  1
  Na  Na64  1  0.50122936  0.50030504  -0.00007666  1
  Na  Na65  1  0.50325069  0.49931537  0.24864843  1
  Na  Na66  1  0.50015972  0.49988694  0.50110212  1
  Na  Na67  1  0.49950137  0.50046507  0.75021924  1
  Na  Na68  1  0.50104404  0.83223822  -0.00117876  1
  Na  Na69  1  0.49816695  0.83356078  0.25065182  1
  Na  Na70  1  0.49748339  0.83396928  0.50109607  1
  Na  Na71  1  0.50016617  0.83294069  0.74964390  1
  Na  Na72  1  0.24950877  0.16646077  0.12525376  1
  Na  Na73  1  0.24928489  0.16743070  0.37468647  1
  Na  Na74  1  0.25058345  0.16583401  0.62467367  1
  Na  Na75  1  0.24877838  0.16655509  0.87518119  1
  Na  Na76  1  0.24881964  0.50015986  0.12398015  1
  Na  Na77  1  0.25152048  0.49960721  0.37416842  1
  Na  Na78  1  0.25150625  0.49966717  0.62602598  1
  Na  Na79  1  0.25026350  0.49965070  0.87620909  1
  Na  Na80  1  0.24825249  0.83331593  0.12546457  1
  Na  Na81  1  0.25148874  0.83224283  0.37448314  1
  Na  Na82  1  0.25098734  0.83276415  0.62412102  1
  Na  Na83  1  0.24881772  0.83329962  0.87618450  1
  Na  Na84  1  0.74923312  0.16675200  0.12489884  1
  Na  Na85  1  0.74685914  0.16721341  0.37427659  1
  Na  Na86  1  0.74992166  0.16572339  0.62524324  1
  Na  Na87  1  0.75094329  0.16617088  0.87593433  1
  Na  Na88  1  0.74906609  0.50066751  0.12563879  1
  Na  Na89  1  0.74848181  0.50060602  0.37370120  1
  Na  Na90  1  0.74903811  0.50073088  0.62383337  1
  Na  Na91  1  0.75063748  0.50032194  0.87583562  1
  Na  Na92  1  0.75251952  0.83275239  0.12463211  1
  Na  Na93  1  0.75309176  0.83248555  0.37404760  1
  Na  Na94  1  0.75124771  0.83369536  0.62438587  1
  Na  Na95  1  0.75295613  0.83263460  0.87638544  1
  Mn  Mn96  1  0.14123013  0.24952359  0.99781629  1
  Mn  Mn97  1  0.64217950  0.58395307  0.49744860  1
  Mn  Mn98  1  0.89196509  0.58265960  0.62766812  1
  Mn  Mn99  1  0.39211839  0.91642660  0.87712527  1
  Mn  Mn100  1  0.10790880  0.74997374  0.62339954  1
  Mn  Mn101  1  0.14220043  0.25001472  0.74801200  1
  Mn  Mn102  1  0.85726727  0.08336860  0.25276312  1
  Mn  Mn103  1  0.64329944  0.25087631  0.99746805  1
  Mn  Mn104  1  0.85817746  0.41668939  0.75261299  1
  Mn  Mn105  1  0.39210506  0.91679030  0.62806677  1
  Mn  Mn106  1  0.85760891  0.08357998  0.50148634  1
  Mn  Mn107  1  0.39219505  0.91645743  0.12631159  1
  Mn  Mn108  1  0.14295178  0.91666025  0.49716887  1
  Mn  Mn109  1  0.10715159  0.08283064  0.12274222  1
  Mn  Mn110  1  0.14185720  0.91664874  0.24834356  1
  Mn  Mn111  1  0.35740061  0.75040613  0.00282953  1
  Mn  Mn112  1  0.85818594  0.08365048  0.00257490  1
  Mn  Mn113  1  0.10908467  0.41647443  0.62259241  1
  Mn  Mn114  1  0.14140723  0.58299868  0.24764044  1
  Mn  Mn115  1  0.35739972  0.08329989  0.00174663  1
  Mn  Mn116  1  0.60765479  0.75034188  0.37254695  1
  Mn  Mn117  1  0.39301686  0.24979925  0.12706316  1
  Mn  Mn118  1  0.10843041  0.41748846  0.37274817  1
  Mn  Mn119  1  0.60869752  0.75008516  0.87208976  1
  Mn  Mn120  1  0.64292536  0.25007988  0.74809584  1
  Mn  Mn121  1  0.39360902  0.58372688  0.12687876  1
  Mn  Mn122  1  0.64082895  0.25015728  0.49740827  1
  Mn  Mn123  1  0.39153907  0.58347754  0.62800174  1
  Mn  Mn124  1  0.10828329  0.08356110  0.62311870  1
  Mn  Mn125  1  0.89219196  0.25001126  0.62642484  1
  Mn  Mn126  1  0.60789640  0.41636474  0.87292107  1
  Mn  Mn127  1  0.60824926  0.75035136  0.62312188  1
  Mn  Mn128  1  0.39207616  0.25001353  0.87771979  1
  Mn  Mn129  1  0.14119426  0.58355057  0.99771975  1
  Mn  Mn130  1  0.39140682  0.24965298  0.62761638  1
  Mn  Mn131  1  0.64224361  0.91590633  0.49717577  1
  Mn  Mn132  1  0.14270669  0.58305352  0.49726513  1
  Mn  Mn133  1  0.64320585  0.91579598  0.99782131  1
  Mn  Mn134  1  0.89184965  0.91744258  0.62780427  1
  Mn  Mn135  1  0.64214594  0.91579534  0.24781503  1
  Mn  Mn136  1  0.35822298  0.08325471  0.25222886  1
  Mn  Mn137  1  0.35825517  0.41702464  0.25135976  1
  Mn  Mn138  1  0.89250251  0.24965923  0.37723730  1
  Mn  Mn139  1  0.85695885  0.41661972  0.25244895  1
  Mn  Mn140  1  0.60741712  0.41612316  0.62336140  1
  Mn  Mn141  1  0.85734871  0.41632878  0.50151938  1
  Mn  Mn142  1  0.10640988  0.74950759  0.87217676  1
  Mn  Mn143  1  0.39283265  0.58305752  0.37668587  1
  Fe  Fe144  1  0.14383964  0.25000043  0.49819944  1
  Fe  Fe145  1  0.64378436  0.91605823  0.74901740  1
  Fe  Fe146  1  0.85820155  0.41714512  0.00253630  1
  Fe  Fe147  1  0.60627326  0.08352304  0.37374996  1
  Fe  Fe148  1  0.10677544  0.75028582  0.37323748  1
  Fe  Fe149  1  0.35717072  0.08268828  0.75248455  1
  Fe  Fe150  1  0.60729235  0.08351247  0.62360227  1
  Fe  Fe151  1  0.85701785  0.08282828  0.75195692  1
  Fe  Fe152  1  0.35758110  0.08347765  0.50127985  1
  Fe  Fe153  1  0.14091380  0.91653866  0.99831782  1
  Fe  Fe154  1  0.60802178  0.41686185  0.12194024  1
  Fe  Fe155  1  0.35664258  0.41672354  0.00206001  1
  Fe  Fe156  1  0.64320241  0.58389404  0.24779868  1
  Fe  Fe157  1  0.35691955  0.74997967  0.75204102  1
  Fe  Fe158  1  0.10660707  0.41653911  0.87389957  1
  Fe  Fe159  1  0.89243321  0.58320070  0.12692439  1
  Fe  Fe160  1  0.39251721  0.91726105  0.37665525  1
  Fe  Fe161  1  0.64316149  0.58403988  0.74922322  1
  Fe  Fe162  1  0.89311619  0.91683406  0.37656340  1
  Fe  Fe163  1  0.64431149  0.58341532  0.99781361  1
  Fe  Fe164  1  0.35715691  0.74962061  0.50144192  1
  Fe  Fe165  1  0.64143042  0.25023039  0.24781761  1
  Fe  Fe166  1  0.85771412  0.74945534  0.00241893  1
  Fe  Fe167  1  0.35816125  0.41667651  0.50102929  1
  Fe  Fe168  1  0.85798867  0.74991831  0.50118842  1
  Fe  Fe169  1  0.60825149  0.75036203  0.12365825  1
  Fe  Fe170  1  0.10601432  0.74967157  0.12371791  1
  Fe  Fe171  1  0.89284305  0.25012795  0.87670227  1
  Fe  Fe172  1  0.60688428  0.41613964  0.37350602  1
  Fe  Fe173  1  0.60771314  0.08268267  0.12319655  1
  Fe  Fe174  1  0.10823751  0.08243265  0.37368592  1
  Fe  Fe175  1  0.85772082  0.74990512  0.25183822  1
  Fe  Fe176  1  0.39274126  0.24989483  0.37588112  1
  Fe  Fe177  1  0.35683297  0.41727813  0.75299406  1
  Fe  Fe178  1  0.60803299  0.08308558  0.87222408  1
  Fe  Fe179  1  0.89264211  0.91732600  0.87634802  1
  Fe  Fe180  1  0.14300304  0.58390906  0.74949292  1
  Fe  Fe181  1  0.85725196  0.75044869  0.75148619  1
  Fe  Fe182  1  0.89228344  0.58234524  0.87638295  1
  Fe  Fe183  1  0.10619751  0.41722698  0.12338553  1
  Fe  Fe184  1  0.89296973  0.91698071  0.12678973  1
  Fe  Fe185  1  0.14252355  0.91590694  0.74886997  1
  Fe  Fe186  1  0.35734712  0.74978891  0.25146383  1
  Fe  Fe187  1  0.89227246  0.58363049  0.37648949  1
  Fe  Fe188  1  0.14291223  0.25030950  0.24854244  1
  Fe  Fe189  1  0.39263050  0.58348877  0.87688715  1
  Fe  Fe190  1  0.10642147  0.08379587  0.87281708  1
  Fe  Fe191  1  0.89296353  0.24996701  0.12796679  1
  P  P192  1  0.05316307  0.25068939  0.11172256  1
  P  P193  1  0.05604761  0.24925570  0.36080348  1
  P  P194  1  0.05458011  0.24992796  0.60895338  1
  P  P195  1  0.05198336  0.25043577  0.86043109  1
  P  P196  1  0.05148033  0.58376101  0.11021521  1
  P  P197  1  0.05174108  0.58462962  0.36021230  1
  P  P198  1  0.05499093  0.58359373  0.61119764  1
  P  P199  1  0.05191891  0.58253414  0.85960357  1
  P  P200  1  0.05220022  0.91542518  0.10960998  1
  P  P201  1  0.05230604  0.91623638  0.36050341  1
  P  P202  1  0.05482839  0.91642343  0.61122045  1
  P  P203  1  0.05332283  0.91710870  0.86049823  1
  P  P204  1  0.55524386  0.25009934  0.11049193  1
  P  P205  1  0.55213918  0.25002198  0.35952402  1
  P  P206  1  0.55298657  0.24908935  0.61066586  1
  P  P207  1  0.55355011  0.24967049  0.85987662  1
  P  P208  1  0.55670757  0.58409635  0.11021733  1
  P  P209  1  0.55418791  0.58274454  0.35930713  1
  P  P210  1  0.55460377  0.58375077  0.61148979  1
  P  P211  1  0.55423499  0.58327929  0.86055210  1
  P  P212  1  0.55372778  0.91583119  0.10976023  1
  P  P213  1  0.55178747  0.91720838  0.36040487  1
  P  P214  1  0.55519957  0.91719087  0.61160705  1
  P  P215  1  0.55454959  0.91669677  0.85888917  1
  P  P216  1  0.44814705  0.08294045  0.13939504  1
  P  P217  1  0.44701772  0.08363707  0.39004179  1
  P  P218  1  0.44558026  0.08320812  0.63994225  1
  P  P219  1  0.44700976  0.08274344  0.88890676  1
  P  P220  1  0.44749756  0.41710717  0.13823884  1
  P  P221  1  0.44760576  0.41602512  0.38989086  1
  P  P222  1  0.44425637  0.41674495  0.64018891  1
  P  P223  1  0.44455568  0.41805754  0.88989337  1
  P  P224  1  0.44790513  0.74989046  0.14025478  1
  P  P225  1  0.44507581  0.75056893  0.38953556  1
  P  P226  1  0.44481726  0.74992503  0.64011412  1
  P  P227  1  0.44542577  0.74920863  0.88886610  1
  P  P228  1  0.94636065  0.08340577  0.14032419  1
  P  P229  1  0.94834024  0.08267273  0.38993186  1
  P  P230  1  0.94607875  0.08368009  0.64084471  1
  P  P231  1  0.94623182  0.08330636  0.88859071  1
  P  P232  1  0.94603797  0.41676543  0.13933946  1
  P  P233  1  0.94683167  0.41730453  0.38984226  1
  P  P234  1  0.94721764  0.41622284  0.63989363  1
  P  P235  1  0.94697226  0.41666135  0.89051069  1
  P  P236  1  0.94528036  0.74999915  0.13895900  1
  P  P237  1  0.94585528  0.75009569  0.38928320  1
  P  P238  1  0.94476523  0.75017527  0.63987598  1
  P  P239  1  0.94355371  0.74990934  0.88863815  1
  P  P240  1  0.19548754  0.08386572  0.23628413  1
  P  P241  1  0.19780863  0.08368784  0.48457027  1
  P  P242  1  0.19641613  0.08246400  0.73633278  1
  P  P243  1  0.19495059  0.08246650  0.98438073  1
  P  P244  1  0.19592939  0.41611660  0.23397265  1
  P  P245  1  0.19888100  0.41624019  0.48493447  1
  P  P246  1  0.19639511  0.41775005  0.73712741  1
  P  P247  1  0.19481695  0.41672104  0.98570336  1
  P  P248  1  0.19537112  0.74991006  0.23541993  1
  P  P249  1  0.19725085  0.74998108  0.48421872  1
  P  P250  1  0.19755694  0.74977445  0.73575521  1
  P  P251  1  0.19397284  0.75067332  0.98647335  1
  P  P252  1  0.69405050  0.08361403  0.23572953  1
  P  P253  1  0.69455627  0.08312996  0.48491449  1
  P  P254  1  0.69635321  0.08234350  0.73578656  1
  P  P255  1  0.69514265  0.08325209  0.98563627  1
  P  P256  1  0.69402428  0.41668374  0.23556420  1
  P  P257  1  0.69560893  0.41676873  0.48383168  1
  P  P258  1  0.69710109  0.41777991  0.73536070  1
  P  P259  1  0.69753758  0.41764229  0.98632798  1
  P  P260  1  0.69781864  0.74963994  0.23431786  1
  P  P261  1  0.69837028  0.75021711  0.48426869  1
  P  P262  1  0.69857007  0.75018161  0.73547278  1
  P  P263  1  0.69731772  0.74908316  0.98652561  1
  P  P264  1  0.30304506  0.25055820  0.01521330  1
  P  P265  1  0.30316317  0.25023519  0.26502828  1
  P  P266  1  0.30428461  0.24986775  0.51324643  1
  P  P267  1  0.30324012  0.24964411  0.76544712  1
  P  P268  1  0.30432207  0.58273054  0.01414828  1
  P  P269  1  0.30332910  0.58408115  0.26406555  1
  P  P270  1  0.30392219  0.58331934  0.51468071  1
  P  P271  1  0.30264662  0.58383200  0.76624624  1
  P  P272  1  0.30097591  0.91700726  0.01522283  1
  P  P273  1  0.30414091  0.91573350  0.26514063  1
  P  P274  1  0.30531791  0.91677486  0.51344064  1
  P  P275  1  0.30201745  0.91633725  0.76525733  1
  P  P276  1  0.80611667  0.25089108  0.01496894  1
  P  P277  1  0.80256617  0.24987806  0.26398920  1
  P  P278  1  0.80228324  0.24971937  0.51475627  1
  P  P279  1  0.80418756  0.24893263  0.76583241  1
  P  P280  1  0.80522748  0.58278796  0.01459847  1
  P  P281  1  0.80425043  0.58401219  0.26379040  1
  P  P282  1  0.80486111  0.58394738  0.51326071  1
  P  P283  1  0.80272349  0.58398197  0.76561063  1
  P  P284  1  0.80593392  0.91650475  0.01461136  1
  P  P285  1  0.80535301  0.91597831  0.26413125  1
  P  P286  1  0.80505777  0.91632432  0.51330430  1
  P  P287  1  0.80296181  0.91719533  0.76561438  1
  O  O288  1  0.05822456  0.25021839  0.18831996  1
  O  O289  1  0.06063670  0.25006662  0.43754284  1
  O  O290  1  0.05758362  0.24998681  0.68577112  1
  O  O291  1  0.05527546  0.25018334  0.93712119  1
  O  O292  1  0.05512446  0.58383786  0.18687277  1
  O  O293  1  0.05583210  0.58400645  0.43688280  1
  O  O294  1  0.05983122  0.58365218  0.68790423  1
  O  O295  1  0.05543156  0.58361635  0.93628242  1
  O  O296  1  0.05602680  0.91581566  0.18629497  1
  O  O297  1  0.05600610  0.91634079  0.43717987  1
  O  O298  1  0.05950974  0.91604167  0.68797314  1
  O  O299  1  0.05750732  0.91644675  0.93718073  1
  O  O300  1  0.55847859  0.25056838  0.18729173  1
  O  O301  1  0.55497121  0.25014003  0.43629695  1
  O  O302  1  0.55643748  0.24984478  0.68734765  1
  O  O303  1  0.55708268  0.25044553  0.93662758  1
  O  O304  1  0.56041860  0.58423007  0.18702658  1
  O  O305  1  0.55639770  0.58380670  0.43614775  1
  O  O306  1  0.55948554  0.58421834  0.68824410  1
  O  O307  1  0.55976883  0.58350645  0.93718568  1
  O  O308  1  0.55610519  0.91560911  0.18648100  1
  O  O309  1  0.55545374  0.91615554  0.43710355  1
  O  O310  1  0.56000530  0.91602263  0.68822281  1
  O  O311  1  0.55795847  0.91558336  0.93567813  1
  O  O312  1  0.44417052  0.08296165  0.06267136  1
  O  O313  1  0.44396840  0.08346923  0.31347481  1
  O  O314  1  0.44055254  0.08327476  0.56325606  1
  O  O315  1  0.44120923  0.08253493  0.81229583  1
  O  O316  1  0.44177303  0.41709252  0.06170201  1
  O  O317  1  0.44437054  0.41691578  0.31315734  1
  O  O318  1  0.44023148  0.41681811  0.56335595  1
  O  O319  1  0.44019827  0.41749776  0.81308664  1
  O  O320  1  0.44381219  0.74965188  0.06350317  1
  O  O321  1  0.44109708  0.74961495  0.31279321  1
  O  O322  1  0.44030744  0.74977783  0.56335813  1
  O  O323  1  0.44052025  0.74997371  0.81218072  1
  O  O324  1  0.94391733  0.08371339  0.06354272  1
  O  O325  1  0.94404975  0.08334935  0.31328611  1
  O  O326  1  0.94290571  0.08340289  0.56409149  1
  O  O327  1  0.94162926  0.08295516  0.81198435  1
  O  O328  1  0.94194474  0.41681930  0.06265057  1
  O  O329  1  0.94331599  0.41652635  0.31307772  1
  O  O330  1  0.94350615  0.41654758  0.56320335  1
  O  O331  1  0.94384464  0.41676909  0.81378245  1
  O  O332  1  0.94123710  0.74973417  0.06219615  1
  O  O333  1  0.94151574  0.74980286  0.31252369  1
  O  O334  1  0.94096981  0.75028977  0.56311152  1
  O  O335  1  0.93989122  0.75000064  0.81181592  1
  O  O336  1  0.19209326  0.08340130  0.06121497  1
  O  O337  1  0.19148907  0.08274193  0.31303525  1
  O  O338  1  0.19416176  0.08276927  0.56127355  1
  O  O339  1  0.19068896  0.08344703  0.81293902  1
  O  O340  1  0.18931267  0.41698200  0.06233723  1
  O  O341  1  0.19331548  0.41730817  0.31080017  1
  O  O342  1  0.19544123  0.41683167  0.56164259  1
  O  O343  1  0.19094891  0.41694496  0.81375077  1
  O  O344  1  0.18934272  0.74982190  0.06316966  1
  O  O345  1  0.19029007  0.74981637  0.31209528  1
  O  O346  1  0.19323027  0.75017997  0.56089080  1
  O  O347  1  0.19350243  0.74984601  0.81247206  1
  O  O348  1  0.69086394  0.08292520  0.06241345  1
  O  O349  1  0.68942273  0.08304727  0.31248191  1
  O  O350  1  0.69059222  0.08325489  0.56168765  1
  O  O351  1  0.69187503  0.08330575  0.81255323  1
  O  O352  1  0.69260440  0.41672172  0.06296420  1
  O  O353  1  0.68994687  0.41619252  0.31230057  1
  O  O354  1  0.69255841  0.41652896  0.56062610  1
  O  O355  1  0.69429665  0.41700374  0.81214520  1
  O  O356  1  0.69248376  0.75009592  0.06306590  1
  O  O357  1  0.69376790  0.75038712  0.31097617  1
  O  O358  1  0.69415885  0.75052772  0.56093180  1
  O  O359  1  0.69549856  0.75010087  0.81219536  1
  O  O360  1  0.30710986  0.24996328  0.18832169  1
  O  O361  1  0.30887857  0.24993247  0.43659426  1
  O  O362  1  0.30579208  0.24929641  0.68862641  1
  O  O363  1  0.30632290  0.24998909  0.93847218  1
  O  O364  1  0.30670142  0.58367260  0.18735805  1
  O  O365  1  0.30684618  0.58328121  0.43788272  1
  O  O366  1  0.30583275  0.58373242  0.68962151  1
  O  O367  1  0.30855283  0.58340952  0.93749201  1
  O  O368  1  0.30668573  0.91662337  0.18834783  1
  O  O369  1  0.30913356  0.91708542  0.43669887  1
  O  O370  1  0.30574584  0.91653186  0.68852844  1
  O  O371  1  0.30541562  0.91680140  0.93858498  1
  O  O372  1  0.80838487  0.24972632  0.18738051  1
  O  O373  1  0.80582220  0.24955061  0.43797592  1
  O  O374  1  0.80655352  0.24962804  0.68905364  1
  O  O375  1  0.81042870  0.25009582  0.93818190  1
  O  O376  1  0.80908122  0.58313111  0.18709803  1
  O  O377  1  0.80879384  0.58323413  0.43647819  1
  O  O378  1  0.80595671  0.58297608  0.68886476  1
  O  O379  1  0.80956841  0.58242301  0.93791577  1
  O  O380  1  0.80941827  0.91705960  0.18737073  1
  O  O381  1  0.80946605  0.91726522  0.43656373  1
  O  O382  1  0.80585343  0.91763762  0.68883832  1
  O  O383  1  0.80985844  0.91760752  0.93787228  1
  O  O384  1  0.23328373  0.25010905  0.04001888  1
  O  O385  1  0.23304596  0.25049159  0.28918487  1
  O  O386  1  0.23413043  0.24963920  0.53773713  1
  O  O387  1  0.23364588  0.25037097  0.79099819  1
  O  O388  1  0.23420717  0.58338665  0.03813653  1
  O  O389  1  0.23365793  0.58341345  0.28923649  1
  O  O390  1  0.23439282  0.58332387  0.54030663  1
  O  O391  1  0.23261862  0.58373738  0.79135322  1
  O  O392  1  0.23089346  0.91673397  0.03950928  1
  O  O393  1  0.23445984  0.91621398  0.29044020  1
  O  O394  1  0.23543347  0.91646170  0.53808598  1
  O  O395  1  0.23195455  0.91617398  0.78986839  1
  O  O396  1  0.73594307  0.25017004  0.03860555  1
  O  O397  1  0.73194161  0.25015255  0.28659682  1
  O  O398  1  0.73266471  0.24956817  0.53981851  1
  O  O399  1  0.73467223  0.25002429  0.79162328  1
  O  O400  1  0.73491033  0.58311287  0.03839806  1
  O  O401  1  0.73370147  0.58367239  0.28690779  1
  O  O402  1  0.73496218  0.58390016  0.53772473  1
  O  O403  1  0.73283453  0.58390270  0.79074031  1
  O  O404  1  0.73587213  0.91647623  0.03872038  1
  O  O405  1  0.73527673  0.91621276  0.28823505  1
  O  O406  1  0.73510859  0.91660866  0.53754631  1
  O  O407  1  0.73313450  0.91674804  0.79091947  1
  O  O408  1  0.26537886  0.08323562  0.21179104  1
  O  O409  1  0.26794367  0.08357226  0.46017535  1
  O  O410  1  0.26682573  0.08262238  0.71287520  1
  O  O411  1  0.26464037  0.08302234  0.95928160  1
  O  O412  1  0.26558136  0.41674720  0.20872247  1
  O  O413  1  0.26879549  0.41652068  0.45992773  1
  O  O414  1  0.26686603  0.41723713  0.71379267  1
  O  O415  1  0.26537146  0.41686072  0.96291491  1
  O  O416  1  0.26580461  0.75028543  0.21197425  1
  O  O417  1  0.26751878  0.74996552  0.46039357  1
  O  O418  1  0.26755339  0.74983060  0.71108285  1
  O  O419  1  0.26413148  0.75022731  0.96282213  1
  O  O420  1  0.76425991  0.08315272  0.21203075  1
  O  O421  1  0.76450031  0.08338161  0.46048954  1
  O  O422  1  0.76669577  0.08275898  0.71201473  1
  O  O423  1  0.76539483  0.08346145  0.96222997  1
  O  O424  1  0.76421751  0.41692765  0.21163515  1
  O  O425  1  0.76519277  0.41675493  0.45850476  1
  O  O426  1  0.76660935  0.41719710  0.70972649  1
  O  O427  1  0.76789678  0.41759965  0.96289239  1
  O  O428  1  0.76800961  0.74965606  0.21019246  1
  O  O429  1  0.76836832  0.74981795  0.45988671  1
  O  O430  1  0.76846564  0.75036096  0.71028114  1
  O  O431  1  0.76778676  0.74943103  0.96325807  1
  O  O432  1  0.01592008  0.08286782  0.16581610  1
  O  O433  1  0.01842933  0.08294697  0.41437456  1
  O  O434  1  0.01587679  0.08361633  0.66558780  1
  O  O435  1  0.01649029  0.08357087  0.91272102  1
  O  O436  1  0.01623149  0.41696043  0.16362237  1
  O  O437  1  0.01660978  0.41735519  0.41477359  1
  O  O438  1  0.01697298  0.41600418  0.66464180  1
  O  O439  1  0.01695608  0.41676834  0.91550420  1
  O  O440  1  0.01553896  0.74980113  0.16312163  1
  O  O441  1  0.01611868  0.75047477  0.41352068  1
  O  O442  1  0.01472230  0.74992665  0.66420038  1
  O  O443  1  0.01363535  0.75002743  0.91279638  1
  O  O444  1  0.51822152  0.08296253  0.16370308  1
  O  O445  1  0.51704051  0.08355017  0.41513475  1
  O  O446  1  0.51604457  0.08311747  0.66310116  1
  O  O447  1  0.51760112  0.08261831  0.91161542  1
  O  O448  1  0.51801681  0.41735919  0.16108042  1
  O  O449  1  0.51755046  0.41647792  0.41488198  1
  O  O450  1  0.51433020  0.41678037  0.66418746  1
  O  O451  1  0.51473826  0.41681200  0.91362002  1
  O  O452  1  0.51804606  0.75017456  0.16443815  1
  O  O453  1  0.51507997  0.74992620  0.41404383  1
  O  O454  1  0.51500122  0.74994025  0.66374246  1
  O  O455  1  0.51567322  0.74949015  0.91233942  1
  O  O456  1  0.48547471  0.24958942  0.08543271  1
  O  O457  1  0.48222488  0.24992757  0.33427119  1
  O  O458  1  0.48330120  0.24943397  0.58570950  1
  O  O459  1  0.48380622  0.24978249  0.83506558  1
  O  O460  1  0.48666127  0.58363404  0.08592441  1
  O  O461  1  0.48464118  0.58317188  0.33360910  1
  O  O462  1  0.48452530  0.58343245  0.58787479  1
  O  O463  1  0.48374692  0.58338408  0.83742971  1
  O  O464  1  0.48438639  0.91603399  0.08346068  1
  O  O465  1  0.48179564  0.91729814  0.33575169  1
  O  O466  1  0.48501570  0.91707534  0.58796236  1
  O  O467  1  0.48474076  0.91664670  0.83420287  1
  O  O468  1  0.98282802  0.25022726  0.08805205  1
  O  O469  1  0.98586794  0.24989287  0.33696629  1
  O  O470  1  0.98491214  0.24978002  0.58393268  1
  O  O471  1  0.98201373  0.25031636  0.83554462  1
  O  O472  1  0.98142816  0.58377170  0.08558701  1
  O  O473  1  0.98170944  0.58405551  0.33563991  1
  O  O474  1  0.98485617  0.58388331  0.58762488  1
  O  O475  1  0.98175949  0.58271152  0.83523339  1
  O  O476  1  0.98208000  0.91658081  0.08529080  1
  O  O477  1  0.98234996  0.91596972  0.33564678  1
  O  O478  1  0.98470793  0.91691312  0.58765508  1
  O  O479  1  0.98290428  0.91653520  0.83677982  1
  O  O480  1  0.08611095  0.31581550  0.07832520  1
  O  O481  1  0.08984770  0.31410077  0.32737884  1
  O  O482  1  0.08906329  0.31478250  0.57653162  1
  O  O483  1  0.08568961  0.31570010  0.82806614  1
  O  O484  1  0.08513118  0.64875198  0.07732204  1
  O  O485  1  0.08515419  0.64978777  0.32747125  1
  O  O486  1  0.08833520  0.64855926  0.57787526  1
  O  O487  1  0.08578990  0.64744373  0.82641623  1
  O  O488  1  0.08657245  0.98016989  0.07678024  1
  O  O489  1  0.08609315  0.98129896  0.32777674  1
  O  O490  1  0.08845461  0.98142702  0.57823090  1
  O  O491  1  0.08666960  0.98218567  0.82749000  1
  O  O492  1  0.58875129  0.31530503  0.07744411  1
  O  O493  1  0.58635702  0.31497476  0.32701438  1
  O  O494  1  0.58691483  0.31407290  0.57785878  1
  O  O495  1  0.58736611  0.31483101  0.82732749  1
  O  O496  1  0.59005778  0.64937121  0.07729518  1
  O  O497  1  0.58898220  0.64751227  0.32679905  1
  O  O498  1  0.58780750  0.64875668  0.57787481  1
  O  O499  1  0.58764220  0.64816365  0.82685106  1
  O  O500  1  0.58832074  0.98088943  0.07787954  1
  O  O501  1  0.58579753  0.98218589  0.32811822  1
  O  O502  1  0.58835753  0.98257719  0.57890276  1
  O  O503  1  0.58888478  0.98169524  0.82684872  1
  O  O504  1  0.41439832  0.01795738  0.17209638  1
  O  O505  1  0.41292648  0.01878182  0.42296759  1
  O  O506  1  0.41231019  0.01825897  0.67355418  1
  O  O507  1  0.41398663  0.01778335  0.92263218  1
  O  O508  1  0.41463318  0.35205219  0.17194864  1
  O  O509  1  0.41374125  0.35078797  0.42215109  1
  O  O510  1  0.41054267  0.35175239  0.67308664  1
  O  O511  1  0.41025572  0.35342900  0.92310529  1
  O  O512  1  0.41424333  0.68489474  0.17326444  1
  O  O513  1  0.41106960  0.68573724  0.42277691  1
  O  O514  1  0.41116440  0.68517730  0.67347518  1
  O  O515  1  0.41224500  0.68407618  0.92201824  1
  O  O516  1  0.91201642  0.01820577  0.17206423  1
  O  O517  1  0.91470934  0.01754079  0.42249112  1
  O  O518  1  0.91192327  0.01878710  0.67369573  1
  O  O519  1  0.91308820  0.01823893  0.92206159  1
  O  O520  1  0.91263371  0.35177294  0.17263263  1
  O  O521  1  0.91303947  0.35210274  0.42236685  1
  O  O522  1  0.91313419  0.35122737  0.67228953  1
  O  O523  1  0.91288705  0.35173803  0.92312181  1
  O  O524  1  0.91166623  0.68510401  0.17225275  1
  O  O525  1  0.91248205  0.68502897  0.42251796  1
  O  O526  1  0.91068416  0.68538412  0.67275287  1
  O  O527  1  0.91013584  0.68469903  0.92158151  1
  O  O528  1  0.16148680  0.01902798  0.20321933  1
  O  O529  1  0.16391403  0.01878325  0.45136267  1
  O  O530  1  0.16337279  0.01725931  0.70322535  1
  O  O531  1  0.16074957  0.01727758  0.95250673  1
  O  O532  1  0.16193456  0.35068128  0.20229927  1
  O  O533  1  0.16498018  0.35122483  0.45261456  1
  O  O534  1  0.16334452  0.35282554  0.70324947  1
  O  O535  1  0.16177435  0.35167554  0.95212002  1
  O  O536  1  0.16207706  0.68494842  0.20184018  1
  O  O537  1  0.16348767  0.68502897  0.45129668  1
  O  O538  1  0.16392391  0.68453757  0.70325206  1
  O  O539  1  0.16050382  0.68580183  0.95284967  1
  O  O540  1  0.66057794  0.01854059  0.20239155  1
  O  O541  1  0.66092192  0.01811994  0.45182646  1
  O  O542  1  0.66313269  0.01712078  0.70288862  1
  O  O543  1  0.66184758  0.01824437  0.95230799  1
  O  O544  1  0.66061045  0.35173767  0.20211058  1
  O  O545  1  0.66118265  0.35183355  0.45139858  1
  O  O546  1  0.66263127  0.35280076  0.70302048  1
  O  O547  1  0.66441373  0.35276664  0.95248891  1
  O  O548  1  0.66391666  0.68469969  0.20169451  1
  O  O549  1  0.66430576  0.68534674  0.45163151  1
  O  O550  1  0.66467163  0.68512250  0.70293462  1
  O  O551  1  0.66446440  0.68384181  0.95317642  1
  O  O552  1  0.33691361  0.31582614  0.04742515  1
  O  O553  1  0.33717726  0.31526140  0.29760367  1
  O  O554  1  0.33756863  0.31496962  0.54644092  1
  O  O555  1  0.33775261  0.31467718  0.79729254  1
  O  O556  1  0.33812377  0.64756669  0.04738787  1
  O  O557  1  0.33710632  0.64929837  0.29641428  1
  O  O558  1  0.33790813  0.64855998  0.54697482  1
  O  O559  1  0.33669701  0.64890344  0.79876504  1
  O  O560  1  0.33464315  0.98213922  0.04788774  1
  O  O561  1  0.33876765  0.98046138  0.29772942  1
  O  O562  1  0.33867704  0.98198325  0.54649271  1
  O  O563  1  0.33575218  0.98138014  0.79809571  1
  O  O564  1  0.83915671  0.31623680  0.04786964  1
  O  O565  1  0.83570618  0.31484403  0.29745706  1
  O  O566  1  0.83623787  0.31485976  0.54712273  1
  O  O567  1  0.83922872  0.31356601  0.79825070  1
  O  O568  1  0.83874775  0.64788578  0.04763971  1
  O  O569  1  0.83740705  0.64926101  0.29674167  1
  O  O570  1  0.83853528  0.64909471  0.54586380  1
  O  O571  1  0.83688496  0.64899364  0.79773801  1
  O  O572  1  0.83944412  0.98138418  0.04812435  1
  O  O573  1  0.83911432  0.98061386  0.29786796  1
  O  O574  1  0.83851538  0.98121370  0.54682104  1
  O  O575  1  0.83700779  0.98218826  0.79839606  1
  O  O576  1  0.41446956  0.14788610  0.17234651  1
  O  O577  1  0.41317411  0.14889596  0.42253129  1
  O  O578  1  0.41216272  0.14804652  0.67337853  1
  O  O579  1  0.41418401  0.14785173  0.92254332  1
  O  O580  1  0.41455102  0.48201471  0.17210636  1
  O  O581  1  0.41339923  0.48082595  0.42288541  1
  O  O582  1  0.41059697  0.48160632  0.67340925  1
  O  O583  1  0.41173384  0.48347578  0.92288260  1
  O  O584  1  0.41358948  0.81474828  0.17265896  1
  O  O585  1  0.41168619  0.81588368  0.42216996  1
  O  O586  1  0.41125570  0.81494651  0.67330798  1
  O  O587  1  0.41211383  0.81425071  0.92239669  1
  O  O588  1  0.91244932  0.14844320  0.17298170  1
  O  O589  1  0.91452071  0.14769050  0.42281284  1
  O  O590  1  0.91182772  0.14860422  0.67314895  1
  O  O591  1  0.91282134  0.14832817  0.92182791  1
  O  O592  1  0.91252322  0.48192283  0.17215607  1
  O  O593  1  0.91280740  0.48247069  0.42181213  1
  O  O594  1  0.91345188  0.48123541  0.67281131  1
  O  O595  1  0.91289941  0.48175967  0.92303254  1
  O  O596  1  0.91203948  0.81519456  0.17199827  1
  O  O597  1  0.91214001  0.81512028  0.42222598  1
  O  O598  1  0.91110348  0.81518661  0.67292004  1
  O  O599  1  0.90990953  0.81490368  0.92164523  1
  O  O600  1  0.08640293  0.18569687  0.07814210  1
  O  O601  1  0.08926649  0.18394574  0.32798398  1
  O  O602  1  0.08900180  0.18493994  0.57675585  1
  O  O603  1  0.08594411  0.18554967  0.82760528  1
  O  O604  1  0.08525382  0.51866773  0.07760807  1
  O  O605  1  0.08578904  0.51970440  0.32736796  1
  O  O606  1  0.08815133  0.51845789  0.57785330  1
  O  O607  1  0.08598766  0.51744625  0.82751953  1
  O  O608  1  0.08531992  0.85017343  0.07671409  1
  O  O609  1  0.08607368  0.85121105  0.32770310  1
  O  O610  1  0.08788378  0.85139792  0.57774775  1
  O  O611  1  0.08688535  0.85220089  0.82696617  1
  O  O612  1  0.58933015  0.18495250  0.07841325  1
  O  O613  1  0.58643552  0.18500383  0.32725285  1
  O  O614  1  0.58674748  0.18381450  0.57841228  1
  O  O615  1  0.58761051  0.18459598  0.82767709  1
  O  O616  1  0.59066253  0.51914672  0.07723315  1
  O  O617  1  0.58830986  0.51750784  0.32755566  1
  O  O618  1  0.58806577  0.51865733  0.57853373  1
  O  O619  1  0.58741534  0.51825317  0.82715226  1
  O  O620  1  0.58805432  0.85063987  0.07757790  1
  O  O621  1  0.58559534  0.85228279  0.32724125  1
  O  O622  1  0.58840154  0.85227533  0.57773505  1
  O  O623  1  0.58871226  0.85174909  0.82607638  1
  O  O624  1  0.33712259  0.18546392  0.04763843  1
  O  O625  1  0.33694568  0.18534235  0.29806163  1
  O  O626  1  0.33764588  0.18468503  0.54641137  1
  O  O627  1  0.33697275  0.18432284  0.79775981  1
  O  O628  1  0.33753357  0.51739126  0.04701522  1
  O  O629  1  0.33774022  0.51917622  0.29650131  1
  O  O630  1  0.33810109  0.51825705  0.54691628  1
  O  O631  1  0.33685386  0.51888431  0.79887816  1
  O  O632  1  0.33495247  0.85207542  0.04808076  1
  O  O633  1  0.33820259  0.85040531  0.29692331  1
  O  O634  1  0.33906562  0.85164253  0.54612540  1
  O  O635  1  0.33579476  0.85126844  0.79789006  1
  O  O636  1  0.83982409  0.18602453  0.04836479  1
  O  O637  1  0.83538563  0.18490859  0.29787655  1
  O  O638  1  0.83648920  0.18478867  0.54719535  1
  O  O639  1  0.83789819  0.18348338  0.79792409  1
  O  O640  1  0.83848584  0.51788257  0.04827755  1
  O  O641  1  0.83753992  0.51929409  0.29766261  1
  O  O642  1  0.83832664  0.51897053  0.54662838  1
  O  O643  1  0.83691233  0.51910479  0.79856313  1
  O  O644  1  0.83956475  0.85130344  0.04711789  1
  O  O645  1  0.83890678  0.85056063  0.29639982  1
  O  O646  1  0.83845897  0.85102273  0.54593425  1
  O  O647  1  0.83740643  0.85224924  0.79772596  1
  O  O648  1  0.16222465  0.14927793  0.20373058  1
  O  O649  1  0.16383345  0.14868739  0.45226881  1
  O  O650  1  0.16347122  0.14757771  0.70263450  1
  O  O651  1  0.16039820  0.14730322  0.95175491  1
  O  O652  1  0.16105612  0.48073584  0.20134959  1
  O  O653  1  0.16487546  0.48120722  0.45205256  1
  O  O654  1  0.16372144  0.48311230  0.70391577  1
  O  O655  1  0.16151286  0.48157090  0.95201526  1
  O  O656  1  0.16165163  0.81483754  0.20228930  1
  O  O657  1  0.16358759  0.81493192  0.45109060  1
  O  O658  1  0.16376585  0.81476849  0.70290180  1
  O  O659  1  0.16073163  0.81584697  0.95347723  1
  O  O660  1  0.66075987  0.14872505  0.20266236  1
  O  O661  1  0.66041229  0.14792114  0.45195238  1
  O  O662  1  0.66266262  0.14716887  0.70225026  1
  O  O663  1  0.66170789  0.14820733  0.95239918  1
  O  O664  1  0.66067175  0.48195764  0.20270937  1
  O  O665  1  0.66130507  0.48171617  0.45152613  1
  O  O666  1  0.66313017  0.48307059  0.70347060  1
  O  O667  1  0.66408217  0.48269075  0.95336273  1
  O  O668  1  0.66412015  0.81462768  0.20115881  1
  O  O669  1  0.66483895  0.81519888  0.45107278  1
  O  O670  1  0.66472332  0.81532161  0.70296848  1
  O  O671  1  0.66408817  0.81379790  0.95254380  1
