# generated using pymatgen
data_Na2MnFe(PO4)2
_symmetry_space_group_name_H-M   'P 1'
_cell_length_a   21.08882675
_cell_length_b   18.94117751
_cell_length_c   20.04736177
_cell_angle_alpha   89.99973132
_cell_angle_beta   90.00359896
_cell_angle_gamma   90.00145114
_symmetry_Int_Tables_number   1
_chemical_formula_structural   Na2MnFe(PO4)2
_chemical_formula_sum   'Na96 Mn48 Fe48 P96 O384'
_cell_volume   8007.86272381
_cell_formula_units_Z   48
loop_
 _symmetry_equiv_pos_site_id
 _symmetry_equiv_pos_as_xyz
  1  'x, y, z'
loop_
 _atom_site_type_symbol
 _atom_site_label
 _atom_site_symmetry_multiplicity
 _atom_site_fract_x
 _atom_site_fract_y
 _atom_site_fract_z
 _atom_site_occupancy
  Na  Na0  1  -0.00105261  0.00046277  -0.00030792  1
  Na  Na1  1  -0.00446087  -0.00114185  0.24963992  1
  Na  Na2  1  -0.00213837  0.00020609  0.50020943  1
  Na  Na3  1  -0.00191402  0.00006457  0.74979480  1
  Na  Na4  1  -0.00188320  0.33266707  0.00018158  1
  Na  Na5  1  -0.00010569  0.33317364  0.25061794  1
  Na  Na6  1  -0.00004785  0.33361339  0.49869972  1
  Na  Na7  1  -0.00163011  0.33285701  0.75019034  1
  Na  Na8  1  -0.00112132  0.66604684  0.00038483  1
  Na  Na9  1  -0.00115825  0.66641481  0.25084226  1
  Na  Na10  1  0.00051185  0.66652984  0.50017493  1
  Na  Na11  1  0.00038875  0.66628447  0.74906995  1
  Na  Na12  1  0.50036281  0.00049004  -0.00039705  1
  Na  Na13  1  0.49920699  0.00007616  0.25004581  1
  Na  Na14  1  0.49963508  0.00067850  0.49940896  1
  Na  Na15  1  0.49869029  -0.00053455  0.75026271  1
  Na  Na16  1  0.50215107  0.33345244  0.00081034  1
  Na  Na17  1  0.50071112  0.33307586  0.25085832  1
  Na  Na18  1  0.50071300  0.33361865  0.49936579  1
  Na  Na19  1  0.50018953  0.33283323  0.74982291  1
  Na  Na20  1  0.49969111  0.66653422  0.00028725  1
  Na  Na21  1  0.50090418  0.66638892  0.24966187  1
  Na  Na22  1  0.50134206  0.66710381  0.50017064  1
  Na  Na23  1  0.50017523  0.66692603  0.75018350  1
  Na  Na24  1  0.24915277  0.00031142  0.12409284  1
  Na  Na25  1  0.25218443  0.00146335  0.37502456  1
  Na  Na26  1  0.25126747  0.00061442  0.62594317  1
  Na  Na27  1  0.24931780  -0.00006838  0.87466372  1
  Na  Na28  1  0.24908504  0.33241222  0.12391333  1
  Na  Na29  1  0.25151097  0.33406148  0.37594650  1
  Na  Na30  1  0.24977682  0.33300946  0.62467487  1
  Na  Na31  1  0.25140477  0.33433414  0.87562628  1
  Na  Na32  1  0.25025267  0.66751693  0.12637234  1
  Na  Na33  1  0.24859327  0.66637882  0.37483242  1
  Na  Na34  1  0.24914476  0.66673484  0.62446287  1
  Na  Na35  1  0.24979854  0.66691767  0.87509365  1
  Na  Na36  1  0.75214984  0.00025000  0.12506784  1
  Na  Na37  1  0.75267220  0.00066955  0.37531953  1
  Na  Na38  1  0.75172508  0.00065029  0.62418720  1
  Na  Na39  1  0.75223661  0.00073983  0.87515324  1
  Na  Na40  1  0.74897529  0.33271749  0.12431721  1
  Na  Na41  1  0.74900355  0.33292746  0.37553922  1
  Na  Na42  1  0.74984383  0.33292259  0.62515217  1
  Na  Na43  1  0.75162337  0.33358355  0.87520348  1
  Na  Na44  1  0.74991054  0.66611768  0.12446155  1
  Na  Na45  1  0.75101521  0.66633308  0.37629910  1
  Na  Na46  1  0.75012379  0.66614657  0.62519798  1
  Na  Na47  1  0.75025700  0.66640860  0.87367947  1
  Na  Na48  1  -0.00208009  0.16699062  0.00095048  1
  Na  Na49  1  -0.00055297  0.16632839  0.24959611  1
  Na  Na50  1  -0.00191596  0.16716944  0.49941862  1
  Na  Na51  1  -0.00282349  0.16710224  0.74947702  1
  Na  Na52  1  0.00042484  0.49898446  -0.00041210  1
  Na  Na53  1  -0.00188326  0.50043033  0.25143516  1
  Na  Na54  1  0.00034263  0.49983637  0.49973817  1
  Na  Na55  1  -0.00056501  0.50047816  0.74968700  1
  Na  Na56  1  -0.00197757  0.83418568  -0.00000339  1
  Na  Na57  1  -0.00208423  0.83343099  0.25050069  1
  Na  Na58  1  -0.00032144  0.83307376  0.49972332  1
  Na  Na59  1  0.00078865  0.83309843  0.74975169  1
  Na  Na60  1  0.49992005  0.16725213  0.00037924  1
  Na  Na61  1  0.49943815  0.16752753  0.25040386  1
  Na  Na62  1  0.49990053  0.16671162  0.49942345  1
  Na  Na63  1  0.50011310  0.16643580  0.75004735  1
  Na  Na64  1  0.50196565  0.49960693  0.00062488  1
  Na  Na65  1  0.50141976  0.49990414  0.25110848  1
  Na  Na66  1  0.50152547  0.49976640  0.49868034  1
  Na  Na67  1  0.50150279  0.49959944  0.74996054  1
  Na  Na68  1  0.49990345  0.83336080  -0.00068533  1
  Na  Na69  1  0.50000231  0.83312754  0.24926470  1
  Na  Na70  1  0.49899499  0.83313895  0.50053118  1
  Na  Na71  1  0.49857006  0.83314568  0.75059346  1
  Na  Na72  1  0.25020861  0.16691873  0.12394967  1
  Na  Na73  1  0.25172412  0.16666521  0.37525199  1
  Na  Na74  1  0.25271591  0.16586546  0.62545172  1
  Na  Na75  1  0.25030111  0.16645697  0.87516632  1
  Na  Na76  1  0.24955563  0.49932185  0.12458522  1
  Na  Na77  1  0.25131763  0.49864147  0.37545859  1
  Na  Na78  1  0.24724110  0.50087168  0.62480280  1
  Na  Na79  1  0.24798152  0.50034261  0.87549388  1
  Na  Na80  1  0.24865773  0.83378010  0.12578585  1
  Na  Na81  1  0.24927201  0.83283102  0.37499946  1
  Na  Na82  1  0.25017827  0.83282065  0.62479703  1
  Na  Na83  1  0.25229072  0.83222090  0.87453637  1
  Na  Na84  1  0.75149619  0.16659105  0.12475556  1
  Na  Na85  1  0.75067583  0.16676441  0.37511898  1
  Na  Na86  1  0.75082141  0.16654340  0.62540079  1
  Na  Na87  1  0.75228478  0.16632619  0.87425734  1
  Na  Na88  1  0.74796700  0.50107036  0.12439057  1
  Na  Na89  1  0.75057639  0.49965805  0.37638849  1
  Na  Na90  1  0.75121484  0.50021269  0.62485786  1
  Na  Na91  1  0.75125065  0.49956337  0.87491408  1
  Na  Na92  1  0.75145617  0.83344760  0.12483740  1
  Na  Na93  1  0.75312183  0.83175305  0.37534247  1
  Na  Na94  1  0.74944440  0.83393629  0.62442928  1
  Na  Na95  1  0.75036109  0.83379238  0.87482022  1
  Mn  Mn96  1  0.35776946  0.41708383  0.75174374  1
  Mn  Mn97  1  0.39157728  0.91658923  0.37715664  1
  Mn  Mn98  1  0.89239621  0.91640066  0.62758485  1
  Mn  Mn99  1  0.35807343  0.41740243  0.00281669  1
  Mn  Mn100  1  0.39193518  0.91694985  0.12667552  1
  Mn  Mn101  1  0.35745989  0.74991831  0.25266603  1
  Mn  Mn102  1  0.14161123  0.58432085  0.99840250  1
  Mn  Mn103  1  0.89113036  0.58287701  0.12779690  1
  Mn  Mn104  1  0.39247331  0.58325364  0.37740785  1
  Mn  Mn105  1  0.10798940  0.41668736  0.37227893  1
  Mn  Mn106  1  0.10740823  0.08401401  0.62295143  1
  Mn  Mn107  1  0.60828716  0.41637324  0.87259483  1
  Mn  Mn108  1  0.64294469  0.58333083  0.74742088  1
  Mn  Mn109  1  0.85747192  0.41661420  0.00292100  1
  Mn  Mn110  1  0.85827830  0.75012187  0.75195716  1
  Mn  Mn111  1  0.14121878  0.24941017  0.99751814  1
  Mn  Mn112  1  0.14166467  0.58191289  0.24786040  1
  Mn  Mn113  1  0.39246738  0.58307039  0.62676841  1
  Mn  Mn114  1  0.14111446  0.91821965  0.24793205  1
  Mn  Mn115  1  0.39301319  0.58274601  0.12737108  1
  Mn  Mn116  1  0.10758753  0.08283867  0.37295698  1
  Mn  Mn117  1  0.14190116  0.25009799  0.74797620  1
  Mn  Mn118  1  0.85768569  0.41633731  0.50297362  1
  Mn  Mn119  1  0.10774145  0.75051628  0.87279373  1
  Mn  Mn120  1  0.60873062  0.75007098  0.12256053  1
  Mn  Mn121  1  0.60874916  0.08335644  0.12298961  1
  Mn  Mn122  1  0.60806725  0.08313037  0.87296591  1
  Mn  Mn123  1  0.35710981  0.08262664  0.00213096  1
  Mn  Mn124  1  0.85755779  0.75030333  0.00185959  1
  Mn  Mn125  1  0.10662470  0.74979693  0.12280907  1
  Mn  Mn126  1  0.39149082  0.58280592  0.87723929  1
  Mn  Mn127  1  0.60707417  0.75035863  0.87287862  1
  Mn  Mn128  1  0.14257508  0.24988074  0.49821279  1
  Mn  Mn129  1  0.10685805  0.41583122  0.87239666  1
  Mn  Mn130  1  0.14238768  0.91689412  0.49744669  1
  Mn  Mn131  1  0.64310268  0.24984481  0.74797849  1
  Mn  Mn132  1  0.60779154  0.08302956  0.37260752  1
  Mn  Mn133  1  0.64361075  0.91645711  0.24770406  1
  Mn  Mn134  1  0.14261921  0.91651913  0.74814618  1
  Mn  Mn135  1  0.60792077  0.41666193  0.37264537  1
  Mn  Mn136  1  0.39286213  0.25055449  0.12737276  1
  Mn  Mn137  1  0.39326820  0.25036750  0.62716012  1
  Mn  Mn138  1  0.64225584  0.91704648  0.74805895  1
  Mn  Mn139  1  0.64279067  0.91660138  0.49740505  1
  Mn  Mn140  1  0.10644054  0.08358034  0.12322639  1
  Mn  Mn141  1  0.39251536  0.91646105  0.62705805  1
  Mn  Mn142  1  0.89169977  0.25011577  0.37691044  1
  Mn  Mn143  1  0.60861700  0.75063442  0.37303753  1
  Fe  Fe144  1  0.85729923  0.08391649  0.25217259  1
  Fe  Fe145  1  0.85755468  0.74908194  0.25242271  1
  Fe  Fe146  1  0.89222627  0.58371006  0.37738029  1
  Fe  Fe147  1  0.64298278  0.25025693  0.24838352  1
  Fe  Fe148  1  0.89202866  0.25107485  0.62652203  1
  Fe  Fe149  1  0.60780651  0.08320883  0.62306635  1
  Fe  Fe150  1  0.14156176  0.91665794  0.99799193  1
  Fe  Fe151  1  0.89260975  0.91651727  0.87694519  1
  Fe  Fe152  1  0.10577632  0.08350803  0.87323211  1
  Fe  Fe153  1  0.14244240  0.58316169  0.49831781  1
  Fe  Fe154  1  0.60835952  0.41666467  0.12405518  1
  Fe  Fe155  1  0.39292403  0.24991164  0.87664449  1
  Fe  Fe156  1  0.35798939  0.08323810  0.50219089  1
  Fe  Fe157  1  0.39212990  0.91705571  0.87763506  1
  Fe  Fe158  1  0.14329501  0.25005230  0.24856252  1
  Fe  Fe159  1  0.35685738  0.75010670  0.00199146  1
  Fe  Fe160  1  0.35709949  0.74967437  0.75127029  1
  Fe  Fe161  1  0.64343049  0.91707656  0.99835397  1
  Fe  Fe162  1  0.10680777  0.41637629  0.62381389  1
  Fe  Fe163  1  0.64370896  0.58324514  0.24892842  1
  Fe  Fe164  1  0.89199024  0.91673125  0.12676781  1
  Fe  Fe165  1  0.14173671  0.58331654  0.74830591  1
  Fe  Fe166  1  0.89376238  0.58287423  0.62656538  1
  Fe  Fe167  1  0.35737225  0.08413824  0.25115943  1
  Fe  Fe168  1  0.85787277  0.74974321  0.50261571  1
  Fe  Fe169  1  0.85701266  0.08363206  0.50192628  1
  Fe  Fe170  1  0.89230961  0.91605078  0.37691284  1
  Fe  Fe171  1  0.85744856  0.08335651  0.00134958  1
  Fe  Fe172  1  0.89205421  0.25049830  0.12771674  1
  Fe  Fe173  1  0.89297170  0.58349705  0.87640470  1
  Fe  Fe174  1  0.10600358  0.75037266  0.37378142  1
  Fe  Fe175  1  0.64376129  0.58337503  0.49883992  1
  Fe  Fe176  1  0.39265720  0.25023509  0.37638660  1
  Fe  Fe177  1  0.64296010  0.24970815  0.49869777  1
  Fe  Fe178  1  0.35774324  0.41597192  0.25103651  1
  Fe  Fe179  1  0.85753370  0.08358681  0.75190072  1
  Fe  Fe180  1  0.35727510  0.41725658  0.50261659  1
  Fe  Fe181  1  0.85670499  0.41678686  0.25117143  1
  Fe  Fe182  1  0.35672524  0.74941543  0.50153895  1
  Fe  Fe183  1  0.60857411  0.41673920  0.62297068  1
  Fe  Fe184  1  0.64273023  0.58371987  0.99760592  1
  Fe  Fe185  1  0.10790156  0.74956899  0.62276428  1
  Fe  Fe186  1  0.64378994  0.24924921  0.99801998  1
  Fe  Fe187  1  0.10678875  0.41625406  0.12444547  1
  Fe  Fe188  1  0.35800757  0.08333150  0.75255378  1
  Fe  Fe189  1  0.60726434  0.74993084  0.62296899  1
  Fe  Fe190  1  0.85804820  0.41649807  0.75109857  1
  Fe  Fe191  1  0.89228768  0.25005506  0.87712949  1
  P  P192  1  0.05283600  0.25081203  0.11172254  1
  P  P193  1  0.05393083  0.24947848  0.35916946  1
  P  P194  1  0.05154411  0.25088075  0.60994675  1
  P  P195  1  0.05121888  0.24866231  0.86012188  1
  P  P196  1  0.05235284  0.58193585  0.11057709  1
  P  P197  1  0.05303782  0.58412693  0.36161134  1
  P  P198  1  0.05452775  0.58277141  0.61058426  1
  P  P199  1  0.05264183  0.58342152  0.85939982  1
  P  P200  1  0.05166722  0.91700833  0.10964052  1
  P  P201  1  0.05140850  0.91635166  0.36030036  1
  P  P202  1  0.05364894  0.91647116  0.60999407  1
  P  P203  1  0.05273883  0.91779707  0.86111301  1
  P  P204  1  0.55620515  0.25068619  0.11088097  1
  P  P205  1  0.55441190  0.24992071  0.36062295  1
  P  P206  1  0.55488159  0.24974200  0.60948666  1
  P  P207  1  0.55383696  0.24950080  0.86101212  1
  P  P208  1  0.55618696  0.58251766  0.11095495  1
  P  P209  1  0.55583347  0.58369288  0.36060659  1
  P  P210  1  0.55456397  0.58333092  0.60935069  1
  P  P211  1  0.55430594  0.58349891  0.86074593  1
  P  P212  1  0.55439963  0.91691062  0.10897695  1
  P  P213  1  0.55324622  0.91658445  0.35949651  1
  P  P214  1  0.55374222  0.91675757  0.61006831  1
  P  P215  1  0.55302210  0.91688764  0.86108926  1
  P  P216  1  0.44651815  0.08357748  0.14054220  1
  P  P217  1  0.44462655  0.08451590  0.38914930  1
  P  P218  1  0.44661570  0.08346095  0.63951195  1
  P  P219  1  0.44535833  0.08356836  0.88914782  1
  P  P220  1  0.44848091  0.41667179  0.14110699  1
  P  P221  1  0.44476669  0.41577635  0.38945757  1
  P  P222  1  0.44777489  0.41711981  0.63870256  1
  P  P223  1  0.44681399  0.41579209  0.89021782  1
  P  P224  1  0.44590945  0.75005300  0.13899780  1
  P  P225  1  0.44627200  0.74971649  0.39094706  1
  P  P226  1  0.44614866  0.74940566  0.63932618  1
  P  P227  1  0.44397190  0.75042924  0.88952960  1
  P  P228  1  0.94372684  0.08362062  0.13913347  1
  P  P229  1  0.94423265  0.08295227  0.38948301  1
  P  P230  1  0.94440578  0.08460721  0.63923771  1
  P  P231  1  0.94512294  0.08342589  0.88939426  1
  P  P232  1  0.94665393  0.41586334  0.14097051  1
  P  P233  1  0.94477294  0.41718789  0.38884261  1
  P  P234  1  0.94713289  0.41685061  0.63996938  1
  P  P235  1  0.94481698  0.41681569  0.88873601  1
  P  P236  1  0.94524780  0.75057435  0.14072704  1
  P  P237  1  0.94511863  0.74955732  0.38975544  1
  P  P238  1  0.94734198  0.74894934  0.63860999  1
  P  P239  1  0.94661207  0.74968914  0.88962974  1
  P  P240  1  0.19768793  0.08482146  0.23497908  1
  P  P241  1  0.19822012  0.08357657  0.48532752  1
  P  P242  1  0.19675034  0.08360836  0.73642699  1
  P  P243  1  0.19463762  0.08250381  0.98420116  1
  P  P244  1  0.19758883  0.41517887  0.23449998  1
  P  P245  1  0.19607343  0.41718724  0.48653747  1
  P  P246  1  0.19568069  0.41688577  0.73440703  1
  P  P247  1  0.19480730  0.41657134  0.98621481  1
  P  P248  1  0.19434210  0.75018356  0.23648789  1
  P  P249  1  0.19534088  0.74909454  0.48551924  1
  P  P250  1  0.19689161  0.74952746  0.73451369  1
  P  P251  1  0.19713327  0.75103295  0.98524058  1
  P  P252  1  0.69846796  0.08380215  0.23539428  1
  P  P253  1  0.69666161  0.08407166  0.48610990  1
  P  P254  1  0.69779304  0.08321198  0.73459726  1
  P  P255  1  0.69823293  0.08338446  0.98507027  1
  P  P256  1  0.69737915  0.41687830  0.23533430  1
  P  P257  1  0.69539575  0.41657952  0.48641934  1
  P  P258  1  0.69802406  0.41658794  0.73455599  1
  P  P259  1  0.69545869  0.41625975  0.98614758  1
  P  P260  1  0.69881369  0.74905826  0.23549011  1
  P  P261  1  0.69718696  0.74919510  0.48651045  1
  P  P262  1  0.69624357  0.75042672  0.73419846  1
  P  P263  1  0.69662575  0.75045522  0.98452079  1
  P  P264  1  0.30438187  0.24989404  0.01385336  1
  P  P265  1  0.30324580  0.25038174  0.26506153  1
  P  P266  1  0.30526085  0.25031340  0.51398252  1
  P  P267  1  0.30431526  0.24977039  0.76561861  1
  P  P268  1  0.30311122  0.58444402  0.01555191  1
  P  P269  1  0.30328436  0.58203302  0.26504949  1
  P  P270  1  0.30229754  0.58338216  0.51479682  1
  P  P271  1  0.30153946  0.58367902  0.76451409  1
  P  P272  1  0.30246128  0.91591176  0.01392024  1
  P  P273  1  0.30271712  0.91774551  0.26476987  1
  P  P274  1  0.30349158  0.91626198  0.51503506  1
  P  P275  1  0.30462090  0.91646870  0.76529170  1
  P  P276  1  0.80454994  0.24924606  0.01439804  1
  P  P277  1  0.80310869  0.25077351  0.26389801  1
  P  P278  1  0.80280382  0.24947205  0.51527686  1
  P  P279  1  0.80565310  0.25042454  0.76423200  1
  P  P280  1  0.80311388  0.58344118  0.01345038  1
  P  P281  1  0.80288504  0.58271558  0.26594185  1
  P  P282  1  0.80487874  0.58394341  0.51489596  1
  P  P283  1  0.80589511  0.58237986  0.76396878  1
  P  P284  1  0.80435800  0.91752604  0.01408155  1
  P  P285  1  0.80565804  0.91635296  0.26454260  1
  P  P286  1  0.80522339  0.91639434  0.51369385  1
  P  P287  1  0.80423156  0.91738964  0.76541940  1
  O  O288  1  0.05827583  0.24998291  0.18829252  1
  O  O289  1  0.05746385  0.24962169  0.43604164  1
  O  O290  1  0.05534237  0.24998679  0.68660371  1
  O  O291  1  0.05490010  0.24921148  0.93680776  1
  O  O292  1  0.05538660  0.58266466  0.18734417  1
  O  O293  1  0.05811791  0.58309980  0.43823769  1
  O  O294  1  0.05876418  0.58321855  0.68731966  1
  O  O295  1  0.05627652  0.58349512  0.93610837  1
  O  O296  1  0.05546011  0.91723555  0.18638605  1
  O  O297  1  0.05559252  0.91735221  0.43696387  1
  O  O298  1  0.05680631  0.91703364  0.68680109  1
  O  O299  1  0.05736949  0.91682507  0.93777194  1
  O  O300  1  0.56035686  0.24976547  0.18770454  1
  O  O301  1  0.55937862  0.24967750  0.43730833  1
  O  O302  1  0.55756517  0.24965059  0.68631201  1
  O  O303  1  0.55917088  0.24926624  0.93764929  1
  O  O304  1  0.56046002  0.58347450  0.18772336  1
  O  O305  1  0.56038602  0.58380046  0.43734064  1
  O  O306  1  0.55711274  0.58326416  0.68618139  1
  O  O307  1  0.55884592  0.58369647  0.93751355  1
  O  O308  1  0.55796559  0.91687022  0.18575484  1
  O  O309  1  0.55690765  0.91663012  0.43625529  1
  O  O310  1  0.55613500  0.91670127  0.68686015  1
  O  O311  1  0.55895393  0.91723613  0.93764707  1
  O  O312  1  0.44303107  0.08356526  0.06376787  1
  O  O313  1  0.44041556  0.08394257  0.31240554  1
  O  O314  1  0.44168178  0.08336224  0.56278257  1
  O  O315  1  0.44169883  0.08336018  0.81232525  1
  O  O316  1  0.44430734  0.41667160  0.06440049  1
  O  O317  1  0.44060571  0.41645825  0.31257414  1
  O  O318  1  0.44226225  0.41758344  0.56207797  1
  O  O319  1  0.44365199  0.41663640  0.81340889  1
  O  O320  1  0.44129462  0.75020837  0.06231342  1
  O  O321  1  0.44306609  0.74938207  0.31412540  1
  O  O322  1  0.44071884  0.74926948  0.56271219  1
  O  O323  1  0.43998139  0.74939398  0.81268944  1
  O  O324  1  0.94046080  0.08372422  0.06231321  1
  O  O325  1  0.94016717  0.08402917  0.31259721  1
  O  O326  1  0.94045608  0.08396610  0.56243756  1
  O  O327  1  0.94118670  0.08330991  0.81264516  1
  O  O328  1  0.94310378  0.41634133  0.06430678  1
  O  O329  1  0.94012729  0.41660575  0.31215577  1
  O  O330  1  0.94387484  0.41674405  0.56323412  1
  O  O331  1  0.94155811  0.41674815  0.81194118  1
  O  O332  1  0.94240691  0.74962470  0.06395639  1
  O  O333  1  0.94071038  0.74901099  0.31302037  1
  O  O334  1  0.94246622  0.74957682  0.56199197  1
  O  O335  1  0.94426452  0.74994546  0.81280867  1
  O  O336  1  0.19136106  0.08350869  0.06097180  1
  O  O337  1  0.19397361  0.08382842  0.31167546  1
  O  O338  1  0.19389112  0.08362924  0.56198895  1
  O  O339  1  0.19070816  0.08386013  0.81294681  1
  O  O340  1  0.19012463  0.41592876  0.06289028  1
  O  O341  1  0.19402616  0.41616211  0.31137414  1
  O  O342  1  0.19071059  0.41632033  0.56305855  1
  O  O343  1  0.19257857  0.41610618  0.81123953  1
  O  O344  1  0.19316226  0.75060281  0.06194605  1
  O  O345  1  0.18953349  0.75018804  0.31324268  1
  O  O346  1  0.19082633  0.74991226  0.56227346  1
  O  O347  1  0.19322844  0.75011283  0.81123875  1
  O  O348  1  0.69490955  0.08328420  0.06175568  1
  O  O349  1  0.69457739  0.08328262  0.31201881  1
  O  O350  1  0.69195897  0.08332426  0.56280764  1
  O  O351  1  0.69377796  0.08323345  0.81127469  1
  O  O352  1  0.69193075  0.41646024  0.06297187  1
  O  O353  1  0.69421864  0.41655340  0.31170184  1
  O  O354  1  0.69199087  0.41676513  0.56347513  1
  O  O355  1  0.69419593  0.41658271  0.81123858  1
  O  O356  1  0.69443958  0.75039648  0.06145775  1
  O  O357  1  0.69527928  0.74979626  0.31211471  1
  O  O358  1  0.69189278  0.75004552  0.56313111  1
  O  O359  1  0.69270762  0.75038776  0.81090482  1
  O  O360  1  0.30649512  0.25037897  0.18835862  1
  O  O361  1  0.30876338  0.25045975  0.43724308  1
  O  O362  1  0.30760509  0.25022835  0.68880275  1
  O  O363  1  0.30905641  0.25023575  0.93717011  1
  O  O364  1  0.30663772  0.58282915  0.18834793  1
  O  O365  1  0.30608721  0.58323215  0.43812494  1
  O  O366  1  0.30563261  0.58299064  0.68789082  1
  O  O367  1  0.30582951  0.58326646  0.93874625  1
  O  O368  1  0.30565915  0.91702028  0.18801057  1
  O  O369  1  0.30589592  0.91624159  0.43826781  1
  O  O370  1  0.30740873  0.91673482  0.68851530  1
  O  O371  1  0.30746132  0.91678865  0.93727756  1
  O  O372  1  0.80742845  0.25085463  0.18700642  1
  O  O373  1  0.80623222  0.25039524  0.43892764  1
  O  O374  1  0.80899310  0.25077319  0.68735706  1
  O  O375  1  0.80905233  0.25004276  0.93767134  1
  O  O376  1  0.80575364  0.58288819  0.18893730  1
  O  O377  1  0.80922838  0.58336208  0.43822086  1
  O  O378  1  0.81020380  0.58319945  0.68717402  1
  O  O379  1  0.80836520  0.58331658  0.93691518  1
  O  O380  1  0.80869924  0.91635758  0.18765353  1
  O  O381  1  0.80888727  0.91594469  0.43695071  1
  O  O382  1  0.80706674  0.91640655  0.68858190  1
  O  O383  1  0.80905417  0.91661722  0.93740659  1
  O  O384  1  0.23421314  0.24935444  0.03746319  1
  O  O385  1  0.23337004  0.25047264  0.29032040  1
  O  O386  1  0.23543922  0.24986963  0.53899271  1
  O  O387  1  0.23449138  0.25047912  0.79046467  1
  O  O388  1  0.23358346  0.58399834  0.04107470  1
  O  O389  1  0.23355943  0.58211904  0.29014560  1
  O  O390  1  0.23223178  0.58349154  0.53926094  1
  O  O391  1  0.23144047  0.58345579  0.78906680  1
  O  O392  1  0.23218362  0.91677984  0.03778946  1
  O  O393  1  0.23312045  0.91757401  0.29033069  1
  O  O394  1  0.23404237  0.91664231  0.54098234  1
  O  O395  1  0.23480245  0.91631196  0.79028170  1
  O  O396  1  0.73416843  0.24960328  0.03791592  1
  O  O397  1  0.73293835  0.25033122  0.28816967  1
  O  O398  1  0.73276658  0.24999624  0.54009152  1
  O  O399  1  0.73576278  0.25007444  0.78895812  1
  O  O400  1  0.73277238  0.58365140  0.03698251  1
  O  O401  1  0.73301204  0.58269449  0.29093771  1
  O  O402  1  0.73451840  0.58324363  0.53852765  1
  O  O403  1  0.73577356  0.58312222  0.78781780  1
  O  O404  1  0.73406490  0.91694126  0.03795498  1
  O  O405  1  0.73588998  0.91639135  0.28971853  1
  O  O406  1  0.73537598  0.91688760  0.53836948  1
  O  O407  1  0.73459104  0.91709884  0.79058073  1
  O  O408  1  0.26759400  0.08436361  0.20999363  1
  O  O409  1  0.26840348  0.08369115  0.46140861  1
  O  O410  1  0.26741991  0.08326779  0.71374178  1
  O  O411  1  0.26455003  0.08303654  0.95979479  1
  O  O412  1  0.26762074  0.41564874  0.20990002  1
  O  O413  1  0.26652379  0.41696494  0.46320604  1
  O  O414  1  0.26543326  0.41660754  0.70940281  1
  O  O415  1  0.26495621  0.41719485  0.96243373  1
  O  O416  1  0.26449128  0.75031209  0.21284378  1
  O  O417  1  0.26571763  0.74942001  0.46187906  1
  O  O418  1  0.26709616  0.75008398  0.71022318  1
  O  O419  1  0.26702255  0.75029351  0.96048174  1
  O  O420  1  0.76857515  0.08351610  0.21095419  1
  O  O421  1  0.76696973  0.08366825  0.46234823  1
  O  O422  1  0.76804379  0.08355759  0.71072276  1
  O  O423  1  0.76821437  0.08365094  0.96021528  1
  O  O424  1  0.76734531  0.41705379  0.20984582  1
  O  O425  1  0.76526406  0.41634817  0.46198706  1
  O  O426  1  0.76813711  0.41641040  0.71025494  1
  O  O427  1  0.76529815  0.41623737  0.96153985  1
  O  O428  1  0.76880472  0.74934210  0.21064604  1
  O  O429  1  0.76760894  0.74915072  0.46317524  1
  O  O430  1  0.76622657  0.75020892  0.70979476  1
  O  O431  1  0.76607766  0.75014883  0.95876901  1
  O  O432  1  0.01362307  0.08315564  0.16392541  1
  O  O433  1  0.01431243  0.08374242  0.41364455  1
  O  O434  1  0.01437327  0.08359483  0.66360817  1
  O  O435  1  0.01521497  0.08366777  0.91394165  1
  O  O436  1  0.01654748  0.41643831  0.16593262  1
  O  O437  1  0.01500754  0.41673823  0.41260214  1
  O  O438  1  0.01703670  0.41682171  0.66493796  1
  O  O439  1  0.01458140  0.41627029  0.91377603  1
  O  O440  1  0.01485590  0.74985268  0.16601609  1
  O  O441  1  0.01550318  0.74979048  0.41354055  1
  O  O442  1  0.01766691  0.74910969  0.66238266  1
  O  O443  1  0.01600259  0.74992827  0.91563458  1
  O  O444  1  0.51635207  0.08375769  0.16521118  1
  O  O445  1  0.51477764  0.08364167  0.41307666  1
  O  O446  1  0.51708058  0.08341343  0.66293183  1
  O  O447  1  0.51523530  0.08364387  0.91388395  1
  O  O448  1  0.51857968  0.41647890  0.16532733  1
  O  O449  1  0.51486815  0.41652713  0.41295072  1
  O  O450  1  0.51822956  0.41660134  0.66205574  1
  O  O451  1  0.51650099  0.41630194  0.91527903  1
  O  O452  1  0.51609235  0.74988959  0.16293416  1
  O  O453  1  0.51608579  0.75009296  0.41561151  1
  O  O454  1  0.51667798  0.74968814  0.66251600  1
  O  O455  1  0.51407955  0.75006296  0.91355772  1
  O  O456  1  0.48607088  0.25008797  0.08702727  1
  O  O457  1  0.48391538  0.25029746  0.33733005  1
  O  O458  1  0.48524129  0.25010600  0.58420950  1
  O  O459  1  0.48360963  0.24951835  0.83724429  1
  O  O460  1  0.48611305  0.58308844  0.08684901  1
  O  O461  1  0.48557481  0.58337522  0.33703171  1
  O  O462  1  0.48495043  0.58325331  0.58384119  1
  O  O463  1  0.48430087  0.58330246  0.83663154  1
  O  O464  1  0.48458652  0.91701642  0.08435283  1
  O  O465  1  0.48350479  0.91651846  0.33479872  1
  O  O466  1  0.48420678  0.91684484  0.58440113  1
  O  O467  1  0.48257868  0.91656931  0.83799827  1
  O  O468  1  0.98237774  0.25024876  0.08828047  1
  O  O469  1  0.98409696  0.24963843  0.33501675  1
  O  O470  1  0.98152612  0.25092537  0.58514451  1
  O  O471  1  0.98114525  0.24938705  0.83576618  1
  O  O472  1  0.98267332  0.58225431  0.08526038  1
  O  O473  1  0.98260379  0.58382533  0.33816339  1
  O  O474  1  0.98412690  0.58276673  0.58669321  1
  O  O475  1  0.98260600  0.58341278  0.83493911  1
  O  O476  1  0.98143696  0.91743322  0.08560148  1
  O  O477  1  0.98128094  0.91618184  0.33609306  1
  O  O478  1  0.98387603  0.91666271  0.58511905  1
  O  O479  1  0.98247324  0.91709388  0.83712154  1
  O  O480  1  0.08567222  0.31607736  0.07838436  1
  O  O481  1  0.08814103  0.31448587  0.32663263  1
  O  O482  1  0.08546972  0.31601707  0.57759179  1
  O  O483  1  0.08523394  0.31356103  0.82732209  1
  O  O484  1  0.08634760  0.64707664  0.07798420  1
  O  O485  1  0.08606968  0.64924665  0.32857515  1
  O  O486  1  0.08805510  0.64765948  0.57717823  1
  O  O487  1  0.08664629  0.64838919  0.82661094  1
  O  O488  1  0.08575031  0.98179647  0.07682033  1
  O  O489  1  0.08469330  0.98151875  0.32699823  1
  O  O490  1  0.08749079  0.98158303  0.57735072  1
  O  O491  1  0.08565597  0.98315487  0.82801046  1
  O  O492  1  0.58948676  0.31604372  0.07827173  1
  O  O493  1  0.58797110  0.31474706  0.32733695  1
  O  O494  1  0.58936955  0.31468607  0.57721970  1
  O  O495  1  0.58715791  0.31453483  0.82761499  1
  O  O496  1  0.59007291  0.64726269  0.07731951  1
  O  O497  1  0.58920923  0.64867683  0.32720379  1
  O  O498  1  0.58890502  0.64849084  0.57719789  1
  O  O499  1  0.58775760  0.64846861  0.82753765  1
  O  O500  1  0.58862267  0.98190438  0.07638352  1
  O  O501  1  0.58723237  0.98164212  0.32698677  1
  O  O502  1  0.58792707  0.98195071  0.57789715  1
  O  O503  1  0.58597650  0.98194996  0.82731491  1
  O  O504  1  0.41238484  0.01858479  0.17297505  1
  O  O505  1  0.41062814  0.01982951  0.42262468  1
  O  O506  1  0.41303301  0.01858016  0.67279313  1
  O  O507  1  0.41170511  0.01834524  0.92200069  1
  O  O508  1  0.41445744  0.35169266  0.17385682  1
  O  O509  1  0.41164092  0.35047660  0.42238199  1
  O  O510  1  0.41439355  0.35215124  0.67195031  1
  O  O511  1  0.41311441  0.35050217  0.92250046  1
  O  O512  1  0.41249319  0.68505945  0.17227530  1
  O  O513  1  0.41229114  0.68469297  0.42374528  1
  O  O514  1  0.41303722  0.68437332  0.67297650  1
  O  O515  1  0.41021293  0.68563101  0.92293232  1
  O  O516  1  0.90965256  0.01862311  0.17162693  1
  O  O517  1  0.91096354  0.01756337  0.42203201  1
  O  O518  1  0.91018074  0.01996705  0.67252543  1
  O  O519  1  0.91159005  0.01832986  0.92250648  1
  O  O520  1  0.91259553  0.35083015  0.17355867  1
  O  O521  1  0.91142129  0.35223487  0.42216305  1
  O  O522  1  0.91279294  0.35198208  0.67252409  1
  O  O523  1  0.91083895  0.35182561  0.92149331  1
  O  O524  1  0.91058763  0.68581322  0.17350626  1
  O  O525  1  0.91182052  0.68463191  0.42335598  1
  O  O526  1  0.91402255  0.68388613  0.67163803  1
  O  O527  1  0.91244984  0.68440666  0.92157839  1
  O  O528  1  0.16329122  0.02008575  0.20213401  1
  O  O529  1  0.16466001  0.01850689  0.45220998  1
  O  O530  1  0.16369712  0.01857490  0.70285865  1
  O  O531  1  0.16083945  0.01720002  0.95197862  1
  O  O532  1  0.16367559  0.34995660  0.20230167  1
  O  O533  1  0.16289877  0.35228954  0.45264140  1
  O  O534  1  0.16130095  0.35201442  0.70167006  1
  O  O535  1  0.16171282  0.35147766  0.95255430  1
  O  O536  1  0.16120082  0.68493074  0.20333846  1
  O  O537  1  0.16186049  0.68390739  0.45274095  1
  O  O538  1  0.16312663  0.68443281  0.70191308  1
  O  O539  1  0.16302896  0.68605168  0.95255649  1
  O  O540  1  0.66488126  0.01877843  0.20233577  1
  O  O541  1  0.66330014  0.01922967  0.45240608  1
  O  O542  1  0.66423604  0.01818218  0.70159892  1
  O  O543  1  0.66450230  0.01826855  0.95233127  1
  O  O544  1  0.66325528  0.35193342  0.20242223  1
  O  O545  1  0.66163785  0.35151203  0.45387865  1
  O  O546  1  0.66385233  0.35169382  0.70196004  1
  O  O547  1  0.66208914  0.35080160  0.95346816  1
  O  O548  1  0.66507271  0.68385974  0.20312208  1
  O  O549  1  0.66404800  0.68401771  0.45343753  1
  O  O550  1  0.66215784  0.68549412  0.70151043  1
  O  O551  1  0.66213276  0.68549062  0.95249734  1
  O  O552  1  0.33755690  0.31493207  0.04742043  1
  O  O553  1  0.33752504  0.31538511  0.29764559  1
  O  O554  1  0.33872050  0.31563463  0.54688899  1
  O  O555  1  0.33886534  0.31464601  0.79804620  1
  O  O556  1  0.33713537  0.64979313  0.04731258  1
  O  O557  1  0.33729949  0.64700513  0.29788864  1
  O  O558  1  0.33602079  0.64851182  0.54746090  1
  O  O559  1  0.33530030  0.64883217  0.79693619  1
  O  O560  1  0.33619532  0.98077567  0.04730916  1
  O  O561  1  0.33692937  0.98300328  0.29654228  1
  O  O562  1  0.33806639  0.98130086  0.54702389  1
  O  O563  1  0.33878657  0.98141073  0.79796340  1
  O  O564  1  0.83801585  0.31403564  0.04819079  1
  O  O565  1  0.83614653  0.31593719  0.29701178  1
  O  O566  1  0.83703712  0.31427026  0.54856972  1
  O  O567  1  0.83925209  0.31547522  0.79716447  1
  O  O568  1  0.83644852  0.64835008  0.04693253  1
  O  O569  1  0.83703930  0.64771767  0.29838927  1
  O  O570  1  0.83827306  0.64891215  0.54815230  1
  O  O571  1  0.83975008  0.64719644  0.79732734  1
  O  O572  1  0.83751914  0.98281176  0.04698191  1
  O  O573  1  0.83965683  0.98141338  0.29710694  1
  O  O574  1  0.83903794  0.98160104  0.54610341  1
  O  O575  1  0.83835028  0.98262104  0.79731994  1
  O  O576  1  0.41233633  0.14852450  0.17314009  1
  O  O577  1  0.41169749  0.14994598  0.42214095  1
  O  O578  1  0.41327904  0.14847289  0.67282219  1
  O  O579  1  0.41168710  0.14866871  0.92183145  1
  O  O580  1  0.41459267  0.48155348  0.17400700  1
  O  O581  1  0.41088082  0.48054698  0.42297698  1
  O  O582  1  0.41477199  0.48208798  0.67249316  1
  O  O583  1  0.41262272  0.48082242  0.92282344  1
  O  O584  1  0.41257104  0.81517839  0.17210014  1
  O  O585  1  0.41176066  0.81456882  0.42325972  1
  O  O586  1  0.41272690  0.81431377  0.67279121  1
  O  O587  1  0.41058027  0.81579014  0.92224650  1
  O  O588  1  0.91018056  0.14880487  0.17215264  1
  O  O589  1  0.91008680  0.14759704  0.42265131  1
  O  O590  1  0.91116454  0.15002300  0.67180578  1
  O  O591  1  0.91128642  0.14838811  0.92244304  1
  O  O592  1  0.91212381  0.48069899  0.17362259  1
  O  O593  1  0.91162920  0.48233685  0.42197979  1
  O  O594  1  0.91313144  0.48192891  0.67246472  1
  O  O595  1  0.91144683  0.48218666  0.92146555  1
  O  O596  1  0.91148057  0.81602574  0.17252760  1
  O  O597  1  0.91172389  0.81472105  0.42274452  1
  O  O598  1  0.91404672  0.81390270  0.67218917  1
  O  O599  1  0.91208935  0.81468206  0.92170018  1
  O  O600  1  0.08600728  0.18585894  0.07790193  1
  O  O601  1  0.08790271  0.18449066  0.32655172  1
  O  O602  1  0.08533240  0.18584127  0.57697868  1
  O  O603  1  0.08465139  0.18356702  0.82722237  1
  O  O604  1  0.08636315  0.51675583  0.07866116  1
  O  O605  1  0.08627297  0.51912560  0.32785731  1
  O  O606  1  0.08772276  0.51751506  0.57751422  1
  O  O607  1  0.08654902  0.51844964  0.82659913  1
  O  O608  1  0.08515035  0.85178939  0.07685706  1
  O  O609  1  0.08505067  0.85122377  0.32792219  1
  O  O610  1  0.08745519  0.85120253  0.57785065  1
  O  O611  1  0.08652009  0.85303055  0.82768794  1
  O  O612  1  0.59011322  0.18596322  0.07730389  1
  O  O613  1  0.58762265  0.18499138  0.32694757  1
  O  O614  1  0.58880991  0.18447269  0.57706919  1
  O  O615  1  0.58724930  0.18460033  0.82750305  1
  O  O616  1  0.58940717  0.51705866  0.07832348  1
  O  O617  1  0.58940963  0.51879034  0.32750120  1
  O  O618  1  0.58908813  0.51839271  0.57708495  1
  O  O619  1  0.58807293  0.51848806  0.82780931  1
  O  O620  1  0.58858387  0.85192244  0.07638276  1
  O  O621  1  0.58730124  0.85152574  0.32703896  1
  O  O622  1  0.58788424  0.85156390  0.57784166  1
  O  O623  1  0.58616962  0.85194121  0.82748050  1
  O  O624  1  0.33796362  0.18491770  0.04691524  1
  O  O625  1  0.33746080  0.18536708  0.29757089  1
  O  O626  1  0.33926083  0.18528028  0.54663144  1
  O  O627  1  0.33828152  0.18459733  0.79792523  1
  O  O628  1  0.33767737  0.51959190  0.04808530  1
  O  O629  1  0.33729181  0.51671631  0.29702103  1
  O  O630  1  0.33608775  0.51835334  0.54778532  1
  O  O631  1  0.33534875  0.51871389  0.79762651  1
  O  O632  1  0.33557225  0.85068536  0.04705361  1
  O  O633  1  0.33694303  0.85279733  0.29740391  1
  O  O634  1  0.33745421  0.85083806  0.54701711  1
  O  O635  1  0.33871514  0.85123440  0.79730429  1
  O  O636  1  0.83785591  0.18412591  0.04731645  1
  O  O637  1  0.83678650  0.18582808  0.29678058  1
  O  O638  1  0.83671700  0.18437612  0.54784175  1
  O  O639  1  0.83947845  0.18522565  0.79677474  1
  O  O640  1  0.83600633  0.51844351  0.04735949  1
  O  O641  1  0.83697560  0.51764615  0.29812964  1
  O  O642  1  0.83857622  0.51904370  0.54823028  1
  O  O643  1  0.83895586  0.51702225  0.79681400  1
  O  O644  1  0.83815601  0.85282311  0.04766866  1
  O  O645  1  0.83955243  0.85118662  0.29713047  1
  O  O646  1  0.83865915  0.85127723  0.54690205  1
  O  O647  1  0.83873457  0.85253759  0.79797078  1
  O  O648  1  0.16403325  0.15015290  0.20261688  1
  O  O649  1  0.16444523  0.14846665  0.45239289  1
  O  O650  1  0.16406305  0.14869517  0.70239938  1
  O  O651  1  0.16025332  0.14723288  0.95122467  1
  O  O652  1  0.16308515  0.47984845  0.20174806  1
  O  O653  1  0.16302163  0.48241085  0.45312581  1
  O  O654  1  0.16147300  0.48202028  0.70239505  1
  O  O655  1  0.16103642  0.48161512  0.95341508  1
  O  O656  1  0.16091360  0.81523113  0.20330695  1
  O  O657  1  0.16168621  0.81397481  0.45203389  1
  O  O658  1  0.16279604  0.81441957  0.70165369  1
  O  O659  1  0.16352035  0.81616499  0.95239291  1
  O  O660  1  0.66488368  0.14888022  0.20270304  1
  O  O661  1  0.66362850  0.14939119  0.45310251  1
  O  O662  1  0.66385318  0.14812522  0.70179067  1
  O  O663  1  0.66438221  0.14847517  0.95239555  1
  O  O664  1  0.66331974  0.48202144  0.20278986  1
  O  O665  1  0.66199412  0.48177822  0.45377601  1
  O  O666  1  0.66416742  0.48152507  0.70167749  1
  O  O667  1  0.66183035  0.48132667  0.95321749  1
  O  O668  1  0.66483473  0.81391984  0.20244959  1
  O  O669  1  0.66429792  0.81417266  0.45246877  1
  O  O670  1  0.66232093  0.81547577  0.70159991  1
  O  O671  1  0.66262770  0.81585926  0.95264794  1
