# generated using pymatgen
data_Na2MnFe(PO4)2
_symmetry_space_group_name_H-M   'P 1'
_cell_length_a   21.07762714
_cell_length_b   18.92974563
_cell_length_c   20.03759403
_cell_angle_alpha   90.00043845
_cell_angle_beta   90.00045003
_cell_angle_gamma   89.99912888
_symmetry_Int_Tables_number   1
_chemical_formula_structural   Na2MnFe(PO4)2
_chemical_formula_sum   'Na96 Mn48 Fe48 P96 O384'
_cell_volume   7994.88219884
_cell_formula_units_Z   48
loop_
 _symmetry_equiv_pos_site_id
 _symmetry_equiv_pos_as_xyz
  1  'x, y, z'
loop_
 _atom_site_type_symbol
 _atom_site_label
 _atom_site_symmetry_multiplicity
 _atom_site_fract_x
 _atom_site_fract_y
 _atom_site_fract_z
 _atom_site_occupancy
  Na  Na0  1  -0.00130692  -0.00028538  -0.00050628  1
  Na  Na1  1  -0.00367038  -0.00055017  0.25039119  1
  Na  Na2  1  -0.00199098  -0.00026668  0.50058606  1
  Na  Na3  1  0.00121118  0.00031943  0.74943296  1
  Na  Na4  1  0.00368735  0.33419095  -0.00109894  1
  Na  Na5  1  0.00232074  0.33376524  0.25024499  1
  Na  Na6  1  -0.00001373  0.33312578  0.50145822  1
  Na  Na7  1  0.00122281  0.33321172  0.74951781  1
  Na  Na8  1  0.00113401  0.66650646  0.00023983  1
  Na  Na9  1  -0.00091554  0.66575374  0.24845611  1
  Na  Na10  1  0.00138506  0.66689893  0.50116913  1
  Na  Na11  1  0.00300989  0.66746647  0.75091735  1
  Na  Na12  1  0.50170439  0.00049134  -0.00133893  1
  Na  Na13  1  0.50049409  0.00005998  0.24955168  1
  Na  Na14  1  0.49828048  -0.00110495  0.50083859  1
  Na  Na15  1  0.49959652  -0.00048305  0.75098451  1
  Na  Na16  1  0.49872880  0.33331965  0.00047998  1
  Na  Na17  1  0.49776285  0.33241515  0.25021229  1
  Na  Na18  1  0.50101001  0.33324279  0.49919941  1
  Na  Na19  1  0.50054169  0.33343816  0.75045467  1
  Na  Na20  1  0.49832737  0.66684164  0.00000124  1
  Na  Na21  1  0.49987990  0.66728499  0.24997156  1
  Na  Na22  1  0.49961643  0.66648430  0.49884720  1
  Na  Na23  1  0.49754718  0.66571256  0.75029564  1
  Na  Na24  1  0.24975508  -0.00093085  0.12450551  1
  Na  Na25  1  0.25187129  0.00096867  0.37596760  1
  Na  Na26  1  0.25045546  -0.00043217  0.62454539  1
  Na  Na27  1  0.25157029  0.00031326  0.87459438  1
  Na  Na28  1  0.25010965  0.33314864  0.12441089  1
  Na  Na29  1  0.24929624  0.33304775  0.37423895  1
  Na  Na30  1  0.24922075  0.33238399  0.62653716  1
  Na  Na31  1  0.25004244  0.33266053  0.87478473  1
  Na  Na32  1  0.24854175  0.66583534  0.12382546  1
  Na  Na33  1  0.24965575  0.66678213  0.37613740  1
  Na  Na34  1  0.25046164  0.66695831  0.62608723  1
  Na  Na35  1  0.24997956  0.66684121  0.87358630  1
  Na  Na36  1  0.75044114  -0.00016719  0.12456675  1
  Na  Na37  1  0.75319472  0.00106335  0.37602691  1
  Na  Na38  1  0.75011426  0.00004321  0.62466375  1
  Na  Na39  1  0.74802671  -0.00077892  0.87497436  1
  Na  Na40  1  0.74868797  0.33312845  0.12441218  1
  Na  Na41  1  0.75006317  0.33343466  0.37559910  1
  Na  Na42  1  0.74926784  0.33419903  0.62570791  1
  Na  Na43  1  0.74651978  0.33296108  0.87460869  1
  Na  Na44  1  0.75316362  0.66744210  0.12508640  1
  Na  Na45  1  0.75026228  0.66574271  0.37456761  1
  Na  Na46  1  0.74792177  0.66581099  0.62531379  1
  Na  Na47  1  0.74987613  0.66662018  0.87478015  1
  Na  Na48  1  0.00187719  0.16692119  -0.00019003  1
  Na  Na49  1  -0.00037031  0.16737173  0.25048521  1
  Na  Na50  1  0.00103552  0.16655125  0.49989172  1
  Na  Na51  1  0.00275174  0.16600756  0.74974415  1
  Na  Na52  1  0.00207115  0.49971864  -0.00104712  1
  Na  Na53  1  0.00047034  0.50007657  0.24976897  1
  Na  Na54  1  -0.00227488  0.50119370  0.50200476  1
  Na  Na55  1  0.00111645  0.49930041  0.75032151  1
  Na  Na56  1  -0.00031581  0.83365448  -0.00046035  1
  Na  Na57  1  -0.00226207  0.83369390  0.24904873  1
  Na  Na58  1  -0.00103117  0.83428353  0.50093355  1
  Na  Na59  1  0.00253141  0.83303817  0.75002300  1
  Na  Na60  1  0.50039867  0.16669729  -0.00150969  1
  Na  Na61  1  0.50110290  0.16669749  0.25077690  1
  Na  Na62  1  0.50129696  0.16642797  0.50045972  1
  Na  Na63  1  0.49905087  0.16782122  0.75072207  1
  Na  Na64  1  0.49861903  0.49986759  0.00085271  1
  Na  Na65  1  0.49840595  0.49997338  0.24998037  1
  Na  Na66  1  0.50027487  0.49955490  0.49837201  1
  Na  Na67  1  0.49994905  0.49981080  0.75014843  1
  Na  Na68  1  0.49936725  0.83285897  -0.00009257  1
  Na  Na69  1  0.49779753  0.83390544  0.24886605  1
  Na  Na70  1  0.49817085  0.83386320  0.50030288  1
  Na  Na71  1  0.49892942  0.83349063  0.75079968  1
  Na  Na72  1  0.24881842  0.16774831  0.12422517  1
  Na  Na73  1  0.24780386  0.16811991  0.37482084  1
  Na  Na74  1  0.25023038  0.16661736  0.62538481  1
  Na  Na75  1  0.25073785  0.16714167  0.87464796  1
  Na  Na76  1  0.24880111  0.50008106  0.12354229  1
  Na  Na77  1  0.24964285  0.49979426  0.37552853  1
  Na  Na78  1  0.25053508  0.49948243  0.62622771  1
  Na  Na79  1  0.24906543  0.50080963  0.87457771  1
  Na  Na80  1  0.25267231  0.83216425  0.12454818  1
  Na  Na81  1  0.25198844  0.83275624  0.37630813  1
  Na  Na82  1  0.25111771  0.83318801  0.62514608  1
  Na  Na83  1  0.25035539  0.83382352  0.87416076  1
  Na  Na84  1  0.74977146  0.16685554  0.12467624  1
  Na  Na85  1  0.75098675  0.16580406  0.37573641  1
  Na  Na86  1  0.74638040  0.16809668  0.62522094  1
  Na  Na87  1  0.74771026  0.16710736  0.87547057  1
  Na  Na88  1  0.75138146  0.50023371  0.12470059  1
  Na  Na89  1  0.75198611  0.49945999  0.37522099  1
  Na  Na90  1  0.74937172  0.49947271  0.62539968  1
  Na  Na91  1  0.74931871  0.49959861  0.87520018  1
  Na  Na92  1  0.75038068  0.83347082  0.12502615  1
  Na  Na93  1  0.75161865  0.83337132  0.37517353  1
  Na  Na94  1  0.75042855  0.83326332  0.62531008  1
  Na  Na95  1  0.74783587  0.83402506  0.87363148  1
  Mn  Mn96  1  0.10887000  0.08297952  0.87228055  1
  Mn  Mn97  1  0.85777831  0.74965364  0.75277355  1
  Mn  Mn98  1  0.85714343  0.08325484  0.00179305  1
  Mn  Mn99  1  0.64219331  0.58380303  0.99813345  1
  Mn  Mn100  1  0.60681555  0.41647439  0.12309239  1
  Mn  Mn101  1  0.64271914  0.91665296  0.24815718  1
  Mn  Mn102  1  0.89244491  0.25059250  0.37791118  1
  Mn  Mn103  1  0.64075710  0.58330415  0.74797194  1
  Mn  Mn104  1  0.39246532  0.91780853  0.12706477  1
  Mn  Mn105  1  0.60851608  0.08233608  0.37310019  1
  Mn  Mn106  1  0.10748642  0.41734896  0.37332616  1
  Mn  Mn107  1  0.39059922  0.58270318  0.12776655  1
  Mn  Mn108  1  0.60771823  0.75016529  0.12229134  1
  Mn  Mn109  1  0.85868406  0.75033078  0.25258997  1
  Mn  Mn110  1  0.10754943  0.41641101  0.62296901  1
  Mn  Mn111  1  0.89270271  0.25055027  0.12634486  1
  Mn  Mn112  1  0.89187178  0.58438150  0.62813250  1
  Mn  Mn113  1  0.39154086  0.24897105  0.37731736  1
  Mn  Mn114  1  0.35809045  0.41624673  0.50274687  1
  Mn  Mn115  1  0.60751924  0.75050283  0.37273951  1
  Mn  Mn116  1  0.60654133  0.74965642  0.62250046  1
  Mn  Mn117  1  0.14214117  0.91657682  0.99774613  1
  Mn  Mn118  1  0.85797088  0.74951958  0.50312773  1
  Mn  Mn119  1  0.85941675  0.41574535  0.25184486  1
  Mn  Mn120  1  0.35808363  0.08431329  0.50280299  1
  Mn  Mn121  1  0.64228714  0.24996891  0.24739858  1
  Mn  Mn122  1  0.39131227  0.58358393  0.37685007  1
  Mn  Mn123  1  0.10795607  0.75061646  0.12262039  1
  Mn  Mn124  1  0.35797018  0.74952214  0.50293910  1
  Mn  Mn125  1  0.60812323  0.41678170  0.37221805  1
  Mn  Mn126  1  0.10729692  0.08331990  0.12323570  1
  Mn  Mn127  1  0.35834270  0.08363386  0.00288327  1
  Mn  Mn128  1  0.89230977  0.91641282  0.87626557  1
  Mn  Mn129  1  0.14211423  0.58235667  0.49816409  1
  Mn  Mn130  1  0.14190242  0.91651353  0.24805954  1
  Mn  Mn131  1  0.60708232  0.08331924  0.87208743  1
  Mn  Mn132  1  0.64305013  0.58326535  0.24738443  1
  Mn  Mn133  1  0.89348193  0.58341375  0.87681852  1
  Mn  Mn134  1  0.89248511  0.25018939  0.87667527  1
  Mn  Mn135  1  0.10699422  0.08261285  0.37260694  1
  Mn  Mn136  1  0.14240628  0.91719574  0.49747244  1
  Mn  Mn137  1  0.10749460  0.75032129  0.37240529  1
  Mn  Mn138  1  0.89205211  0.24933470  0.62796981  1
  Mn  Mn139  1  0.85703589  0.08442281  0.75186880  1
  Mn  Mn140  1  0.85812954  0.41678453  0.00167244  1
  Mn  Mn141  1  0.35814939  0.08323501  0.25206897  1
  Mn  Mn142  1  0.64238359  0.91648230  0.49795108  1
  Mn  Mn143  1  0.35825820  0.41645141  0.75248392  1
  Fe  Fe144  1  0.60646380  0.74926083  0.87372448  1
  Fe  Fe145  1  0.39256038  0.91689798  0.62756805  1
  Fe  Fe146  1  0.64236726  0.58299980  0.49814645  1
  Fe  Fe147  1  0.64275516  0.25032899  0.49879532  1
  Fe  Fe148  1  0.60827662  0.08354070  0.12358521  1
  Fe  Fe149  1  0.60708850  0.41661349  0.62311112  1
  Fe  Fe150  1  0.10868638  0.41679197  0.12288033  1
  Fe  Fe151  1  0.39279672  0.25053395  0.87696122  1
  Fe  Fe152  1  0.64267492  0.91603589  0.99842398  1
  Fe  Fe153  1  0.85611051  0.41626572  0.75210045  1
  Fe  Fe154  1  0.85760878  0.75010360  0.00045421  1
  Fe  Fe155  1  0.64122628  0.24990915  0.74799997  1
  Fe  Fe156  1  0.10859830  0.41678400  0.87259439  1
  Fe  Fe157  1  0.64171484  0.91686497  0.74756286  1
  Fe  Fe158  1  0.89151949  0.91655831  0.12618390  1
  Fe  Fe159  1  0.35574328  0.41705967  0.25108009  1
  Fe  Fe160  1  0.89272067  0.58351816  0.37721082  1
  Fe  Fe161  1  0.10803983  0.75084480  0.62388314  1
  Fe  Fe162  1  0.35663758  0.41704857  0.00132861  1
  Fe  Fe163  1  0.14296786  0.58332682  0.99750164  1
  Fe  Fe164  1  0.14288463  0.25008365  0.49889915  1
  Fe  Fe165  1  0.10850141  0.75015375  0.87326011  1
  Fe  Fe166  1  0.39292401  0.91621862  0.87674420  1
  Fe  Fe167  1  0.39224057  0.91694322  0.37622296  1
  Fe  Fe168  1  0.14195039  0.58329745  0.24864934  1
  Fe  Fe169  1  0.39319712  0.25004240  0.62668787  1
  Fe  Fe170  1  0.10811382  0.08272604  0.62307673  1
  Fe  Fe171  1  0.89346480  0.91670547  0.62741730  1
  Fe  Fe172  1  0.14272876  0.25033457  0.24768777  1
  Fe  Fe173  1  0.89417063  0.58276825  0.12593856  1
  Fe  Fe174  1  0.64134506  0.25022886  0.99847786  1
  Fe  Fe175  1  0.60637596  0.08337222  0.62380184  1
  Fe  Fe176  1  0.85734962  0.08410512  0.25143640  1
  Fe  Fe177  1  0.39256847  0.24932188  0.12640621  1
  Fe  Fe178  1  0.14394480  0.58377537  0.74816510  1
  Fe  Fe179  1  0.14391122  0.24926633  0.74805598  1
  Fe  Fe180  1  0.35698520  0.74927856  0.25140744  1
  Fe  Fe181  1  0.39197303  0.58312195  0.87673463  1
  Fe  Fe182  1  0.35706741  0.75041133  0.75197245  1
  Fe  Fe183  1  0.14371151  0.25013510  0.99769289  1
  Fe  Fe184  1  0.14386691  0.91717744  0.74805070  1
  Fe  Fe185  1  0.89222625  0.91603758  0.37763085  1
  Fe  Fe186  1  0.60629413  0.41763560  0.87422918  1
  Fe  Fe187  1  0.85719461  0.08432178  0.50309249  1
  Fe  Fe188  1  0.85654525  0.41623159  0.50217143  1
  Fe  Fe189  1  0.35693965  0.74946441  0.00099151  1
  Fe  Fe190  1  0.35762854  0.08300744  0.75074215  1
  Fe  Fe191  1  0.39285955  0.58289126  0.62629710  1
  P  P192  1  0.05581652  0.25088956  0.11011502  1
  P  P193  1  0.05516016  0.25023097  0.36079128  1
  P  P194  1  0.05549951  0.24880577  0.61087675  1
  P  P195  1  0.05607962  0.25070404  0.85992432  1
  P  P196  1  0.05529432  0.58266891  0.11010191  1
  P  P197  1  0.05236338  0.58339945  0.35958631  1
  P  P198  1  0.05493787  0.58417830  0.61203015  1
  P  P199  1  0.05661865  0.58346511  0.86050587  1
  P  P200  1  0.05135101  0.91697985  0.10990597  1
  P  P201  1  0.05117177  0.91662224  0.35993391  1
  P  P202  1  0.05456199  0.91695011  0.61141541  1
  P  P203  1  0.05464171  0.91598499  0.85894265  1
  P  P204  1  0.55239458  0.24943805  0.10947328  1
  P  P205  1  0.55464681  0.24972363  0.36106262  1
  P  P206  1  0.55387226  0.24995450  0.61095527  1
  P  P207  1  0.55355044  0.25128391  0.86092091  1
  P  P208  1  0.55230502  0.58333220  0.11001610  1
  P  P209  1  0.55419085  0.58343897  0.36025475  1
  P  P210  1  0.55221580  0.58235321  0.60916813  1
  P  P211  1  0.55139869  0.58339126  0.86087009  1
  P  P212  1  0.55414486  0.91741255  0.10914028  1
  P  P213  1  0.55186747  0.91639258  0.35980702  1
  P  P214  1  0.55274954  0.91733072  0.61146940  1
  P  P215  1  0.55410975  0.91524456  0.86086148  1
  P  P216  1  0.44866408  0.08450069  0.13978407  1
  P  P217  1  0.44687911  0.08252364  0.39040522  1
  P  P218  1  0.44715804  0.08376937  0.64084832  1
  P  P219  1  0.44471614  0.08317515  0.88816975  1
  P  P220  1  0.44377180  0.41544484  0.13950489  1
  P  P221  1  0.44486511  0.41640553  0.38860296  1
  P  P222  1  0.44804773  0.41628874  0.63975998  1
  P  P223  1  0.44646254  0.41681187  0.89059357  1
  P  P224  1  0.44438258  0.74976102  0.13926139  1
  P  P225  1  0.44480042  0.75073268  0.38873050  1
  P  P226  1  0.44558860  0.74972638  0.64089113  1
  P  P227  1  0.44521599  0.75003547  0.88907637  1
  P  P228  1  0.94561300  0.08330289  0.14018570  1
  P  P229  1  0.94435087  0.08311302  0.39004859  1
  P  P230  1  0.94697426  0.08294922  0.63933349  1
  P  P231  1  0.94701964  0.08366432  0.88963413  1
  P  P232  1  0.94913046  0.41712546  0.13912254  1
  P  P233  1  0.94628190  0.41754383  0.39152899  1
  P  P234  1  0.94418662  0.41647935  0.64031657  1
  P  P235  1  0.94749070  0.41638971  0.88844697  1
  P  P236  1  0.94526921  0.74970947  0.13777823  1
  P  P237  1  0.94671006  0.74934439  0.39046330  1
  P  P238  1  0.94809864  0.75091603  0.64084736  1
  P  P239  1  0.94827021  0.74999454  0.89027642  1
  P  P240  1  0.19688900  0.08349758  0.23487343  1
  P  P241  1  0.19562494  0.08426145  0.48606506  1
  P  P242  1  0.19782533  0.08304030  0.73447833  1
  P  P243  1  0.19710088  0.08390546  0.98495824  1
  P  P244  1  0.19652594  0.41704202  0.23443264  1
  P  P245  1  0.19690279  0.41544290  0.48542960  1
  P  P246  1  0.19587345  0.41651546  0.73652395  1
  P  P247  1  0.19615831  0.41647939  0.98521288  1
  P  P248  1  0.19773949  0.74961144  0.23504732  1
  P  P249  1  0.19542875  0.75005782  0.48640185  1
  P  P250  1  0.19641069  0.75057766  0.73588975  1
  P  P251  1  0.19731332  0.74960013  0.98402716  1
  P  P252  1  0.69770506  0.08301200  0.23453053  1
  P  P253  1  0.69634561  0.08378626  0.48689864  1
  P  P254  1  0.69495130  0.08328487  0.73435523  1
  P  P255  1  0.69451676  0.08312653  0.98609211  1
  P  P256  1  0.69760649  0.41681311  0.23448104  1
  P  P257  1  0.69586867  0.41674241  0.48645912  1
  P  P258  1  0.69437813  0.41630253  0.73590118  1
  P  P259  1  0.69547242  0.41648977  0.98454045  1
  P  P260  1  0.69723711  0.75010730  0.23476259  1
  P  P261  1  0.69657715  0.74932057  0.48506365  1
  P  P262  1  0.69460727  0.75038093  0.73599756  1
  P  P263  1  0.69727509  0.75051327  0.98423693  1
  P  P264  1  0.30449133  0.25114836  0.01397424  1
  P  P265  1  0.30314012  0.25062480  0.26333756  1
  P  P266  1  0.30271089  0.25020112  0.51623848  1
  P  P267  1  0.30491536  0.24907922  0.76420395  1
  P  P268  1  0.30330527  0.58335646  0.01285586  1
  P  P269  1  0.30113446  0.58307672  0.26471803  1
  P  P270  1  0.30363427  0.58293223  0.51652895  1
  P  P271  1  0.30472232  0.58382461  0.76407645  1
  P  P272  1  0.30468062  0.91571923  0.01345320  1
  P  P273  1  0.30364729  0.91592162  0.26569679  1
  P  P274  1  0.30535299  0.91699858  0.51511247  1
  P  P275  1  0.30469991  0.91694539  0.76398581  1
  P  P276  1  0.80159480  0.25039386  0.01435033  1
  P  P277  1  0.80360260  0.24946016  0.26502864  1
  P  P278  1  0.80227370  0.25024925  0.51557828  1
  P  P279  1  0.80106529  0.25069114  0.76505071  1
  P  P280  1  0.80463408  0.58410641  0.01494727  1
  P  P281  1  0.80619392  0.58282170  0.26444821  1
  P  P282  1  0.80305429  0.58250307  0.51453471  1
  P  P283  1  0.80277171  0.58221582  0.76535596  1
  P  P284  1  0.80261078  0.91559031  0.01444658  1
  P  P285  1  0.80538413  0.91781535  0.26460001  1
  P  P286  1  0.80561140  0.91729400  0.51528185  1
  P  P287  1  0.80282165  0.91715178  0.76366268  1
  O  O288  1  0.05959350  0.25020263  0.18699290  1
  O  O289  1  0.05917933  0.25030092  0.43757589  1
  O  O290  1  0.06014059  0.24937147  0.68765221  1
  O  O291  1  0.06019945  0.25003643  0.93674765  1
  O  O292  1  0.05943713  0.58329639  0.18688363  1
  O  O293  1  0.05632349  0.58316951  0.43634465  1
  O  O294  1  0.05968886  0.58334277  0.68876771  1
  O  O295  1  0.06009515  0.58342417  0.93742798  1
  O  O296  1  0.05530492  0.91673866  0.18658375  1
  O  O297  1  0.05570348  0.91689840  0.43662232  1
  O  O298  1  0.05979033  0.91727072  0.68806524  1
  O  O299  1  0.05718763  0.91689445  0.93577326  1
  O  O300  1  0.55593222  0.25012712  0.18626164  1
  O  O301  1  0.55940701  0.25000993  0.43785908  1
  O  O302  1  0.55775792  0.25017959  0.68778207  1
  O  O303  1  0.55805192  0.25040794  0.93760039  1
  O  O304  1  0.55607899  0.58339801  0.18676331  1
  O  O305  1  0.55887963  0.58318370  0.43705989  1
  O  O306  1  0.55544222  0.58304990  0.68595832  1
  O  O307  1  0.55523401  0.58364983  0.93748435  1
  O  O308  1  0.55709885  0.91654648  0.18595190  1
  O  O309  1  0.55589954  0.91615680  0.43656790  1
  O  O310  1  0.55746886  0.91672392  0.68816085  1
  O  O311  1  0.55884694  0.91567087  0.93752772  1
  O  O312  1  0.44486570  0.08387265  0.06303689  1
  O  O313  1  0.44381445  0.08359222  0.31359956  1
  O  O314  1  0.44404733  0.08377066  0.56410179  1
  O  O315  1  0.44089979  0.08324532  0.81144615  1
  O  O316  1  0.43980204  0.41685477  0.06271205  1
  O  O317  1  0.43971534  0.41660392  0.31187245  1
  O  O318  1  0.44475510  0.41607149  0.56305277  1
  O  O319  1  0.44349823  0.41672777  0.81379147  1
  O  O320  1  0.44005105  0.74922801  0.06246244  1
  O  O321  1  0.44065576  0.74959118  0.31193635  1
  O  O322  1  0.44343876  0.74973922  0.56401826  1
  O  O323  1  0.44070287  0.75002737  0.81234639  1
  O  O324  1  0.94295483  0.08424935  0.06330945  1
  O  O325  1  0.94061526  0.08433826  0.31325465  1
  O  O326  1  0.94170970  0.08430672  0.56266733  1
  O  O327  1  0.94351734  0.08404485  0.81284730  1
  O  O328  1  0.94522626  0.41632392  0.06241087  1
  O  O329  1  0.94431696  0.41612314  0.31465553  1
  O  O330  1  0.93949501  0.41633041  0.56353463  1
  O  O331  1  0.94150812  0.41590235  0.81187607  1
  O  O332  1  0.94169471  0.75010086  0.06103859  1
  O  O333  1  0.94425530  0.74938444  0.31360639  1
  O  O334  1  0.94398596  0.74992292  0.56415911  1
  O  O335  1  0.94417367  0.74997463  0.81354755  1
  O  O336  1  0.19361665  0.08302668  0.06169474  1
  O  O337  1  0.19362699  0.08292780  0.31169033  1
  O  O338  1  0.19181305  0.08288817  0.56285339  1
  O  O339  1  0.19467689  0.08297025  0.81121009  1
  O  O340  1  0.19227123  0.41656387  0.06197090  1
  O  O341  1  0.19333586  0.41713002  0.31116808  1
  O  O342  1  0.19378753  0.41629180  0.56222174  1
  O  O343  1  0.19274809  0.41659385  0.81332678  1
  O  O344  1  0.19368737  0.75027743  0.06079128  1
  O  O345  1  0.19415929  0.75042344  0.31181213  1
  O  O346  1  0.19125921  0.75056896  0.56320791  1
  O  O347  1  0.19223567  0.75072291  0.81259678  1
  O  O348  1  0.69130601  0.08352541  0.06289347  1
  O  O349  1  0.69428719  0.08275628  0.31134142  1
  O  O350  1  0.69070759  0.08294488  0.56349028  1
  O  O351  1  0.69236704  0.08299289  0.81124392  1
  O  O352  1  0.69246758  0.41720441  0.06130991  1
  O  O353  1  0.69436545  0.41705072  0.31130309  1
  O  O354  1  0.69116200  0.41691983  0.56320033  1
  O  O355  1  0.68944440  0.41734665  0.81258270  1
  O  O356  1  0.69397566  0.74977051  0.06099172  1
  O  O357  1  0.69367692  0.75004204  0.31154219  1
  O  O358  1  0.69297745  0.75007790  0.56189484  1
  O  O359  1  0.68998950  0.74951360  0.81274132  1
  O  O360  1  0.30794092  0.24927913  0.18668799  1
  O  O361  1  0.30618512  0.25004269  0.43945140  1
  O  O362  1  0.30980711  0.25006925  0.68752577  1
  O  O363  1  0.30927711  0.25033696  0.93721600  1
  O  O364  1  0.30421718  0.58310802  0.18791959  1
  O  O365  1  0.30656871  0.58310283  0.43970692  1
  O  O366  1  0.30961780  0.58271348  0.68743534  1
  O  O367  1  0.30797025  0.58328899  0.93614927  1
  O  O368  1  0.30656052  0.91707357  0.18882607  1
  O  O369  1  0.30943397  0.91709003  0.43835863  1
  O  O370  1  0.30905042  0.91691310  0.68720679  1
  O  O371  1  0.30870914  0.91664785  0.93667352  1
  O  O372  1  0.80672975  0.25048480  0.18824315  1
  O  O373  1  0.80606894  0.25007247  0.43890439  1
  O  O374  1  0.80531957  0.25002851  0.68840366  1
  O  O375  1  0.80567306  0.25058014  0.93766929  1
  O  O376  1  0.81082075  0.58274784  0.18768949  1
  O  O377  1  0.80809028  0.58339238  0.43787630  1
  O  O378  1  0.80580911  0.58321766  0.68855944  1
  O  O379  1  0.80761199  0.58304132  0.93814721  1
  O  O380  1  0.80883989  0.91662537  0.18773457  1
  O  O381  1  0.80959030  0.91630553  0.43840008  1
  O  O382  1  0.80861033  0.91676592  0.68704675  1
  O  O383  1  0.80600545  0.91632992  0.93767987  1
  O  O384  1  0.23400477  0.25058073  0.03723958  1
  O  O385  1  0.23277252  0.25072284  0.28715203  1
  O  O386  1  0.23272762  0.24968880  0.54081271  1
  O  O387  1  0.23437065  0.24967746  0.78746895  1
  O  O388  1  0.23291665  0.58301348  0.03663261  1
  O  O389  1  0.23129772  0.58319304  0.29014923  1
  O  O390  1  0.23396180  0.58297420  0.54157934  1
  O  O391  1  0.23417108  0.58376338  0.78726526  1
  O  O392  1  0.23479075  0.91565503  0.03812183  1
  O  O393  1  0.23409251  0.91678095  0.29138975  1
  O  O394  1  0.23522339  0.91662078  0.53897646  1
  O  O395  1  0.23422565  0.91696413  0.78759625  1
  O  O396  1  0.73142831  0.25029797  0.03864441  1
  O  O397  1  0.73402618  0.24960692  0.29053533  1
  O  O398  1  0.73212738  0.25065155  0.54008110  1
  O  O399  1  0.73078578  0.25003520  0.78900272  1
  O  O400  1  0.73489083  0.58368901  0.04011465  1
  O  O401  1  0.73604363  0.58276159  0.28826501  1
  O  O402  1  0.73268471  0.58260852  0.53837881  1
  O  O403  1  0.73304058  0.58268191  0.79035402  1
  O  O404  1  0.73257420  0.91634192  0.03920210  1
  O  O405  1  0.73552506  0.91701392  0.28957520  1
  O  O406  1  0.73540193  0.91666891  0.53905875  1
  O  O407  1  0.73228269  0.91719081  0.78668637  1
  O  O408  1  0.26654643  0.08341393  0.20949744  1
  O  O409  1  0.26556300  0.08463899  0.46162981  1
  O  O410  1  0.26796742  0.08300937  0.70982695  1
  O  O411  1  0.26685386  0.08409666  0.96004330  1
  O  O412  1  0.26648065  0.41674522  0.20930328  1
  O  O413  1  0.26642072  0.41599160  0.45997136  1
  O  O414  1  0.26582033  0.41615820  0.71178270  1
  O  O415  1  0.26645479  0.41669878  0.96093959  1
  O  O416  1  0.26763001  0.74923042  0.20997972  1
  O  O417  1  0.26551289  0.74978785  0.46259060  1
  O  O418  1  0.26691651  0.75037262  0.71225445  1
  O  O419  1  0.26735932  0.74996187  0.95938875  1
  O  O420  1  0.76763561  0.08337249  0.20976983  1
  O  O421  1  0.76683939  0.08357953  0.46369208  1
  O  O422  1  0.76459242  0.08386074  0.70900641  1
  O  O423  1  0.76429424  0.08296955  0.96085013  1
  O  O424  1  0.76727299  0.41644366  0.20936387  1
  O  O425  1  0.76621011  0.41638884  0.46255714  1
  O  O426  1  0.76481705  0.41672854  0.71238162  1
  O  O427  1  0.76528061  0.41655627  0.95949467  1
  O  O428  1  0.76709566  0.75039955  0.21027029  1
  O  O429  1  0.76635725  0.74961511  0.46026004  1
  O  O430  1  0.76474276  0.74979447  0.71197825  1
  O  O431  1  0.76728129  0.75006149  0.95923281  1
  O  O432  1  0.01519833  0.08346691  0.16582547  1
  O  O433  1  0.01442849  0.08336687  0.41434151  1
  O  O434  1  0.01742949  0.08289917  0.66271279  1
  O  O435  1  0.01680963  0.08318654  0.91440075  1
  O  O436  1  0.01909616  0.41710712  0.16394463  1
  O  O437  1  0.01576959  0.41735699  0.41743627  1
  O  O438  1  0.01459469  0.41623940  0.66341200  1
  O  O439  1  0.01810636  0.41703758  0.91122945  1
  O  O440  1  0.01511940  0.74977181  0.16284494  1
  O  O441  1  0.01615505  0.75008689  0.41636881  1
  O  O442  1  0.01826663  0.75053277  0.66502343  1
  O  O443  1  0.01848014  0.74997996  0.91434190  1
  O  O444  1  0.51860247  0.08385836  0.16462941  1
  O  O445  1  0.51643564  0.08249924  0.41590890  1
  O  O446  1  0.51710987  0.08391812  0.66590559  1
  O  O447  1  0.51481000  0.08334408  0.91235713  1
  O  O448  1  0.51376172  0.41625014  0.16391985  1
  O  O449  1  0.51505075  0.41637699  0.41214962  1
  O  O450  1  0.51795962  0.41631381  0.66487216  1
  O  O451  1  0.51645158  0.41680812  0.91551034  1
  O  O452  1  0.51453776  0.75036232  0.16305249  1
  O  O453  1  0.51465455  0.75025699  0.41346422  1
  O  O454  1  0.51520887  0.74980248  0.66642916  1
  O  O455  1  0.51561909  0.74992580  0.91297021  1
  O  O456  1  0.48238945  0.24982086  0.08466811  1
  O  O457  1  0.48452494  0.24956068  0.33731122  1
  O  O458  1  0.48354285  0.24974752  0.58671354  1
  O  O459  1  0.48302100  0.25068537  0.83744879  1
  O  O460  1  0.48237997  0.58315957  0.08555536  1
  O  O461  1  0.48404290  0.58358406  0.33646117  1
  O  O462  1  0.48214039  0.58294539  0.58443569  1
  O  O463  1  0.48128160  0.58309370  0.83619727  1
  O  O464  1  0.48436342  0.91691864  0.08407638  1
  O  O465  1  0.48196571  0.91691465  0.33503530  1
  O  O466  1  0.48228521  0.91665267  0.58800070  1
  O  O467  1  0.48355204  0.91612329  0.83752165  1
  O  O468  1  0.98584657  0.25029506  0.08554074  1
  O  O469  1  0.98503430  0.25048471  0.33683109  1
  O  O470  1  0.98524877  0.24970673  0.58728445  1
  O  O471  1  0.98600415  0.24984240  0.83566873  1
  O  O472  1  0.98502128  0.58314623  0.08600748  1
  O  O473  1  0.98235609  0.58292699  0.33515417  1
  O  O474  1  0.98477626  0.58411023  0.58825235  1
  O  O475  1  0.98659899  0.58334881  0.83604057  1
  O  O476  1  0.98127384  0.91674343  0.08535642  1
  O  O477  1  0.98095551  0.91640110  0.33608622  1
  O  O478  1  0.98413233  0.91702397  0.58788908  1
  O  O479  1  0.98493949  0.91659977  0.83365715  1
  O  O480  1  0.08943412  0.31617615  0.07746543  1
  O  O481  1  0.08890732  0.31523936  0.32769588  1
  O  O482  1  0.08930667  0.31373141  0.57753904  1
  O  O483  1  0.08951238  0.31595969  0.82710958  1
  O  O484  1  0.08910139  0.64760657  0.07678780  1
  O  O485  1  0.08608402  0.64846912  0.32657109  1
  O  O486  1  0.08837516  0.64933276  0.57924629  1
  O  O487  1  0.09030720  0.64876455  0.82793572  1
  O  O488  1  0.08510217  0.98205311  0.07712966  1
  O  O489  1  0.08454833  0.98170082  0.32680264  1
  O  O490  1  0.08764205  0.98198682  0.57763170  1
  O  O491  1  0.08942238  0.98063337  0.82618274  1
  O  O492  1  0.58643782  0.31446653  0.07662506  1
  O  O493  1  0.58789938  0.31467589  0.32750689  1
  O  O494  1  0.58733992  0.31502287  0.57771816  1
  O  O495  1  0.58653281  0.31656262  0.82789916  1
  O  O496  1  0.58607008  0.64841787  0.07720005  1
  O  O497  1  0.58769457  0.64856389  0.32729395  1
  O  O498  1  0.58652247  0.64721005  0.57639136  1
  O  O499  1  0.58497831  0.64839754  0.82769785  1
  O  O500  1  0.58806322  0.98272665  0.07708770  1
  O  O501  1  0.58614995  0.98140615  0.32741636  1
  O  O502  1  0.58558184  0.98268598  0.57825790  1
  O  O503  1  0.58767227  0.98018473  0.82725377  1
  O  O504  1  0.41444490  0.01955093  0.17240643  1
  O  O505  1  0.41247530  0.01743079  0.42223828  1
  O  O506  1  0.41304891  0.01872798  0.67348082  1
  O  O507  1  0.41158801  0.01788407  0.92125905  1
  O  O508  1  0.41059565  0.34980517  0.17182394  1
  O  O509  1  0.41169559  0.35128162  0.42203955  1
  O  O510  1  0.41408642  0.35127923  0.67259048  1
  O  O511  1  0.41230854  0.35175156  0.92301421  1
  O  O512  1  0.41094428  0.68473203  0.17280484  1
  O  O513  1  0.41088788  0.68586850  0.42205537  1
  O  O514  1  0.41127248  0.68458373  0.67296505  1
  O  O515  1  0.41166535  0.68503655  0.92238913  1
  O  O516  1  0.91118662  0.01805720  0.17179391  1
  O  O517  1  0.91075790  0.01783185  0.42259192  1
  O  O518  1  0.91361353  0.01777918  0.67230055  1
  O  O519  1  0.91272144  0.01848060  0.92166079  1
  O  O520  1  0.91536058  0.35209755  0.17225559  1
  O  O521  1  0.91156808  0.35275052  0.42419302  1
  O  O522  1  0.91072109  0.35149139  0.67376779  1
  O  O523  1  0.91486943  0.35132338  0.92256516  1
  O  O524  1  0.91187858  0.68428877  0.17046849  1
  O  O525  1  0.91295931  0.68383047  0.42274359  1
  O  O526  1  0.91417987  0.68605071  0.67401536  1
  O  O527  1  0.91432058  0.68507930  0.92311730  1
  O  O528  1  0.16278809  0.01838281  0.20234240  1
  O  O529  1  0.16225228  0.01921945  0.45249695  1
  O  O530  1  0.16380491  0.01805295  0.70166257  1
  O  O531  1  0.16335217  0.01876054  0.95213767  1
  O  O532  1  0.16239482  0.35207894  0.20169405  1
  O  O533  1  0.16296254  0.35019512  0.45334921  1
  O  O534  1  0.16198423  0.35144998  0.70388742  1
  O  O535  1  0.16271175  0.35131473  0.95214028  1
  O  O536  1  0.16344209  0.68459465  0.20284907  1
  O  O537  1  0.16190384  0.68487247  0.45360395  1
  O  O538  1  0.16291216  0.68550170  0.70274677  1
  O  O539  1  0.16353835  0.68444241  0.95149626  1
  O  O540  1  0.66366461  0.01806992  0.20179160  1
  O  O541  1  0.66350885  0.01866793  0.45288645  1
  O  O542  1  0.66073365  0.01824425  0.70186231  1
  O  O543  1  0.66065537  0.01789004  0.95355849  1
  O  O544  1  0.66314553  0.35171390  0.20245200  1
  O  O545  1  0.66244804  0.35154804  0.45345061  1
  O  O546  1  0.66127122  0.35095734  0.70278916  1
  O  O547  1  0.66099821  0.35148658  0.95238377  1
  O  O548  1  0.66355276  0.68507536  0.20182919  1
  O  O549  1  0.66266464  0.68405832  0.45294727  1
  O  O550  1  0.66088262  0.68537688  0.70280538  1
  O  O551  1  0.66277759  0.68564183  0.95143424  1
  O  O552  1  0.33737815  0.31644238  0.04701194  1
  O  O553  1  0.33629341  0.31595554  0.29621542  1
  O  O554  1  0.33655598  0.31522750  0.54910935  1
  O  O555  1  0.33837186  0.31397784  0.79803916  1
  O  O556  1  0.33621236  0.64855953  0.04621757  1
  O  O557  1  0.33538687  0.64805554  0.29718066  1
  O  O558  1  0.33802888  0.64781796  0.54901653  1
  O  O559  1  0.33782595  0.64898626  0.79729843  1
  O  O560  1  0.33819692  0.98075972  0.04689572  1
  O  O561  1  0.33868246  0.98060404  0.29820837  1
  O  O562  1  0.33881936  0.98210421  0.54835160  1
  O  O563  1  0.33817148  0.98195342  0.79714397  1
  O  O564  1  0.83550616  0.31535967  0.04732163  1
  O  O565  1  0.83792617  0.31437240  0.29779171  1
  O  O566  1  0.83616889  0.31523375  0.54826113  1
  O  O567  1  0.83450505  0.31597644  0.79783893  1
  O  O568  1  0.83868917  0.64949876  0.04669289  1
  O  O569  1  0.83957602  0.64797641  0.29783620  1
  O  O570  1  0.83629394  0.64754590  0.54838724  1
  O  O571  1  0.83726126  0.64709641  0.79784860  1
  O  O572  1  0.83696617  0.98035163  0.04742254  1
  O  O573  1  0.83875633  0.98335309  0.29681123  1
  O  O574  1  0.83904538  0.98264071  0.54792745  1
  O  O575  1  0.83579205  0.98231144  0.79713286  1
  O  O576  1  0.41484328  0.14964531  0.17235543  1
  O  O577  1  0.41282058  0.14762856  0.42317408  1
  O  O578  1  0.41290645  0.14879983  0.67326846  1
  O  O579  1  0.41139684  0.14837455  0.92124630  1
  O  O580  1  0.40938437  0.48001528  0.17298722  1
  O  O581  1  0.41160937  0.48150628  0.42197449  1
  O  O582  1  0.41401335  0.48137108  0.67232435  1
  O  O583  1  0.41218860  0.48178504  0.92309648  1
  O  O584  1  0.41042639  0.81471082  0.17205269  1
  O  O585  1  0.41141720  0.81613757  0.42128666  1
  O  O586  1  0.41113972  0.81475913  0.67318709  1
  O  O587  1  0.41189775  0.81521275  0.92226382  1
  O  O588  1  0.91133337  0.14830767  0.17284324  1
  O  O589  1  0.91060024  0.14798852  0.42371997  1
  O  O590  1  0.91387937  0.14792143  0.67329203  1
  O  O591  1  0.91322950  0.14870516  0.92245883  1
  O  O592  1  0.91518133  0.48224762  0.17150023  1
  O  O593  1  0.91181848  0.48287799  0.42303736  1
  O  O594  1  0.91096366  0.48155274  0.67368121  1
  O  O595  1  0.91434221  0.48144567  0.92198690  1
  O  O596  1  0.91134641  0.81466284  0.17080263  1
  O  O597  1  0.91188264  0.81419056  0.42250595  1
  O  O598  1  0.91454535  0.81621630  0.67337518  1
  O  O599  1  0.91417559  0.81504934  0.92282658  1
  O  O600  1  0.08999608  0.18609456  0.07698832  1
  O  O601  1  0.08867104  0.18523173  0.32747354  1
  O  O602  1  0.08864851  0.18356758  0.57779953  1
  O  O603  1  0.09032553  0.18591714  0.82673687  1
  O  O604  1  0.08876801  0.51755785  0.07702408  1
  O  O605  1  0.08666332  0.51854757  0.32674342  1
  O  O606  1  0.08790407  0.51890620  0.57842729  1
  O  O607  1  0.09056446  0.51854453  0.82757009  1
  O  O608  1  0.08546821  0.85206395  0.07708655  1
  O  O609  1  0.08481690  0.85159642  0.32691717  1
  O  O610  1  0.08755617  0.85162117  0.57820518  1
  O  O611  1  0.08878707  0.85062264  0.82714390  1
  O  O612  1  0.58647790  0.18441083  0.07699339  1
  O  O613  1  0.58812406  0.18449198  0.32823942  1
  O  O614  1  0.58754019  0.18478350  0.57813438  1
  O  O615  1  0.58706474  0.18644362  0.82711710  1
  O  O616  1  0.58624094  0.51828439  0.07744852  1
  O  O617  1  0.58750269  0.51833345  0.32700085  1
  O  O618  1  0.58603130  0.51708996  0.57680964  1
  O  O619  1  0.58516690  0.51822726  0.82819462  1
  O  O620  1  0.58852262  0.85253673  0.07627191  1
  O  O621  1  0.58546774  0.85141060  0.32670483  1
  O  O622  1  0.58618148  0.85250570  0.57776454  1
  O  O623  1  0.58697270  0.85007488  0.82743912  1
  O  O624  1  0.33805268  0.18642443  0.04792822  1
  O  O625  1  0.33631762  0.18573556  0.29739266  1
  O  O626  1  0.33722864  0.18550216  0.54900748  1
  O  O627  1  0.33780685  0.18380452  0.79732184  1
  O  O628  1  0.33656888  0.51832455  0.04625847  1
  O  O629  1  0.33512757  0.51785977  0.29700624  1
  O  O630  1  0.33798050  0.51791901  0.54894659  1
  O  O631  1  0.33786399  0.51886471  0.79804455  1
  O  O632  1  0.33842270  0.85050617  0.04574857  1
  O  O633  1  0.33746743  0.85035544  0.29746296  1
  O  O634  1  0.33924593  0.85218935  0.54835308  1
  O  O635  1  0.33802793  0.85182737  0.79732660  1
  O  O636  1  0.83542675  0.18532545  0.04698851  1
  O  O637  1  0.83759872  0.18414660  0.29708731  1
  O  O638  1  0.83577411  0.18506506  0.54867875  1
  O  O639  1  0.83496205  0.18576231  0.79805113  1
  O  O640  1  0.83927785  0.51930980  0.04773611  1
  O  O641  1  0.83988996  0.51793527  0.29776851  1
  O  O642  1  0.83641453  0.51739063  0.54758864  1
  O  O643  1  0.83673605  0.51688157  0.79740634  1
  O  O644  1  0.83633553  0.85026555  0.04680633  1
  O  O645  1  0.83978500  0.85312452  0.29786285  1
  O  O646  1  0.83959818  0.85254121  0.54872834  1
  O  O647  1  0.83590695  0.85211055  0.79741228  1
  O  O648  1  0.16271360  0.14868118  0.20279399  1
  O  O649  1  0.16168340  0.14946591  0.45388516  1
  O  O650  1  0.16378356  0.14812097  0.70197719  1
  O  O651  1  0.16311783  0.14909091  0.95266694  1
  O  O652  1  0.16272372  0.48220766  0.20173064  1
  O  O653  1  0.16253303  0.48042217  0.45284599  1
  O  O654  1  0.16235768  0.48168561  0.70368062  1
  O  O655  1  0.16237526  0.48137520  0.95206445  1
  O  O656  1  0.16411744  0.81479205  0.20200397  1
  O  O657  1  0.16219851  0.81506171  0.45284977  1
  O  O658  1  0.16321660  0.81566810  0.70234801  1
  O  O659  1  0.16309032  0.81443948  0.95115505  1
  O  O660  1  0.66333833  0.14792964  0.20194236  1
  O  O661  1  0.66338402  0.14906651  0.45372267  1
  O  O662  1  0.66021555  0.14838846  0.70260785  1
  O  O663  1  0.66059450  0.14819475  0.95325918  1
  O  O664  1  0.66350439  0.48172730  0.20183429  1
  O  O665  1  0.66281296  0.48186834  0.45294231  1
  O  O666  1  0.66076183  0.48103829  0.70200673  1
  O  O667  1  0.66126352  0.48153524  0.95172975  1
  O  O668  1  0.66322528  0.81520487  0.20231420  1
  O  O669  1  0.66266404  0.81456821  0.45247034  1
  O  O670  1  0.66141149  0.81569026  0.70298553  1
  O  O671  1  0.66315662  0.81563450  0.95191419  1
