# generated using pymatgen
data_Na2MnFe(PO4)2
_symmetry_space_group_name_H-M   'P 1'
_cell_length_a   21.08494883
_cell_length_b   18.93665950
_cell_length_c   20.04381504
_cell_angle_alpha   90.00072401
_cell_angle_beta   89.99955144
_cell_angle_gamma   90.00053792
_symmetry_Int_Tables_number   1
_chemical_formula_structural   Na2MnFe(PO4)2
_chemical_formula_sum   'Na96 Mn48 Fe48 P96 O384'
_cell_volume   8003.06433361
_cell_formula_units_Z   48
loop_
 _symmetry_equiv_pos_site_id
 _symmetry_equiv_pos_as_xyz
  1  'x, y, z'
loop_
 _atom_site_type_symbol
 _atom_site_label
 _atom_site_symmetry_multiplicity
 _atom_site_fract_x
 _atom_site_fract_y
 _atom_site_fract_z
 _atom_site_occupancy
  Na  Na0  1  0.00149980  0.00033929  0.00027629  1
  Na  Na1  1  -0.00054256  0.00019385  0.25030624  1
  Na  Na2  1  -0.00296440  -0.00074387  0.50047806  1
  Na  Na3  1  -0.00003386  -0.00009447  0.74890580  1
  Na  Na4  1  0.00210074  0.33394284  0.00026731  1
  Na  Na5  1  0.00018793  0.33307415  0.24990965  1
  Na  Na6  1  0.00007302  0.33352305  0.49840217  1
  Na  Na7  1  0.00022535  0.33284819  0.75110107  1
  Na  Na8  1  -0.00015912  0.66647818  0.00016101  1
  Na  Na9  1  0.00162769  0.66715100  0.24915924  1
  Na  Na10  1  0.00057587  0.66692076  0.50063655  1
  Na  Na11  1  -0.00127735  0.66603416  0.75062754  1
  Na  Na12  1  0.49893899  -0.00044413  0.00114523  1
  Na  Na13  1  0.50111838  0.00055346  0.24921140  1
  Na  Na14  1  0.50106269  -0.00002726  0.49969260  1
  Na  Na15  1  0.49969146  -0.00005152  0.75054152  1
  Na  Na16  1  0.49803860  0.33268233  0.00032807  1
  Na  Na17  1  0.49792909  0.33317587  0.25057049  1
  Na  Na18  1  0.50004998  0.33380653  0.49841428  1
  Na  Na19  1  0.50000129  0.33340225  0.75054678  1
  Na  Na20  1  0.50184898  0.66764379  -0.00086985  1
  Na  Na21  1  0.50170233  0.66730679  0.24856886  1
  Na  Na22  1  0.50108434  0.66712561  0.50049258  1
  Na  Na23  1  0.50031405  0.66707833  0.75129527  1
  Na  Na24  1  0.25289498  0.00088497  0.12410118  1
  Na  Na25  1  0.25095811  0.00048266  0.37429701  1
  Na  Na26  1  0.24957769  -0.00027598  0.62533180  1
  Na  Na27  1  0.25060378  -0.00015249  0.87602881  1
  Na  Na28  1  0.25070004  0.33348930  0.12510116  1
  Na  Na29  1  0.25195408  0.33366363  0.37382650  1
  Na  Na30  1  0.25064446  0.33373292  0.62662099  1
  Na  Na31  1  0.24914866  0.33318566  0.87438293  1
  Na  Na32  1  0.24839384  0.66629942  0.12579428  1
  Na  Na33  1  0.24829792  0.66655445  0.37554639  1
  Na  Na34  1  0.24838568  0.66666512  0.62354990  1
  Na  Na35  1  0.25072242  0.66818323  0.87558387  1
  Na  Na36  1  0.74724351  -0.00043118  0.12372475  1
  Na  Na37  1  0.74974960  0.00033090  0.37490371  1
  Na  Na38  1  0.75199027  0.00065926  0.62642630  1
  Na  Na39  1  0.74910963  -0.00042579  0.87524891  1
  Na  Na40  1  0.75138319  0.33419085  0.12489471  1
  Na  Na41  1  0.74931422  0.33286844  0.37546948  1
  Na  Na42  1  0.74931539  0.33278823  0.62523204  1
  Na  Na43  1  0.74972048  0.33334187  0.87401599  1
  Na  Na44  1  0.74761586  0.66611513  0.12433208  1
  Na  Na45  1  0.75070726  0.66729316  0.37566689  1
  Na  Na46  1  0.75089290  0.66688049  0.62500041  1
  Na  Na47  1  0.74896478  0.66635378  0.87498162  1
  Na  Na48  1  0.00300941  0.16533462  0.00017408  1
  Na  Na49  1  -0.00038122  0.16645781  0.25101608  1
  Na  Na50  1  -0.00080237  0.16655467  0.49858369  1
  Na  Na51  1  0.00070195  0.16646950  0.75004893  1
  Na  Na52  1  0.00041253  0.49986063  0.00130583  1
  Na  Na53  1  0.00046836  0.49944765  0.24902509  1
  Na  Na54  1  -0.00251691  0.50162300  0.50014499  1
  Na  Na55  1  -0.00018728  0.50000229  0.74999036  1
  Na  Na56  1  0.00060866  0.83340502  -0.00097851  1
  Na  Na57  1  0.00193972  0.83234206  0.24958964  1
  Na  Na58  1  0.00009666  0.83315881  0.50045292  1
  Na  Na59  1  -0.00081060  0.83369581  0.75063694  1
  Na  Na60  1  0.50121573  0.16581332  -0.00007087  1
  Na  Na61  1  0.50008777  0.16686160  0.24986940  1
  Na  Na62  1  0.50197748  0.16596737  0.49893376  1
  Na  Na63  1  0.49925592  0.16748245  0.75074690  1
  Na  Na64  1  0.49912316  0.49983171  0.00060221  1
  Na  Na65  1  0.49758999  0.50042739  0.24907511  1
  Na  Na66  1  0.49848028  0.50021938  0.49972302  1
  Na  Na67  1  0.50092036  0.49954344  0.75014166  1
  Na  Na68  1  0.49935341  0.83359328  0.00027136  1
  Na  Na69  1  0.50260235  0.83247551  0.24929422  1
  Na  Na70  1  0.50202176  0.83234262  0.49991838  1
  Na  Na71  1  0.49902255  0.83322737  0.75134541  1
  Na  Na72  1  0.25032049  0.16629120  0.12460516  1
  Na  Na73  1  0.24930875  0.16763490  0.37408135  1
  Na  Na74  1  0.25071379  0.16610446  0.62620509  1
  Na  Na75  1  0.24907929  0.16675976  0.87432426  1
  Na  Na76  1  0.25060850  0.49955112  0.12465940  1
  Na  Na77  1  0.25155610  0.49949424  0.37551820  1
  Na  Na78  1  0.24987095  0.50004699  0.62493506  1
  Na  Na79  1  0.24905780  0.50021362  0.87559437  1
  Na  Na80  1  0.25110108  0.83332663  0.12547670  1
  Na  Na81  1  0.24895978  0.83360029  0.37432829  1
  Na  Na82  1  0.24862778  0.83349455  0.62418258  1
  Na  Na83  1  0.25171347  0.83271446  0.87614668  1
  Na  Na84  1  0.74841872  0.16664769  0.12471068  1
  Na  Na85  1  0.75033395  0.16615196  0.37422394  1
  Na  Na86  1  0.75090399  0.16585688  0.62661926  1
  Na  Na87  1  0.74695433  0.16745020  0.87489182  1
  Na  Na88  1  0.75080531  0.50046496  0.12449308  1
  Na  Na89  1  0.75300514  0.49902110  0.37640037  1
  Na  Na90  1  0.75055347  0.50050665  0.62437362  1
  Na  Na91  1  0.75137761  0.49991595  0.87387069  1
  Na  Na92  1  0.74652153  0.83427724  0.12402858  1
  Na  Na93  1  0.74699857  0.83400062  0.37510058  1
  Na  Na94  1  0.75106652  0.83255905  0.62568823  1
  Na  Na95  1  0.75009823  0.83271960  0.87522104  1
  Mn  Mn96  1  0.35852439  0.08414484  0.50188587  1
  Mn  Mn97  1  0.14263579  0.91697453  0.24725166  1
  Mn  Mn98  1  0.89108661  0.91533656  0.37651507  1
  Mn  Mn99  1  0.10809629  0.41745197  0.37282408  1
  Mn  Mn100  1  0.14180331  0.58214835  0.49738726  1
  Mn  Mn101  1  0.89243705  0.58365686  0.12736427  1
  Mn  Mn102  1  0.85812163  0.75075916  0.50239575  1
  Mn  Mn103  1  0.14120724  0.91790849  0.49755416  1
  Mn  Mn104  1  0.85770543  0.41538575  0.50290102  1
  Mn  Mn105  1  0.85729192  0.75023850  0.25168404  1
  Mn  Mn106  1  0.14187294  0.24991810  0.74687767  1
  Mn  Mn107  1  0.85817858  0.08294288  0.75342309  1
  Mn  Mn108  1  0.60729015  0.41751858  0.37223449  1
  Mn  Mn109  1  0.89171334  0.91693748  0.12673803  1
  Mn  Mn110  1  0.60792220  0.08356391  0.62251409  1
  Mn  Mn111  1  0.39183578  0.58381180  0.87715135  1
  Mn  Mn112  1  0.39348634  0.91577679  0.37693903  1
  Mn  Mn113  1  0.85657790  0.74996783  0.00214548  1
  Mn  Mn114  1  0.89164350  0.25043612  0.37747828  1
  Mn  Mn115  1  0.85812953  0.41691974  0.75223587  1
  Mn  Mn116  1  0.39193981  0.24952981  0.87785400  1
  Mn  Mn117  1  0.14283859  0.25008979  0.24726557  1
  Mn  Mn118  1  0.60776315  0.41649414  0.12265415  1
  Mn  Mn119  1  0.64170216  0.25027354  0.74714108  1
  Mn  Mn120  1  0.85717659  0.08374443  0.00194872  1
  Mn  Mn121  1  0.64230292  0.58274956  0.49744677  1
  Mn  Mn122  1  0.64255834  0.91761393  0.49864525  1
  Mn  Mn123  1  0.10737758  0.08269563  0.37275198  1
  Mn  Mn124  1  0.10703577  0.08334400  0.62212705  1
  Mn  Mn125  1  0.10790823  0.75006774  0.87238387  1
  Mn  Mn126  1  0.39235205  0.58345422  0.12736936  1
  Mn  Mn127  1  0.39208120  0.58349891  0.62787597  1
  Mn  Mn128  1  0.35776763  0.74999270  0.50213302  1
  Mn  Mn129  1  0.89289633  0.24974487  0.87832698  1
  Mn  Mn130  1  0.14247919  0.58308431  0.99756011  1
  Mn  Mn131  1  0.39240408  0.24993085  0.37803323  1
  Mn  Mn132  1  0.60789625  0.41672909  0.87347770  1
  Mn  Mn133  1  0.35787280  0.74951256  0.25246741  1
  Mn  Mn134  1  0.64242054  0.58298093  0.24838266  1
  Mn  Mn135  1  0.39191109  0.91659232  0.62741806  1
  Mn  Mn136  1  0.89266660  0.24920139  0.12609860  1
  Mn  Mn137  1  0.10754996  0.41650946  0.62228278  1
  Mn  Mn138  1  0.64278967  0.58337289  0.74773381  1
  Mn  Mn139  1  0.14360283  0.91716256  0.99813167  1
  Mn  Mn140  1  0.35760739  0.41793208  0.75228033  1
  Mn  Mn141  1  0.35759436  0.08215089  0.75242084  1
  Mn  Mn142  1  0.64235217  0.25049957  0.24707809  1
  Mn  Mn143  1  0.64231498  0.91610821  0.74826282  1
  Fe  Fe144  1  0.85837168  0.41654235  0.25132909  1
  Fe  Fe145  1  0.35695111  0.75001206  0.75095215  1
  Fe  Fe146  1  0.14266832  0.58299868  0.24886855  1
  Fe  Fe147  1  0.10801449  0.41632449  0.12313915  1
  Fe  Fe148  1  0.14345843  0.24973021  0.99911192  1
  Fe  Fe149  1  0.60634105  0.75063662  0.87283370  1
  Fe  Fe150  1  0.64137731  0.91682773  0.99707119  1
  Fe  Fe151  1  0.89237131  0.25010043  0.62627816  1
  Fe  Fe152  1  0.10727039  0.41673768  0.87384299  1
  Fe  Fe153  1  0.85667386  0.08325641  0.25078354  1
  Fe  Fe154  1  0.14185340  0.58456015  0.74864548  1
  Fe  Fe155  1  0.10813599  0.08279580  0.87357368  1
  Fe  Fe156  1  0.60704017  0.41687867  0.62295828  1
  Fe  Fe157  1  0.14282423  0.25008412  0.49913876  1
  Fe  Fe158  1  0.35813331  0.08357317  0.25163143  1
  Fe  Fe159  1  0.10786559  0.75053475  0.12308593  1
  Fe  Fe160  1  0.64189659  0.25087543  0.99873164  1
  Fe  Fe161  1  0.10727890  0.74999700  0.37352942  1
  Fe  Fe162  1  0.39309377  0.25007895  0.62566051  1
  Fe  Fe163  1  0.89331643  0.91675137  0.87699915  1
  Fe  Fe164  1  0.35797282  0.74974983  0.00250979  1
  Fe  Fe165  1  0.85682790  0.08362654  0.50131532  1
  Fe  Fe166  1  0.60787649  0.74965443  0.37327779  1
  Fe  Fe167  1  0.35668116  0.41642519  0.00175296  1
  Fe  Fe168  1  0.39229918  0.91664727  0.87668213  1
  Fe  Fe169  1  0.64276291  0.58259909  0.99777443  1
  Fe  Fe170  1  0.39212915  0.58426622  0.37623901  1
  Fe  Fe171  1  0.89304235  0.58336089  0.87699741  1
  Fe  Fe172  1  0.60675947  0.08373186  0.12288891  1
  Fe  Fe173  1  0.39410468  0.91694594  0.12699277  1
  Fe  Fe174  1  0.89326051  0.58406740  0.37575990  1
  Fe  Fe175  1  0.60624358  0.08275003  0.87401491  1
  Fe  Fe176  1  0.60843893  0.08299244  0.37258147  1
  Fe  Fe177  1  0.85776851  0.74997978  0.75197217  1
  Fe  Fe178  1  0.39235124  0.24919120  0.12588630  1
  Fe  Fe179  1  0.10659198  0.75011276  0.62431707  1
  Fe  Fe180  1  0.89293309  0.58359500  0.62703992  1
  Fe  Fe181  1  0.60757204  0.74953357  0.62414723  1
  Fe  Fe182  1  0.89265299  0.91629069  0.62757240  1
  Fe  Fe183  1  0.10827592  0.08301084  0.12366078  1
  Fe  Fe184  1  0.60721534  0.75000975  0.12254438  1
  Fe  Fe185  1  0.14255163  0.91566678  0.74878503  1
  Fe  Fe186  1  0.64260196  0.24968648  0.49897266  1
  Fe  Fe187  1  0.35764349  0.08385463  0.00207444  1
  Fe  Fe188  1  0.35751540  0.41624748  0.50209785  1
  Fe  Fe189  1  0.85776467  0.41648127  0.00124042  1
  Fe  Fe190  1  0.35684334  0.41688386  0.25131506  1
  Fe  Fe191  1  0.64219529  0.91696262  0.24796883  1
  P  P192  1  0.05471264  0.24952714  0.10975528  1
  P  P193  1  0.05463014  0.25015235  0.36086478  1
  P  P194  1  0.05207282  0.24997807  0.60872367  1
  P  P195  1  0.05555395  0.24974990  0.86180802  1
  P  P196  1  0.05531797  0.58327520  0.11133543  1
  P  P197  1  0.05298109  0.58390260  0.35928016  1
  P  P198  1  0.05333350  0.58432856  0.61152330  1
  P  P199  1  0.05287083  0.58262557  0.86004443  1
  P  P200  1  0.05375804  0.91690877  0.10983678  1
  P  P201  1  0.05282623  0.91603257  0.35973232  1
  P  P202  1  0.05291724  0.91562524  0.61157639  1
  P  P203  1  0.05345785  0.91734482  0.85971607  1
  P  P204  1  0.55238655  0.24978064  0.10974993  1
  P  P205  1  0.55496648  0.24961179  0.36079307  1
  P  P206  1  0.55259853  0.25095178  0.60906928  1
  P  P207  1  0.55451295  0.24950743  0.86153797  1
  P  P208  1  0.55425857  0.58342867  0.10913999  1
  P  P209  1  0.55170878  0.58375358  0.35963207  1
  P  P210  1  0.55356390  0.58343625  0.61036901  1
  P  P211  1  0.55454330  0.58377721  0.86123291  1
  P  P212  1  0.55459596  0.91702138  0.11065832  1
  P  P213  1  0.55495578  0.91658616  0.35937744  1
  P  P214  1  0.55318613  0.91555544  0.61056199  1
  P  P215  1  0.55293602  0.91671317  0.86158149  1
  P  P216  1  0.44605660  0.08361386  0.13895271  1
  P  P217  1  0.44781518  0.08287235  0.38855500  1
  P  P218  1  0.44692914  0.08439985  0.64001627  1
  P  P219  1  0.44660573  0.08241615  0.89084149  1
  P  P220  1  0.44443534  0.41547651  0.13924193  1
  P  P221  1  0.44410470  0.41802595  0.38904463  1
  P  P222  1  0.44666119  0.41566954  0.63884739  1
  P  P223  1  0.44573371  0.41695569  0.89092407  1
  P  P224  1  0.44694571  0.75061471  0.13861680  1
  P  P225  1  0.44824481  0.74925469  0.38968498  1
  P  P226  1  0.44743390  0.74983834  0.64101899  1
  P  P227  1  0.44528744  0.75070148  0.88945311  1
  P  P228  1  0.94760193  0.08335215  0.14029434  1
  P  P229  1  0.94399435  0.08278571  0.38924518  1
  P  P230  1  0.94471827  0.08392226  0.63855251  1
  P  P231  1  0.94835543  0.08238935  0.89029738  1
  P  P232  1  0.94649090  0.41602797  0.13893081  1
  P  P233  1  0.94547095  0.41792045  0.38860055  1
  P  P234  1  0.94666211  0.41609423  0.63989240  1
  P  P235  1  0.94751418  0.41741086  0.89082251  1
  P  P236  1  0.94777418  0.75047168  0.13945540  1
  P  P237  1  0.94770654  0.74908555  0.38963409  1
  P  P238  1  0.94682574  0.75003160  0.64079588  1
  P  P239  1  0.94546027  0.75004074  0.88903571  1
  P  P240  1  0.19788344  0.08314941  0.23413380  1
  P  P241  1  0.19693653  0.08471754  0.48479949  1
  P  P242  1  0.19503858  0.08161104  0.73625747  1
  P  P243  1  0.19672274  0.08398665  0.98588053  1
  P  P244  1  0.19724593  0.41753189  0.23465166  1
  P  P245  1  0.19804227  0.41522790  0.48508460  1
  P  P246  1  0.19484543  0.41823637  0.73630775  1
  P  P247  1  0.19604597  0.41554922  0.98589126  1
  P  P248  1  0.19494901  0.74925959  0.23574682  1
  P  P249  1  0.19427819  0.75020407  0.48546907  1
  P  P250  1  0.19695682  0.75039251  0.73465288  1
  P  P251  1  0.19710377  0.75050183  0.98638168  1
  P  P252  1  0.69562541  0.08278824  0.23495286  1
  P  P253  1  0.69720088  0.08424827  0.48476862  1
  P  P254  1  0.69524932  0.08268168  0.73662899  1
  P  P255  1  0.69385174  0.08366696  0.98550998  1
  P  P256  1  0.69847703  0.41717610  0.23498217  1
  P  P257  1  0.69522492  0.41564428  0.48616802  1
  P  P258  1  0.69608681  0.41705028  0.73385267  1
  P  P259  1  0.69808429  0.41682246  0.98492407  1
  P  P260  1  0.69456739  0.75039436  0.23516505  1
  P  P261  1  0.69512084  0.74997922  0.48587199  1
  P  P262  1  0.69651799  0.75000224  0.73577454  1
  P  P263  1  0.69362305  0.74983834  0.98522932  1
  P  P264  1  0.30291216  0.24977705  0.01511835  1
  P  P265  1  0.30543992  0.24958549  0.26319080  1
  P  P266  1  0.30279483  0.25076204  0.51589276  1
  P  P267  1  0.30470002  0.24999588  0.76389547  1
  P  P268  1  0.30353744  0.58362536  0.01512366  1
  P  P269  1  0.30255835  0.58293185  0.26547962  1
  P  P270  1  0.30442249  0.58276840  0.51389511  1
  P  P271  1  0.30144056  0.58482608  0.76495490  1
  P  P272  1  0.30651345  0.91667861  0.01461955  1
  P  P273  1  0.30544115  0.91742995  0.26355106  1
  P  P274  1  0.30305779  0.91681602  0.51471914  1
  P  P275  1  0.30251450  0.91528914  0.76568330  1
  P  P276  1  0.80175166  0.25045190  0.01461590  1
  P  P277  1  0.80373951  0.24983625  0.26430411  1
  P  P278  1  0.80226155  0.24880699  0.51580494  1
  P  P279  1  0.80456045  0.25003945  0.76458711  1
  P  P280  1  0.80363681  0.58282530  0.01350236  1
  P  P281  1  0.80403216  0.58307176  0.26562101  1
  P  P282  1  0.80555147  0.58368893  0.51454335  1
  P  P283  1  0.80582947  0.58437234  0.76451381  1
  P  P284  1  0.80239240  0.91682536  0.01349567  1
  P  P285  1  0.80122502  0.91716344  0.26418733  1
  P  P286  1  0.80388821  0.91743006  0.51593724  1
  P  P287  1  0.80547010  0.91544894  0.76529542  1
  O  O288  1  0.05694485  0.24969933  0.18660444  1
  O  O289  1  0.05914604  0.25025660  0.43754605  1
  O  O290  1  0.05612601  0.24991355  0.68552302  1
  O  O291  1  0.05978628  0.24967785  0.93852385  1
  O  O292  1  0.05914189  0.58287515  0.18805816  1
  O  O293  1  0.05605819  0.58267820  0.43607411  1
  O  O294  1  0.05799463  0.58370066  0.68818402  1
  O  O295  1  0.05675093  0.58344732  0.93678124  1
  O  O296  1  0.05652736  0.91692574  0.18659641  1
  O  O297  1  0.05540244  0.91722759  0.43654820  1
  O  O298  1  0.05788828  0.91625622  0.68817529  1
  O  O299  1  0.05782737  0.91676044  0.93637707  1
  O  O300  1  0.55606331  0.25082564  0.18648043  1
  O  O301  1  0.55925320  0.24986935  0.43747406  1
  O  O302  1  0.55571420  0.25043771  0.68589743  1
  O  O303  1  0.55859537  0.25068777  0.93828687  1
  O  O304  1  0.55719049  0.58242129  0.18592292  1
  O  O305  1  0.55569337  0.58279550  0.43630315  1
  O  O306  1  0.55659576  0.58327065  0.68715264  1
  O  O307  1  0.55861352  0.58254133  0.93794257  1
  O  O308  1  0.55887817  0.91700474  0.18736340  1
  O  O309  1  0.55743969  0.91716528  0.43618117  1
  O  O310  1  0.55598102  0.91628644  0.68734114  1
  O  O311  1  0.55708343  0.91660907  0.93831108  1
  O  O312  1  0.44151765  0.08400063  0.06226580  1
  O  O313  1  0.44278929  0.08333497  0.31191220  1
  O  O314  1  0.44436386  0.08361469  0.56318770  1
  O  O315  1  0.44304958  0.08313367  0.81410238  1
  O  O316  1  0.44006391  0.41628533  0.06248746  1
  O  O317  1  0.43985761  0.41722100  0.31224374  1
  O  O318  1  0.44198517  0.41630790  0.56214608  1
  O  O319  1  0.44278764  0.41716016  0.81407290  1
  O  O320  1  0.44218378  0.74970742  0.06196627  1
  O  O321  1  0.44437800  0.74978730  0.31297642  1
  O  O322  1  0.44353945  0.74976935  0.56431402  1
  O  O323  1  0.44039921  0.74977218  0.81280820  1
  O  O324  1  0.94337915  0.08339606  0.06359042  1
  O  O325  1  0.93962243  0.08295832  0.31247512  1
  O  O326  1  0.94075827  0.08397586  0.56180054  1
  O  O327  1  0.94445605  0.08312109  0.81359688  1
  O  O328  1  0.94115946  0.41613305  0.06226659  1
  O  O329  1  0.94176491  0.41649806  0.31179629  1
  O  O330  1  0.94391032  0.41613533  0.56305794  1
  O  O331  1  0.94375155  0.41658166  0.81412942  1
  O  O332  1  0.94318159  0.75042395  0.06279789  1
  O  O333  1  0.94383852  0.74997014  0.31295922  1
  O  O334  1  0.94386155  0.75022603  0.56406086  1
  O  O335  1  0.94179601  0.74996737  0.81235582  1
  O  O336  1  0.19210052  0.08291381  0.06253722  1
  O  O337  1  0.19336135  0.08294099  0.31080228  1
  O  O338  1  0.19343920  0.08358299  0.56159918  1
  O  O339  1  0.19130032  0.08231271  0.81307044  1
  O  O340  1  0.19159254  0.41637015  0.06261632  1
  O  O341  1  0.19377707  0.41684408  0.31136894  1
  O  O342  1  0.19402920  0.41625458  0.56180593  1
  O  O343  1  0.19068771  0.41751661  0.81308059  1
  O  O344  1  0.19185802  0.75061745  0.06297972  1
  O  O345  1  0.19074090  0.75015791  0.31252683  1
  O  O346  1  0.18975298  0.75026292  0.56220247  1
  O  O347  1  0.19390290  0.75041214  0.81150707  1
  O  O348  1  0.68996022  0.08354461  0.06236142  1
  O  O349  1  0.69155013  0.08331799  0.31171823  1
  O  O350  1  0.69386098  0.08340778  0.56155912  1
  O  O351  1  0.69015393  0.08253326  0.81329689  1
  O  O352  1  0.69445485  0.41696044  0.06160693  1
  O  O353  1  0.69414800  0.41717664  0.31164861  1
  O  O354  1  0.69081081  0.41675885  0.56287626  1
  O  O355  1  0.69280399  0.41702285  0.81063126  1
  O  O356  1  0.68990172  0.75021097  0.06211213  1
  O  O357  1  0.69095056  0.74937362  0.31201847  1
  O  O358  1  0.69106108  0.74952830  0.56264282  1
  O  O359  1  0.69104712  0.75020477  0.81241869  1
  O  O360  1  0.30905315  0.24915551  0.18648299  1
  O  O361  1  0.30635319  0.24994054  0.43903274  1
  O  O362  1  0.30941850  0.24999669  0.68723672  1
  O  O363  1  0.30579902  0.24960398  0.93834944  1
  O  O364  1  0.30638057  0.58399609  0.18877204  1
  O  O365  1  0.30857370  0.58410065  0.43717260  1
  O  O366  1  0.30523042  0.58389808  0.68824437  1
  O  O367  1  0.30617284  0.58406011  0.93834193  1
  O  O368  1  0.30999542  0.91667626  0.18680113  1
  O  O369  1  0.30688348  0.91642388  0.43794143  1
  O  O370  1  0.30593217  0.91633173  0.68894621  1
  O  O371  1  0.30980868  0.91654328  0.93775756  1
  O  O372  1  0.80669829  0.24980678  0.18756147  1
  O  O373  1  0.80581108  0.24990702  0.43905476  1
  O  O374  1  0.80911105  0.24994197  0.68788215  1
  O  O375  1  0.80572060  0.24956905  0.93791932  1
  O  O376  1  0.80659974  0.58416842  0.18873158  1
  O  O377  1  0.80990920  0.58415505  0.43783494  1
  O  O378  1  0.80997513  0.58371495  0.68769971  1
  O  O379  1  0.80864353  0.58344442  0.93684599  1
  O  O380  1  0.80480960  0.91643649  0.18746535  1
  O  O381  1  0.80603538  0.91596420  0.43909276  1
  O  O382  1  0.80971353  0.91618045  0.68848599  1
  O  O383  1  0.80847866  0.91685790  0.93695815  1
  O  O384  1  0.23300643  0.24981472  0.04022061  1
  O  O385  1  0.23549700  0.25020694  0.28777397  1
  O  O386  1  0.23293815  0.25014754  0.54094806  1
  O  O387  1  0.23451034  0.24997554  0.78751470  1
  O  O388  1  0.23393406  0.58325053  0.04046470  1
  O  O389  1  0.23247500  0.58311964  0.28999468  1
  O  O390  1  0.23434991  0.58280648  0.53801714  1
  O  O391  1  0.23157680  0.58476677  0.79001625  1
  O  O392  1  0.23648946  0.91691861  0.03903432  1
  O  O393  1  0.23535956  0.91703641  0.28756177  1
  O  O394  1  0.23324397  0.91697515  0.53936452  1
  O  O395  1  0.23262339  0.91569371  0.79071385  1
  O  O396  1  0.73175711  0.25040091  0.03936972  1
  O  O397  1  0.73410929  0.24988856  0.28969577  1
  O  O398  1  0.73230184  0.24926355  0.54061721  1
  O  O399  1  0.73435625  0.25025384  0.78810326  1
  O  O400  1  0.73326833  0.58331051  0.03712456  1
  O  O401  1  0.73449629  0.58303696  0.29129936  1
  O  O402  1  0.73537671  0.58342699  0.53832235  1
  O  O403  1  0.73568903  0.58348173  0.78831250  1
  O  O404  1  0.73169218  0.91680008  0.03590978  1
  O  O405  1  0.73132314  0.91715514  0.28915270  1
  O  O406  1  0.73439826  0.91684948  0.54175889  1
  O  O407  1  0.73531552  0.91613814  0.78911175  1
  O  O408  1  0.26811988  0.08354829  0.21030959  1
  O  O409  1  0.26657929  0.08442052  0.45957461  1
  O  O410  1  0.26501105  0.08232829  0.71190271  1
  O  O411  1  0.26719325  0.08337076  0.96230894  1
  O  O412  1  0.26740415  0.41671427  0.21028205  1
  O  O413  1  0.26797847  0.41600115  0.46044061  1
  O  O414  1  0.26487126  0.41747309  0.71211543  1
  O  O415  1  0.26643669  0.41640165  0.96212820  1
  O  O416  1  0.26511317  0.74983364  0.21182824  1
  O  O417  1  0.26445605  0.75009015  0.46161935  1
  O  O418  1  0.26679296  0.75020626  0.70936804  1
  O  O419  1  0.26755821  0.75054099  0.96321057  1
  O  O420  1  0.76588399  0.08328913  0.21074586  1
  O  O421  1  0.76716576  0.08350072  0.46001267  1
  O  O422  1  0.76547800  0.08282627  0.71336104  1
  O  O423  1  0.76391264  0.08349928  0.96113982  1
  O  O424  1  0.76858604  0.41715687  0.21069063  1
  O  O425  1  0.76537421  0.41588014  0.46234595  1
  O  O426  1  0.76593807  0.41696670  0.70931614  1
  O  O427  1  0.76800326  0.41660030  0.95975151  1
  O  O428  1  0.76445073  0.74989702  0.21030893  1
  O  O429  1  0.76521522  0.75056773  0.46181958  1
  O  O430  1  0.76700047  0.74975954  0.71262993  1
  O  O431  1  0.76374410  0.74975398  0.96119459  1
  O  O432  1  0.01779313  0.08337073  0.16447716  1
  O  O433  1  0.01412922  0.08277478  0.41312672  1
  O  O434  1  0.01471724  0.08341815  0.66302065  1
  O  O435  1  0.01851217  0.08262192  0.91451961  1
  O  O436  1  0.01712435  0.41599155  0.16187890  1
  O  O437  1  0.01533010  0.41777942  0.41333988  1
  O  O438  1  0.01619308  0.41621464  0.66547295  1
  O  O439  1  0.01772974  0.41708422  0.91506688  1
  O  O440  1  0.01798615  0.75023651  0.16326359  1
  O  O441  1  0.01759019  0.74967510  0.41458286  1
  O  O442  1  0.01677190  0.74982102  0.66592719  1
  O  O443  1  0.01549889  0.74998283  0.91357641  1
  O  O444  1  0.51659215  0.08358630  0.16244979  1
  O  O445  1  0.51818577  0.08273766  0.41212272  1
  O  O446  1  0.51641210  0.08392172  0.66577153  1
  O  O447  1  0.51664506  0.08253069  0.91533594  1
  O  O448  1  0.51455929  0.41669698  0.16330350  1
  O  O449  1  0.51424215  0.41704221  0.41282634  1
  O  O450  1  0.51686861  0.41663021  0.66301819  1
  O  O451  1  0.51546479  0.41654452  0.91584010  1
  O  O452  1  0.51744323  0.75023550  0.16190265  1
  O  O453  1  0.51829963  0.74971649  0.41415791  1
  O  O454  1  0.51751079  0.74985019  0.66550920  1
  O  O455  1  0.51577358  0.75049407  0.91282218  1
  O  O456  1  0.48229374  0.24924802  0.08529729  1
  O  O457  1  0.48482809  0.25024611  0.33683907  1
  O  O458  1  0.48279757  0.24996269  0.58377377  1
  O  O459  1  0.48450258  0.25016433  0.83732825  1
  O  O460  1  0.48441192  0.58353747  0.08436971  1
  O  O461  1  0.48181216  0.58395005  0.33465868  1
  O  O462  1  0.48389184  0.58363247  0.58516049  1
  O  O463  1  0.48458745  0.58362293  0.83676051  1
  O  O464  1  0.48413869  0.91701723  0.08707300  1
  O  O465  1  0.48541671  0.91630072  0.33366578  1
  O  O466  1  0.48374516  0.91592307  0.58469145  1
  O  O467  1  0.48270821  0.91663087  0.83740125  1
  O  O468  1  0.98517941  0.24955719  0.08397300  1
  O  O469  1  0.98451604  0.24989141  0.33698822  1
  O  O470  1  0.98203209  0.25006950  0.58436633  1
  O  O471  1  0.98551447  0.24968337  0.83747149  1
  O  O472  1  0.98532653  0.58343625  0.08679218  1
  O  O473  1  0.98318855  0.58350109  0.33404996  1
  O  O474  1  0.98299923  0.58420797  0.58770903  1
  O  O475  1  0.98270566  0.58308454  0.83594248  1
  O  O476  1  0.98419675  0.91679788  0.08418938  1
  O  O477  1  0.98328716  0.91601205  0.33412971  1
  O  O478  1  0.98251777  0.91615585  0.58788829  1
  O  O479  1  0.98323584  0.91681612  0.83576991  1
  O  O480  1  0.08928667  0.31451566  0.07760074  1
  O  O481  1  0.08790691  0.31531547  0.32763212  1
  O  O482  1  0.08624752  0.31491693  0.57605624  1
  O  O483  1  0.08878034  0.31512584  0.82883249  1
  O  O484  1  0.08889977  0.64846114  0.07844679  1
  O  O485  1  0.08713419  0.64915086  0.32743429  1
  O  O486  1  0.08666934  0.64944145  0.57866696  1
  O  O487  1  0.08684702  0.64759975  0.82696849  1
  O  O488  1  0.08797962  0.98222996  0.07783497  1
  O  O489  1  0.08716336  0.98091554  0.32704706  1
  O  O490  1  0.08618156  0.98048974  0.57763676  1
  O  O491  1  0.08710297  0.98232134  0.82684285  1
  O  O492  1  0.58604894  0.31482177  0.07655522  1
  O  O493  1  0.58843372  0.31466233  0.32744870  1
  O  O494  1  0.58643633  0.31610793  0.57667196  1
  O  O495  1  0.58834780  0.31424341  0.82811074  1
  O  O496  1  0.58850492  0.64846240  0.07704031  1
  O  O497  1  0.58600944  0.64877977  0.32751627  1
  O  O498  1  0.58779919  0.64867578  0.57837377  1
  O  O499  1  0.58803435  0.64923995  0.82879354  1
  O  O500  1  0.58774191  0.98217963  0.07737730  1
  O  O501  1  0.58921739  0.98157059  0.32673971  1
  O  O502  1  0.58753798  0.98058702  0.57807746  1
  O  O503  1  0.58639630  0.98173724  0.82856298  1
  O  O504  1  0.41296943  0.01838951  0.17220064  1
  O  O505  1  0.41446162  0.01792604  0.42182009  1
  O  O506  1  0.41244263  0.01938825  0.67241699  1
  O  O507  1  0.41255725  0.01746389  0.92321929  1
  O  O508  1  0.41151626  0.34997722  0.17196903  1
  O  O509  1  0.41016340  0.35321954  0.42254545  1
  O  O510  1  0.41369286  0.35029427  0.67173651  1
  O  O511  1  0.41116778  0.35209409  0.92322550  1
  O  O512  1  0.41368777  0.68573016  0.17236912  1
  O  O513  1  0.41441485  0.68423733  0.42233533  1
  O  O514  1  0.41345139  0.68492673  0.67402852  1
  O  O515  1  0.41200664  0.68579167  0.92335447  1
  O  O516  1  0.91345104  0.01840057  0.17300646  1
  O  O517  1  0.91028283  0.01781936  0.42225764  1
  O  O518  1  0.91098855  0.01881278  0.67148917  1
  O  O519  1  0.91450804  0.01731540  0.92285463  1
  O  O520  1  0.91331143  0.35101052  0.17239794  1
  O  O521  1  0.91165512  0.35304229  0.42203544  1
  O  O522  1  0.91260034  0.35088802  0.67207854  1
  O  O523  1  0.91361472  0.35250635  0.92401550  1
  O  O524  1  0.91411485  0.68549093  0.17243171  1
  O  O525  1  0.91420680  0.68381432  0.42216007  1
  O  O526  1  0.91258519  0.68506945  0.67325627  1
  O  O527  1  0.91192336  0.68487549  0.92201498  1
  O  O528  1  0.16438114  0.01819113  0.20075869  1
  O  O529  1  0.16270547  0.01977143  0.45201169  1
  O  O530  1  0.16189297  0.01614335  0.70364117  1
  O  O531  1  0.16309420  0.01920142  0.95214798  1
  O  O532  1  0.16304113  0.35280948  0.20158116  1
  O  O533  1  0.16451956  0.34998159  0.45265519  1
  O  O534  1  0.16108248  0.35329717  0.70305379  1
  O  O535  1  0.16310062  0.35022861  0.95290861  1
  O  O536  1  0.16169553  0.68386306  0.20313306  1
  O  O537  1  0.16065340  0.68508202  0.45243284  1
  O  O538  1  0.16243169  0.68550648  0.70226433  1
  O  O539  1  0.16387779  0.68552316  0.95280900  1
  O  O540  1  0.66204925  0.01775679  0.20197204  1
  O  O541  1  0.66292966  0.01937888  0.45191574  1
  O  O542  1  0.66224754  0.01762351  0.70308158  1
  O  O543  1  0.66004999  0.01860536  0.95245019  1
  O  O544  1  0.66467150  0.35219762  0.20197570  1
  O  O545  1  0.66201561  0.35028453  0.45355107  1
  O  O546  1  0.66173326  0.35216598  0.70134175  1
  O  O547  1  0.66393532  0.35171270  0.95256622  1
  O  O548  1  0.66039196  0.68560916  0.20208507  1
  O  O549  1  0.66174218  0.68501309  0.45224487  1
  O  O550  1  0.66312452  0.68513805  0.70215074  1
  O  O551  1  0.66007527  0.68464795  0.95251675  1
  O  O552  1  0.33710997  0.31471956  0.04756150  1
  O  O553  1  0.33919980  0.31472347  0.29583732  1
  O  O554  1  0.33672483  0.31603620  0.54815659  1
  O  O555  1  0.33798914  0.31505283  0.79718357  1
  O  O556  1  0.33749547  0.64868032  0.04782530  1
  O  O557  1  0.33656225  0.64777557  0.29875751  1
  O  O558  1  0.33783301  0.64770344  0.54743170  1
  O  O559  1  0.33553691  0.65000584  0.79709018  1
  O  O560  1  0.34037764  0.98187346  0.04715853  1
  O  O561  1  0.33875221  0.98281128  0.29620602  1
  O  O562  1  0.33701984  0.98193803  0.54715705  1
  O  O563  1  0.33700770  0.97998649  0.79873852  1
  O  O564  1  0.83593320  0.31546862  0.04681429  1
  O  O565  1  0.83783989  0.31493663  0.29679345  1
  O  O566  1  0.83662223  0.31355374  0.54882513  1
  O  O567  1  0.83804224  0.31514430  0.79765029  1
  O  O568  1  0.83686575  0.64777027  0.04731580  1
  O  O569  1  0.83834087  0.64814249  0.29813343  1
  O  O570  1  0.83896693  0.64867627  0.54800077  1
  O  O571  1  0.83887706  0.64957907  0.79769789  1
  O  O572  1  0.83522770  0.98189746  0.04729913  1
  O  O573  1  0.83527768  0.98219508  0.29639699  1
  O  O574  1  0.83791407  0.98288950  0.54746061  1
  O  O575  1  0.83942244  0.98017564  0.79880771  1
  O  O576  1  0.41275358  0.14854368  0.17248927  1
  O  O577  1  0.41459196  0.14792128  0.42214113  1
  O  O578  1  0.41285363  0.14965884  0.67185787  1
  O  O579  1  0.41276700  0.14741989  0.92391777  1
  O  O580  1  0.41014922  0.48017541  0.17252144  1
  O  O581  1  0.41104124  0.48336841  0.42188809  1
  O  O582  1  0.41280082  0.48050848  0.67235871  1
  O  O583  1  0.41157636  0.48199342  0.92327887  1
  O  O584  1  0.41407078  0.81577782  0.17189396  1
  O  O585  1  0.41449042  0.81424980  0.42274221  1
  O  O586  1  0.41326053  0.81473897  0.67375301  1
  O  O587  1  0.41213981  0.81582774  0.92264265  1
  O  O588  1  0.91370233  0.14837533  0.17304671  1
  O  O589  1  0.91041849  0.14780269  0.42255998  1
  O  O590  1  0.91165840  0.14925811  0.67171232  1
  O  O591  1  0.91459815  0.14737922  0.92338015  1
  O  O592  1  0.91326962  0.48102737  0.17247103  1
  O  O593  1  0.91179323  0.48320326  0.42076076  1
  O  O594  1  0.91254262  0.48134431  0.67197471  1
  O  O595  1  0.91375789  0.48258647  0.92336835  1
  O  O596  1  0.91423133  0.81553228  0.17248291  1
  O  O597  1  0.91344611  0.81389949  0.42258917  1
  O  O598  1  0.91268712  0.81499420  0.67344290  1
  O  O599  1  0.91192611  0.81531488  0.92189021  1
  O  O600  1  0.08919754  0.18437062  0.07781093  1
  O  O601  1  0.08822193  0.18515951  0.32769893  1
  O  O602  1  0.08609004  0.18504627  0.57597832  1
  O  O603  1  0.08899323  0.18463152  0.82864097  1
  O  O604  1  0.08870099  0.51799173  0.07836121  1
  O  O605  1  0.08750919  0.51919945  0.32635189  1
  O  O606  1  0.08642869  0.51930624  0.57765256  1
  O  O607  1  0.08660712  0.51755462  0.82754324  1
  O  O608  1  0.08816497  0.85193983  0.07747347  1
  O  O609  1  0.08727598  0.85084910  0.32814703  1
  O  O610  1  0.08588529  0.85028968  0.57865818  1
  O  O611  1  0.08730629  0.85227411  0.82664660  1
  O  O612  1  0.58678789  0.18492070  0.07753404  1
  O  O613  1  0.58813438  0.18435759  0.32775880  1
  O  O614  1  0.58740001  0.18612369  0.57668568  1
  O  O615  1  0.58748354  0.18386873  0.82900749  1
  O  O616  1  0.58835987  0.51840799  0.07631433  1
  O  O617  1  0.58532123  0.51869654  0.32640473  1
  O  O618  1  0.58743357  0.51836571  0.57758375  1
  O  O619  1  0.58825185  0.51897908  0.82787156  1
  O  O620  1  0.58786977  0.85205880  0.07714321  1
  O  O621  1  0.58936844  0.85137298  0.32748936  1
  O  O622  1  0.58748855  0.85037743  0.57879975  1
  O  O623  1  0.58647358  0.85163653  0.82841189  1
  O  O624  1  0.33710675  0.18475849  0.04771072  1
  O  O625  1  0.33874934  0.18442164  0.29653439  1
  O  O626  1  0.33739670  0.18601361  0.54848499  1
  O  O627  1  0.33791215  0.18483192  0.79724102  1
  O  O628  1  0.33771601  0.51837581  0.04698486  1
  O  O629  1  0.33649515  0.51773411  0.29756533  1
  O  O630  1  0.33780547  0.51735258  0.54649961  1
  O  O631  1  0.33555249  0.51994658  0.79785708  1
  O  O632  1  0.34019328  0.85166727  0.04769077  1
  O  O633  1  0.33885363  0.85237621  0.29692011  1
  O  O634  1  0.33682125  0.85172485  0.54751572  1
  O  O635  1  0.33658047  0.85000752  0.79770947  1
  O  O636  1  0.83548235  0.18535564  0.04756029  1
  O  O637  1  0.83760825  0.18452337  0.29652109  1
  O  O638  1  0.83612573  0.18360182  0.54801630  1
  O  O639  1  0.83782453  0.18505725  0.79816261  1
  O  O640  1  0.83688996  0.51766394  0.04657824  1
  O  O641  1  0.83868871  0.51801080  0.29719543  1
  O  O642  1  0.83930573  0.51867980  0.54760540  1
  O  O643  1  0.83981997  0.51956287  0.79778230  1
  O  O644  1  0.83515275  0.85177382  0.04741991  1
  O  O645  1  0.83491346  0.85203450  0.29723298  1
  O  O646  1  0.83877028  0.85278598  0.54859045  1
  O  O647  1  0.83866170  0.85011836  0.79808345  1
  O  O648  1  0.16384409  0.14801978  0.20129616  1
  O  O649  1  0.16298936  0.15006941  0.45291709  1
  O  O650  1  0.16107237  0.14645098  0.70310514  1
  O  O651  1  0.16358627  0.14922505  0.95291109  1
  O  O652  1  0.16370612  0.48277805  0.20214266  1
  O  O653  1  0.16384579  0.48013313  0.45217259  1
  O  O654  1  0.16186003  0.48367597  0.70346885  1
  O  O655  1  0.16215371  0.48026857  0.95236301  1
  O  O656  1  0.16117414  0.81401862  0.20208444  1
  O  O657  1  0.16068613  0.81510021  0.45210938  1
  O  O658  1  0.16282379  0.81558762  0.70234323  1
  O  O659  1  0.16397623  0.81542100  0.95268168  1
  O  O660  1  0.66173419  0.14767631  0.20173426  1
  O  O661  1  0.66341155  0.14941131  0.45230082  1
  O  O662  1  0.66201444  0.14772377  0.70323129  1
  O  O663  1  0.66021180  0.14887693  0.95292488  1
  O  O664  1  0.66464408  0.48210212  0.20212455  1
  O  O665  1  0.66193319  0.48058043  0.45237269  1
  O  O666  1  0.66210275  0.48208774  0.70128370  1
  O  O667  1  0.66430140  0.48192153  0.95208741  1
  O  O668  1  0.66093128  0.81574884  0.20270534  1
  O  O669  1  0.66115260  0.81491620  0.45311269  1
  O  O670  1  0.66335002  0.81498497  0.70219766  1
  O  O671  1  0.66003533  0.81492267  0.95205203  1
