# generated using pymatgen
data_Na2MnFe(PO4)2
_symmetry_space_group_name_H-M   'P 1'
_cell_length_a   21.07982188
_cell_length_b   18.93071066
_cell_length_c   20.03892131
_cell_angle_alpha   90.00014546
_cell_angle_beta   90.00097224
_cell_angle_gamma   90.00042017
_symmetry_Int_Tables_number   1
_chemical_formula_structural   Na2MnFe(PO4)2
_chemical_formula_sum   'Na96 Mn48 Fe48 P96 O384'
_cell_volume   7996.65195610
_cell_formula_units_Z   48
loop_
 _symmetry_equiv_pos_site_id
 _symmetry_equiv_pos_as_xyz
  1  'x, y, z'
loop_
 _atom_site_type_symbol
 _atom_site_label
 _atom_site_symmetry_multiplicity
 _atom_site_fract_x
 _atom_site_fract_y
 _atom_site_fract_z
 _atom_site_occupancy
  Na  Na0  1  -0.00104253  0.00006636  -0.00046599  1
  Na  Na1  1  -0.00060841  0.00057872  0.24984910  1
  Na  Na2  1  -0.00293518  -0.00039027  0.50018040  1
  Na  Na3  1  -0.00050153  0.00055281  0.75045262  1
  Na  Na4  1  0.00274685  0.33486983  -0.00031243  1
  Na  Na5  1  -0.00014112  0.33267613  0.25051037  1
  Na  Na6  1  0.00217739  0.33475924  0.49930672  1
  Na  Na7  1  0.00046416  0.33348458  0.74983909  1
  Na  Na8  1  0.00237227  0.66646094  0.00045307  1
  Na  Na9  1  0.00095369  0.66596527  0.25012531  1
  Na  Na10  1  0.00116797  0.66658229  0.50070825  1
  Na  Na11  1  0.00108674  0.66601255  0.74969806  1
  Na  Na12  1  0.50000374  -0.00042648  0.00089063  1
  Na  Na13  1  0.50091781  0.00070313  0.24945848  1
  Na  Na14  1  0.49989998  -0.00042405  0.49918297  1
  Na  Na15  1  0.50169728  0.00071185  0.75007036  1
  Na  Na16  1  0.49910536  0.33315458  0.00167777  1
  Na  Na17  1  0.49795474  0.33251671  0.24934352  1
  Na  Na18  1  0.50068087  0.33351288  0.49875452  1
  Na  Na19  1  0.49916194  0.33273970  0.75062764  1
  Na  Na20  1  0.49910536  0.66645080  -0.00121117  1
  Na  Na21  1  0.50034509  0.66711678  0.25016541  1
  Na  Na22  1  0.49876538  0.66601437  0.50079078  1
  Na  Na23  1  0.49903376  0.66624223  0.75013655  1
  Na  Na24  1  0.24861512  0.00029686  0.12459146  1
  Na  Na25  1  0.24914047  0.00023934  0.37538393  1
  Na  Na26  1  0.25019914  0.00013875  0.62483726  1
  Na  Na27  1  0.24943037  -0.00020640  0.87474789  1
  Na  Na28  1  0.25262055  0.33399511  0.12397251  1
  Na  Na29  1  0.25138008  0.33311196  0.37517703  1
  Na  Na30  1  0.24985916  0.33302418  0.62552725  1
  Na  Na31  1  0.25084474  0.33345820  0.87474387  1
  Na  Na32  1  0.24877467  0.66662121  0.12557793  1
  Na  Na33  1  0.24729597  0.66531914  0.37439185  1
  Na  Na34  1  0.24997882  0.66689814  0.62577602  1
  Na  Na35  1  0.24829605  0.66585915  0.87467135  1
  Na  Na36  1  0.75113039  0.00086079  0.12461235  1
  Na  Na37  1  0.75040353  -0.00001397  0.37528389  1
  Na  Na38  1  0.75137979  0.00058560  0.62489718  1
  Na  Na39  1  0.75042193  0.00020888  0.87558700  1
  Na  Na40  1  0.74834616  0.33285708  0.12449339  1
  Na  Na41  1  0.74849904  0.33323533  0.37559963  1
  Na  Na42  1  0.74809813  0.33358439  0.62544107  1
  Na  Na43  1  0.74796546  0.33308311  0.87448535  1
  Na  Na44  1  0.75088912  0.66623478  0.12505057  1
  Na  Na45  1  0.75215365  0.66689106  0.37379698  1
  Na  Na46  1  0.75173118  0.66648642  0.62559238  1
  Na  Na47  1  0.74950211  0.66560910  0.87507892  1
  Na  Na48  1  -0.00039396  0.16634594  -0.00047863  1
  Na  Na49  1  -0.00063417  0.16610591  0.25043095  1
  Na  Na50  1  -0.00049990  0.16645899  0.49942960  1
  Na  Na51  1  -0.00183412  0.16688477  0.74962319  1
  Na  Na52  1  0.00107626  0.50012590  -0.00030278  1
  Na  Na53  1  0.00096343  0.49952637  0.25112950  1
  Na  Na54  1  -0.00019971  0.50048871  0.49959834  1
  Na  Na55  1  0.00231153  0.49910633  0.75110264  1
  Na  Na56  1  0.00194529  0.83402569  0.00010304  1
  Na  Na57  1  0.00188841  0.83306532  0.24955352  1
  Na  Na58  1  -0.00060671  0.83415122  0.50070752  1
  Na  Na59  1  0.00154160  0.83312294  0.74969690  1
  Na  Na60  1  0.49784560  0.16762932  0.00147431  1
  Na  Na61  1  0.49918940  0.16698683  0.24976183  1
  Na  Na62  1  0.50077116  0.16650907  0.49871093  1
  Na  Na63  1  0.49900966  0.16748807  0.75109790  1
  Na  Na64  1  0.49916931  0.50025755  0.00014939  1
  Na  Na65  1  0.49753607  0.50051324  0.24942498  1
  Na  Na66  1  0.49986521  0.49993886  0.49925786  1
  Na  Na67  1  0.50199700  0.49883529  0.74980246  1
  Na  Na68  1  0.50158433  0.83245522  -0.00014803  1
  Na  Na69  1  0.50203972  0.83268255  0.24959059  1
  Na  Na70  1  0.49895988  0.83397073  0.50087286  1
  Na  Na71  1  0.49887201  0.83384335  0.74992190  1
  Na  Na72  1  0.25176982  0.16662454  0.12423546  1
  Na  Na73  1  0.25195485  0.16646739  0.37410026  1
  Na  Na74  1  0.25038906  0.16764249  0.62515257  1
  Na  Na75  1  0.25239404  0.16616808  0.87503193  1
  Na  Na76  1  0.24954301  0.49989142  0.12465591  1
  Na  Na77  1  0.24853751  0.50001989  0.37525497  1
  Na  Na78  1  0.24794882  0.50034407  0.62563613  1
  Na  Na79  1  0.24830781  0.50040716  0.87450823  1
  Na  Na80  1  0.24754234  0.83418862  0.12566140  1
  Na  Na81  1  0.24812832  0.83435293  0.37529417  1
  Na  Na82  1  0.25133235  0.83285946  0.62557694  1
  Na  Na83  1  0.24819524  0.83426219  0.87451989  1
  Na  Na84  1  0.74822148  0.16733157  0.12487080  1
  Na  Na85  1  0.75017108  0.16573815  0.37534614  1
  Na  Na86  1  0.74932913  0.16663034  0.62548370  1
  Na  Na87  1  0.75107099  0.16564076  0.87508411  1
  Na  Na88  1  0.75220315  0.49879506  0.12477203  1
  Na  Na89  1  0.75087545  0.50001099  0.37563996  1
  Na  Na90  1  0.75056594  0.49940906  0.62529669  1
  Na  Na91  1  0.74847631  0.50022438  0.87457203  1
  Na  Na92  1  0.74967261  0.83355048  0.12448292  1
  Na  Na93  1  0.74983927  0.83387817  0.37377858  1
  Na  Na94  1  0.75150354  0.83261662  0.62512007  1
  Na  Na95  1  0.74896166  0.83383057  0.87527705  1
  Mn  Mn96  1  0.60876892  0.74968085  0.37339554  1
  Mn  Mn97  1  0.89125609  0.25015532  0.37742775  1
  Mn  Mn98  1  0.39194101  0.91618047  0.12754708  1
  Mn  Mn99  1  0.89190121  0.25043689  0.12728483  1
  Mn  Mn100  1  0.60741552  0.74981763  0.62258111  1
  Mn  Mn101  1  0.10826749  0.41666148  0.37220898  1
  Mn  Mn102  1  0.64139587  0.24984270  0.74756367  1
  Mn  Mn103  1  0.35719761  0.74981674  0.50187237  1
  Mn  Mn104  1  0.60775877  0.74924878  0.87229952  1
  Mn  Mn105  1  0.64279407  0.91696835  0.99813973  1
  Mn  Mn106  1  0.10739078  0.08303103  0.37269298  1
  Mn  Mn107  1  0.14176691  0.91708940  0.49822885  1
  Mn  Mn108  1  0.14333087  0.24995589  0.99789369  1
  Mn  Mn109  1  0.35732817  0.41710737  0.50281359  1
  Mn  Mn110  1  0.14262388  0.24955806  0.74754628  1
  Mn  Mn111  1  0.10795303  0.75018941  0.12244802  1
  Mn  Mn112  1  0.85803865  0.74974074  0.75314208  1
  Mn  Mn113  1  0.64271490  0.91608129  0.49838745  1
  Mn  Mn114  1  0.14305695  0.24974349  0.24732737  1
  Mn  Mn115  1  0.60808960  0.08322824  0.37228978  1
  Mn  Mn116  1  0.35722016  0.75047583  0.25246833  1
  Mn  Mn117  1  0.89179584  0.25086935  0.62688025  1
  Mn  Mn118  1  0.60758517  0.08365838  0.87330169  1
  Mn  Mn119  1  0.89329922  0.58346317  0.87687918  1
  Mn  Mn120  1  0.35683035  0.75016849  0.00252377  1
  Mn  Mn121  1  0.89310821  0.58375434  0.37707318  1
  Mn  Mn122  1  0.10782228  0.08375483  0.87267856  1
  Mn  Mn123  1  0.39193153  0.58260074  0.87703692  1
  Mn  Mn124  1  0.85815489  0.41586534  0.00201123  1
  Mn  Mn125  1  0.60744484  0.41707589  0.37200484  1
  Mn  Mn126  1  0.60698339  0.41737524  0.12310643  1
  Mn  Mn127  1  0.64203591  0.58253125  0.99848906  1
  Mn  Mn128  1  0.39110827  0.58357629  0.37727197  1
  Mn  Mn129  1  0.35875964  0.08266380  0.75197692  1
  Mn  Mn130  1  0.85751047  0.41636693  0.50310626  1
  Mn  Mn131  1  0.64245059  0.58310488  0.24707477  1
  Mn  Mn132  1  0.10696042  0.08419685  0.62268627  1
  Mn  Mn133  1  0.89185723  0.91596383  0.37641992  1
  Mn  Mn134  1  0.39206551  0.91667549  0.37634516  1
  Mn  Mn135  1  0.85875354  0.75006238  0.00219761  1
  Mn  Mn136  1  0.10765971  0.74988138  0.62242253  1
  Mn  Mn137  1  0.64259058  0.58379490  0.49836673  1
  Mn  Mn138  1  0.89188998  0.25074743  0.87733161  1
  Mn  Mn139  1  0.35825530  0.08326983  0.50275006  1
  Mn  Mn140  1  0.85821183  0.75016850  0.25193186  1
  Mn  Mn141  1  0.89272020  0.91598880  0.87677471  1
  Mn  Mn142  1  0.39201599  0.91719095  0.87752682  1
  Mn  Mn143  1  0.35793926  0.41741451  0.75208687  1
  Fe  Fe144  1  0.60698962  0.41642511  0.62361133  1
  Fe  Fe145  1  0.35723881  0.41710177  0.00158208  1
  Fe  Fe146  1  0.85885107  0.75010675  0.50166422  1
  Fe  Fe147  1  0.10798907  0.41558071  0.12351497  1
  Fe  Fe148  1  0.39153744  0.58376142  0.12647818  1
  Fe  Fe149  1  0.89213776  0.91624863  0.62752462  1
  Fe  Fe150  1  0.39309830  0.25006450  0.12692948  1
  Fe  Fe151  1  0.14304915  0.24991881  0.49826881  1
  Fe  Fe152  1  0.39275951  0.91686236  0.62729446  1
  Fe  Fe153  1  0.10710117  0.41615233  0.62362283  1
  Fe  Fe154  1  0.35713456  0.08320539  0.25102639  1
  Fe  Fe155  1  0.89348331  0.91651336  0.12662764  1
  Fe  Fe156  1  0.60743651  0.74966056  0.12339487  1
  Fe  Fe157  1  0.14297291  0.91699585  0.74763635  1
  Fe  Fe158  1  0.60755438  0.08361136  0.62360246  1
  Fe  Fe159  1  0.85662821  0.08330201  0.50214417  1
  Fe  Fe160  1  0.10831758  0.41659364  0.87289291  1
  Fe  Fe161  1  0.35664383  0.75007834  0.75143967  1
  Fe  Fe162  1  0.39203956  0.58308633  0.62711061  1
  Fe  Fe163  1  0.64271591  0.91618876  0.74794282  1
  Fe  Fe164  1  0.64181885  0.24996151  0.99856115  1
  Fe  Fe165  1  0.14204659  0.91755539  0.24808316  1
  Fe  Fe166  1  0.60680073  0.41663869  0.87372996  1
  Fe  Fe167  1  0.35734540  0.08282517  0.00233703  1
  Fe  Fe168  1  0.14275364  0.58380154  0.74768205  1
  Fe  Fe169  1  0.14227086  0.91711090  0.99811435  1
  Fe  Fe170  1  0.89388950  0.58313086  0.12640522  1
  Fe  Fe171  1  0.39304851  0.24983724  0.37687992  1
  Fe  Fe172  1  0.10748806  0.75058107  0.37385905  1
  Fe  Fe173  1  0.64237162  0.24978691  0.24854989  1
  Fe  Fe174  1  0.39279524  0.25029148  0.87714608  1
  Fe  Fe175  1  0.14234351  0.58291015  0.49881991  1
  Fe  Fe176  1  0.35671125  0.41656103  0.25139023  1
  Fe  Fe177  1  0.39328156  0.25001180  0.62571696  1
  Fe  Fe178  1  0.64288291  0.91705541  0.24767409  1
  Fe  Fe179  1  0.85658347  0.08408128  0.25077585  1
  Fe  Fe180  1  0.89340879  0.58302843  0.62711167  1
  Fe  Fe181  1  0.85696749  0.41644340  0.75165430  1
  Fe  Fe182  1  0.60711217  0.08303940  0.12332621  1
  Fe  Fe183  1  0.10837496  0.74996358  0.87287500  1
  Fe  Fe184  1  0.10713047  0.08415914  0.12318478  1
  Fe  Fe185  1  0.64187804  0.24978363  0.49844690  1
  Fe  Fe186  1  0.85727235  0.08381005  0.00230114  1
  Fe  Fe187  1  0.14279149  0.58289401  0.24747700  1
  Fe  Fe188  1  0.64274874  0.58366646  0.74747756  1
  Fe  Fe189  1  0.14282880  0.58326791  0.99853570  1
  Fe  Fe190  1  0.85782678  0.41573739  0.25087497  1
  Fe  Fe191  1  0.85642046  0.08369412  0.75136334  1
  P  P192  1  0.05344091  0.24968370  0.11005929  1
  P  P193  1  0.05420700  0.24969552  0.36063694  1
  P  P194  1  0.05354727  0.25080354  0.60916216  1
  P  P195  1  0.05367326  0.25042507  0.85983251  1
  P  P196  1  0.05478439  0.58182417  0.11086371  1
  P  P197  1  0.05589866  0.58428896  0.36076283  1
  P  P198  1  0.05414604  0.58217978  0.61087763  1
  P  P199  1  0.05642893  0.58344128  0.86074858  1
  P  P200  1  0.05428292  0.91846304  0.11057039  1
  P  P201  1  0.05368276  0.91631716  0.35948616  1
  P  P202  1  0.05267264  0.91728511  0.61122991  1
  P  P203  1  0.05567100  0.91634274  0.86019779  1
  P  P204  1  0.55429615  0.24933810  0.11133099  1
  P  P205  1  0.55387665  0.25001451  0.35985267  1
  P  P206  1  0.55276336  0.24997679  0.60944604  1
  P  P207  1  0.55313799  0.25078346  0.86198559  1
  P  P208  1  0.55137046  0.58417713  0.10999946  1
  P  P209  1  0.55302877  0.58338130  0.35965865  1
  P  P210  1  0.55284976  0.58270164  0.61115050  1
  P  P211  1  0.55401972  0.58208812  0.85932241  1
  P  P212  1  0.55474472  0.91659276  0.11126611  1
  P  P213  1  0.55437038  0.91653825  0.35910978  1
  P  P214  1  0.55335769  0.91726603  0.61127433  1
  P  P215  1  0.55414481  0.91674688  0.85935080  1
  P  P216  1  0.44589708  0.08353774  0.13949108  1
  P  P217  1  0.44540332  0.08379872  0.38835889  1
  P  P218  1  0.44839300  0.08369683  0.63970760  1
  P  P219  1  0.44605387  0.08386959  0.89134618  1
  P  P220  1  0.44405078  0.41712471  0.13917212  1
  P  P221  1  0.44470664  0.41594299  0.38852713  1
  P  P222  1  0.44762018  0.41639450  0.63964584  1
  P  P223  1  0.44694018  0.41617685  0.89080404  1
  P  P224  1  0.44728075  0.74939154  0.13986262  1
  P  P225  1  0.44695127  0.75027167  0.39038255  1
  P  P226  1  0.44529192  0.74979341  0.64068863  1
  P  P227  1  0.44503005  0.75003527  0.88891075  1
  P  P228  1  0.94590528  0.08300616  0.13930727  1
  P  P229  1  0.94396427  0.08328963  0.38937895  1
  P  P230  1  0.94402067  0.08299434  0.63953144  1
  P  P231  1  0.94441478  0.08342421  0.88943323  1
  P  P232  1  0.94811122  0.41718112  0.14044739  1
  P  P233  1  0.94548925  0.41649879  0.38912549  1
  P  P234  1  0.94721622  0.41759534  0.64079092  1
  P  P235  1  0.94741525  0.41696320  0.88886295  1
  P  P236  1  0.94720385  0.75005001  0.13971099  1
  P  P237  1  0.94795169  0.75004619  0.39064719  1
  P  P238  1  0.94549677  0.74967738  0.63927842  1
  P  P239  1  0.94918715  0.74978594  0.89010889  1
  P  P240  1  0.19704455  0.08329373  0.23421465  1
  P  P241  1  0.19662178  0.08465319  0.48504214  1
  P  P242  1  0.19696826  0.08283344  0.73466685  1
  P  P243  1  0.19681249  0.08334464  0.98605700  1
  P  P244  1  0.19743268  0.41648751  0.23419872  1
  P  P245  1  0.19508359  0.41625125  0.48657155  1
  P  P246  1  0.19498580  0.41702847  0.73544620  1
  P  P247  1  0.19633964  0.41695545  0.98561460  1
  P  P248  1  0.19479692  0.75030633  0.23647127  1
  P  P249  1  0.19571759  0.74925854  0.48472537  1
  P  P250  1  0.19609687  0.75030979  0.73604396  1
  P  P251  1  0.19569204  0.75011859  0.98455127  1
  P  P252  1  0.69678134  0.08341822  0.23440532  1
  P  P253  1  0.69601363  0.08362598  0.48650057  1
  P  P254  1  0.69661468  0.08259912  0.73481303  1
  P  P255  1  0.69636702  0.08409992  0.98639009  1
  P  P256  1  0.69787963  0.41607877  0.23485631  1
  P  P257  1  0.69473357  0.41623244  0.48638618  1
  P  P258  1  0.69530884  0.41741347  0.73575045  1
  P  P259  1  0.69569792  0.41580126  0.98447966  1
  P  P260  1  0.69635458  0.75047829  0.23400143  1
  P  P261  1  0.69922242  0.74974266  0.48505865  1
  P  P262  1  0.69661192  0.74967836  0.73498945  1
  P  P263  1  0.69594583  0.74945887  0.98595199  1
  P  P264  1  0.30612197  0.25018015  0.01401219  1
  P  P265  1  0.30579733  0.24992271  0.26378669  1
  P  P266  1  0.30398714  0.25019285  0.51465066  1
  P  P267  1  0.30597844  0.25012572  0.76439795  1
  P  P268  1  0.30226197  0.58273030  0.01514146  1
  P  P269  1  0.30282796  0.58264738  0.26364401  1
  P  P270  1  0.30194946  0.58322933  0.51596457  1
  P  P271  1  0.30316877  0.58391236  0.76386230  1
  P  P272  1  0.30166289  0.91712022  0.01507844  1
  P  P273  1  0.30147385  0.91776728  0.26474384  1
  P  P274  1  0.30381844  0.91669924  0.51581599  1
  P  P275  1  0.30361973  0.91612225  0.76397974  1
  P  P276  1  0.80180843  0.24963086  0.01491095  1
  P  P277  1  0.80187428  0.24995613  0.26468385  1
  P  P278  1  0.80130000  0.24948629  0.51529271  1
  P  P279  1  0.80298775  0.25047074  0.76475047  1
  P  P280  1  0.80457678  0.58280008  0.01548738  1
  P  P281  1  0.80541283  0.58205580  0.26345886  1
  P  P282  1  0.80470725  0.58403005  0.51582939  1
  P  P283  1  0.80374869  0.58196767  0.76397001  1
  P  P284  1  0.80481609  0.91727560  0.01549979  1
  P  P285  1  0.80349584  0.91769068  0.26300639  1
  P  P286  1  0.80446850  0.91636122  0.51541943  1
  P  P287  1  0.80312162  0.91726464  0.76412979  1
  O  O288  1  0.05634662  0.24928407  0.18682707  1
  O  O289  1  0.05884700  0.24976208  0.43733407  1
  O  O290  1  0.05663836  0.24950315  0.68595632  1
  O  O291  1  0.05726660  0.24977368  0.93658595  1
  O  O292  1  0.05916106  0.58230892  0.18764475  1
  O  O293  1  0.05931619  0.58312879  0.43759702  1
  O  O294  1  0.05877434  0.58320222  0.68762431  1
  O  O295  1  0.05999931  0.58327338  0.93762383  1
  O  O296  1  0.05875405  0.91806236  0.18730449  1
  O  O297  1  0.05633547  0.91750737  0.43632190  1
  O  O298  1  0.05814747  0.91736742  0.68787110  1
  O  O299  1  0.05950429  0.91746549  0.93707903  1
  O  O300  1  0.55909587  0.24986455  0.18803486  1
  O  O301  1  0.55870984  0.24982082  0.43657624  1
  O  O302  1  0.55582735  0.24985176  0.68638570  1
  O  O303  1  0.55762433  0.24995607  0.93866213  1
  O  O304  1  0.55549496  0.58332785  0.18667392  1
  O  O305  1  0.55669870  0.58326634  0.43645458  1
  O  O306  1  0.55806043  0.58337132  0.68778510  1
  O  O307  1  0.55680731  0.58323282  0.93611871  1
  O  O308  1  0.55888227  0.91708082  0.18801569  1
  O  O309  1  0.55741252  0.91671382  0.43597611  1
  O  O310  1  0.55855443  0.91666029  0.68792174  1
  O  O311  1  0.55747682  0.91659394  0.93618485  1
  O  O312  1  0.44109506  0.08238244  0.06279574  1
  O  O313  1  0.44110819  0.08300348  0.31163508  1
  O  O314  1  0.44511538  0.08325039  0.56295610  1
  O  O315  1  0.44361447  0.08283931  0.81450036  1
  O  O316  1  0.44057098  0.41744560  0.06236312  1
  O  O317  1  0.44046547  0.41672835  0.31177470  1
  O  O318  1  0.44411035  0.41684041  0.56291599  1
  O  O319  1  0.44359502  0.41693203  0.81404543  1
  O  O320  1  0.44330183  0.75010695  0.06310636  1
  O  O321  1  0.44348749  0.75033492  0.31358025  1
  O  O322  1  0.44259828  0.74968011  0.56386861  1
  O  O323  1  0.44024403  0.75020084  0.81219922  1
  O  O324  1  0.94129773  0.08401181  0.06255224  1
  O  O325  1  0.93954574  0.08377233  0.31257213  1
  O  O326  1  0.94004007  0.08380785  0.56268528  1
  O  O327  1  0.93975959  0.08354674  0.81265459  1
  O  O328  1  0.94453275  0.41648509  0.06368260  1
  O  O329  1  0.94090316  0.41565901  0.31239236  1
  O  O330  1  0.94359650  0.41692333  0.56400556  1
  O  O331  1  0.94176557  0.41652408  0.81229892  1
  O  O332  1  0.94487008  0.75022653  0.06292305  1
  O  O333  1  0.94406812  0.74993607  0.31390371  1
  O  O334  1  0.94198617  0.74994427  0.56249652  1
  O  O335  1  0.94483600  0.74978269  0.81336885  1
  O  O336  1  0.19179463  0.08422657  0.06267594  1
  O  O337  1  0.19329004  0.08392453  0.31092871  1
  O  O338  1  0.19323627  0.08427174  0.56179930  1
  O  O339  1  0.19390026  0.08365230  0.81145457  1
  O  O340  1  0.19176678  0.41597453  0.06231479  1
  O  O341  1  0.19396241  0.41572926  0.31098103  1
  O  O342  1  0.19131016  0.41617377  0.56332743  1
  O  O343  1  0.19142365  0.41606770  0.81230454  1
  O  O344  1  0.19309048  0.75015143  0.06143826  1
  O  O345  1  0.19137099  0.75037655  0.31320222  1
  O  O346  1  0.19333062  0.75013720  0.56163884  1
  O  O347  1  0.19217962  0.75019839  0.81274316  1
  O  O348  1  0.69126062  0.08363719  0.06301753  1
  O  O349  1  0.69383789  0.08305872  0.31121115  1
  O  O350  1  0.69111022  0.08332110  0.56316630  1
  O  O351  1  0.69324975  0.08319937  0.81155780  1
  O  O352  1  0.69254218  0.41666013  0.06128443  1
  O  O353  1  0.69415993  0.41715976  0.31158711  1
  O  O354  1  0.69030041  0.41685929  0.56317769  1
  O  O355  1  0.69068600  0.41665420  0.81241401  1
  O  O356  1  0.69138445  0.74915530  0.06268949  1
  O  O357  1  0.69382721  0.74969740  0.31085505  1
  O  O358  1  0.69458936  0.74948763  0.56172360  1
  O  O359  1  0.69360357  0.74961315  0.81179810  1
  O  O360  1  0.30951903  0.24981001  0.18692911  1
  O  O361  1  0.30881717  0.25002513  0.43795382  1
  O  O362  1  0.31050894  0.25024484  0.68760002  1
  O  O363  1  0.30933500  0.25030875  0.93713454  1
  O  O364  1  0.30761952  0.58370556  0.18697611  1
  O  O365  1  0.30555155  0.58283518  0.43917973  1
  O  O366  1  0.30821181  0.58280117  0.68719969  1
  O  O367  1  0.30578887  0.58311785  0.93840436  1
  O  O368  1  0.30542287  0.91695728  0.18804852  1
  O  O369  1  0.30687717  0.91700451  0.43901951  1
  O  O370  1  0.30886669  0.91713192  0.68730903  1
  O  O371  1  0.30553523  0.91674986  0.93838859  1
  O  O372  1  0.80544878  0.25025359  0.18797836  1
  O  O373  1  0.80494274  0.25016461  0.43858242  1
  O  O374  1  0.80592672  0.25096972  0.68803882  1
  O  O375  1  0.80574169  0.25033282  0.93823702  1
  O  O376  1  0.81004521  0.58259300  0.18672307  1
  O  O377  1  0.80766228  0.58352331  0.43896971  1
  O  O378  1  0.80901042  0.58246712  0.68735858  1
  O  O379  1  0.80760087  0.58297381  0.93864144  1
  O  O380  1  0.80866918  0.91678569  0.18641323  1
  O  O381  1  0.80674262  0.91601126  0.43854689  1
  O  O382  1  0.80790366  0.91630732  0.68746133  1
  O  O383  1  0.80740048  0.91615036  0.93865254  1
  O  O384  1  0.23615794  0.25021281  0.03862584  1
  O  O385  1  0.23576560  0.24983463  0.28817806  1
  O  O386  1  0.23367426  0.25037798  0.53836505  1
  O  O387  1  0.23579707  0.24986828  0.78812231  1
  O  O388  1  0.23208674  0.58329977  0.03957269  1
  O  O389  1  0.23245711  0.58251817  0.28737409  1
  O  O390  1  0.23184444  0.58344535  0.54031695  1
  O  O391  1  0.23278888  0.58338077  0.78733955  1
  O  O392  1  0.23151590  0.91690307  0.03942987  1
  O  O393  1  0.23140628  0.91759304  0.28925860  1
  O  O394  1  0.23396404  0.91662389  0.54061711  1
  O  O395  1  0.23324925  0.91671120  0.78747916  1
  O  O396  1  0.73175658  0.25000503  0.03940737  1
  O  O397  1  0.73188593  0.24949787  0.28968335  1
  O  O398  1  0.73136368  0.24983754  0.54021158  1
  O  O399  1  0.73321678  0.24977087  0.78995221  1
  O  O400  1  0.73477651  0.58240089  0.04039988  1
  O  O401  1  0.73537211  0.58324953  0.28766942  1
  O  O402  1  0.73493394  0.58302048  0.54086421  1
  O  O403  1  0.73333776  0.58280832  0.78741869  1
  O  O404  1  0.73507502  0.91717219  0.04050350  1
  O  O405  1  0.73318271  0.91730433  0.28689331  1
  O  O406  1  0.73481121  0.91664175  0.54093225  1
  O  O407  1  0.73285319  0.91692019  0.78810982  1
  O  O408  1  0.26722810  0.08368425  0.20989023  1
  O  O409  1  0.26634590  0.08370735  0.46007233  1
  O  O410  1  0.26667322  0.08331066  0.70957622  1
  O  O411  1  0.26718862  0.08344879  0.96235229  1
  O  O412  1  0.26749659  0.41649141  0.20974832  1
  O  O413  1  0.26493785  0.41639856  0.46174676  1
  O  O414  1  0.26503668  0.41675644  0.71121443  1
  O  O415  1  0.26675069  0.41650237  0.96181124  1
  O  O416  1  0.26456460  0.75045919  0.21126397  1
  O  O417  1  0.26520086  0.74976563  0.45898165  1
  O  O418  1  0.26619860  0.75009657  0.71155263  1
  O  O419  1  0.26529379  0.75005853  0.95906476  1
  O  O420  1  0.76683546  0.08392074  0.20953003  1
  O  O421  1  0.76635102  0.08291303  0.46272061  1
  O  O422  1  0.76671735  0.08365354  0.71034874  1
  O  O423  1  0.76673016  0.08336851  0.96275794  1
  O  O424  1  0.76784868  0.41576434  0.20997008  1
  O  O425  1  0.76483309  0.41668096  0.46241668  1
  O  O426  1  0.76566566  0.41659736  0.71188639  1
  O  O427  1  0.76546748  0.41650789  0.95946906  1
  O  O428  1  0.76615105  0.74996014  0.20898825  1
  O  O429  1  0.76926294  0.75022314  0.46059101  1
  O  O430  1  0.76639721  0.74952985  0.71016395  1
  O  O431  1  0.76599776  0.74979113  0.96172011  1
  O  O432  1  0.01625288  0.08348620  0.16315227  1
  O  O433  1  0.01413209  0.08300912  0.41314786  1
  O  O434  1  0.01409946  0.08375894  0.66371570  1
  O  O435  1  0.01468407  0.08336825  0.91291127  1
  O  O436  1  0.01818801  0.41604258  0.16513970  1
  O  O437  1  0.01566492  0.41745995  0.41270056  1
  O  O438  1  0.01735594  0.41652474  0.66507820  1
  O  O439  1  0.01793827  0.41752477  0.91203768  1
  O  O440  1  0.01680984  0.74974234  0.16527380  1
  O  O441  1  0.01791237  0.75047475  0.41527827  1
  O  O442  1  0.01551260  0.74952045  0.66382094  1
  O  O443  1  0.01920770  0.74999463  0.91442349  1
  O  O444  1  0.51638780  0.08364910  0.16292544  1
  O  O445  1  0.51544655  0.08330839  0.41251648  1
  O  O446  1  0.51826552  0.08422497  0.66505371  1
  O  O447  1  0.51566649  0.08363534  0.91677642  1
  O  O448  1  0.51408209  0.41654152  0.16377293  1
  O  O449  1  0.51470251  0.41654472  0.41270383  1
  O  O450  1  0.51757493  0.41589907  0.66466714  1
  O  O451  1  0.51688268  0.41669030  0.91568507  1
  O  O452  1  0.51735974  0.74976743  0.16427283  1
  O  O453  1  0.51651302  0.75011928  0.41581816  1
  O  O454  1  0.51507244  0.74987891  0.66582058  1
  O  O455  1  0.51519699  0.74957311  0.91252830  1
  O  O456  1  0.48363467  0.25013690  0.08842206  1
  O  O457  1  0.48351917  0.24992529  0.33635838  1
  O  O458  1  0.48279010  0.25005653  0.58441286  1
  O  O459  1  0.48291885  0.25033336  0.83789122  1
  O  O460  1  0.48132012  0.58357513  0.08536740  1
  O  O461  1  0.48318192  0.58343858  0.33506703  1
  O  O462  1  0.48239617  0.58325590  0.58756937  1
  O  O463  1  0.48421255  0.58249746  0.83434830  1
  O  O464  1  0.48475145  0.91624772  0.08676668  1
  O  O465  1  0.48464425  0.91663872  0.33401719  1
  O  O466  1  0.48293635  0.91655515  0.58768394  1
  O  O467  1  0.48427823  0.91719317  0.83480134  1
  O  O468  1  0.98388630  0.25047250  0.08442687  1
  O  O469  1  0.98410075  0.24955430  0.33675275  1
  O  O470  1  0.98375443  0.25085914  0.58413478  1
  O  O471  1  0.98392294  0.25017370  0.83493732  1
  O  O472  1  0.98450728  0.58306685  0.08683432  1
  O  O473  1  0.98592082  0.58301128  0.33634552  1
  O  O474  1  0.98383628  0.58313483  0.58710217  1
  O  O475  1  0.98644025  0.58297054  0.83622776  1
  O  O476  1  0.98394899  0.91728368  0.08674321  1
  O  O477  1  0.98402350  0.91669479  0.33416529  1
  O  O478  1  0.98229836  0.91685078  0.58786360  1
  O  O479  1  0.98559119  0.91680707  0.83603396  1
  O  O480  1  0.08823969  0.31469466  0.07814231  1
  O  O481  1  0.08770144  0.31477466  0.32737665  1
  O  O482  1  0.08779284  0.31611379  0.57738408  1
  O  O483  1  0.08769863  0.31559698  0.82763166  1
  O  O484  1  0.08895016  0.64661834  0.07769407  1
  O  O485  1  0.08876124  0.64997223  0.32830766  1
  O  O486  1  0.08816526  0.64685180  0.57737620  1
  O  O487  1  0.08973638  0.64878370  0.82772592  1
  O  O488  1  0.08715760  0.98374415  0.07717184  1
  O  O489  1  0.08811436  0.98107704  0.32651265  1
  O  O490  1  0.08554856  0.98231706  0.57744794  1
  O  O491  1  0.08956462  0.98114879  0.82683420  1
  O  O492  1  0.58771550  0.31419304  0.07767500  1
  O  O493  1  0.58721568  0.31499321  0.32639927  1
  O  O494  1  0.58684495  0.31507295  0.57708749  1
  O  O495  1  0.58626152  0.31600811  0.82881744  1
  O  O496  1  0.58512427  0.64924100  0.07732459  1
  O  O497  1  0.58719735  0.64842558  0.32736388  1
  O  O498  1  0.58627938  0.64767791  0.57749357  1
  O  O499  1  0.58856116  0.64670233  0.82626291  1
  O  O500  1  0.58800449  0.98198786  0.07821467  1
  O  O501  1  0.58864801  0.98154861  0.32655570  1
  O  O502  1  0.58622125  0.98256503  0.57801835  1
  O  O503  1  0.58845819  0.98178545  0.82705558  1
  O  O504  1  0.41251846  0.01869837  0.17335156  1
  O  O505  1  0.41174769  0.01898413  0.42178624  1
  O  O506  1  0.41457885  0.01860335  0.67260042  1
  O  O507  1  0.41152208  0.01897874  0.92399820  1
  O  O508  1  0.41015707  0.35200139  0.17184915  1
  O  O509  1  0.41162505  0.35044328  0.42133592  1
  O  O510  1  0.41360697  0.35128464  0.67195336  1
  O  O511  1  0.41293632  0.35117533  0.92330429  1
  O  O512  1  0.41339035  0.68426074  0.17236564  1
  O  O513  1  0.41257814  0.68518367  0.42259259  1
  O  O514  1  0.41097819  0.68471780  0.67310786  1
  O  O515  1  0.41144193  0.68492649  0.92187980  1
  O  O516  1  0.91257785  0.01773762  0.17222955  1
  O  O517  1  0.91031139  0.01819887  0.42222774  1
  O  O518  1  0.91071050  0.01770965  0.67247778  1
  O  O519  1  0.91104178  0.01835970  0.92264852  1
  O  O520  1  0.91341339  0.35244938  0.17329443  1
  O  O521  1  0.91258223  0.35140710  0.42291882  1
  O  O522  1  0.91259358  0.35289462  0.67359558  1
  O  O523  1  0.91467504  0.35184236  0.92286851  1
  O  O524  1  0.91307075  0.68489255  0.17183456  1
  O  O525  1  0.91423082  0.68498870  0.42356367  1
  O  O526  1  0.91207518  0.68434247  0.67209809  1
  O  O527  1  0.91552180  0.68469047  0.92283524  1
  O  O528  1  0.16301156  0.01826637  0.20166790  1
  O  O529  1  0.16214991  0.01958723  0.45277249  1
  O  O530  1  0.16291487  0.01763775  0.70245423  1
  O  O531  1  0.16340703  0.01822480  0.95303344  1
  O  O532  1  0.16373147  0.35149931  0.20102345  1
  O  O533  1  0.16152306  0.35118326  0.45334359  1
  O  O534  1  0.16112174  0.35222495  0.70211246  1
  O  O535  1  0.16270050  0.35220863  0.95182355  1
  O  O536  1  0.16117863  0.68503469  0.20362190  1
  O  O537  1  0.16153279  0.68393179  0.45311212  1
  O  O538  1  0.16246086  0.68521560  0.70299249  1
  O  O539  1  0.16144004  0.68490512  0.95251602  1
  O  O540  1  0.66292379  0.01844711  0.20147260  1
  O  O541  1  0.66260314  0.01867742  0.45301572  1
  O  O542  1  0.66314275  0.01748326  0.70192358  1
  O  O543  1  0.66297182  0.01915687  0.95286400  1
  O  O544  1  0.66357775  0.35100655  0.20283461  1
  O  O545  1  0.66142879  0.35082967  0.45364877  1
  O  O546  1  0.66135095  0.35252349  0.70237949  1
  O  O547  1  0.66169393  0.35046239  0.95236704  1
  O  O548  1  0.66177387  0.68567157  0.20130754  1
  O  O549  1  0.66569297  0.68459896  0.45205187  1
  O  O550  1  0.66254165  0.68454420  0.70247239  1
  O  O551  1  0.66253788  0.68431786  0.95282388  1
  O  O552  1  0.33993723  0.31525251  0.04680755  1
  O  O553  1  0.33930384  0.31511899  0.29674088  1
  O  O554  1  0.33754254  0.31508146  0.54815695  1
  O  O555  1  0.33931809  0.31524611  0.79771481  1
  O  O556  1  0.33625073  0.64761927  0.04824422  1
  O  O557  1  0.33582667  0.64769566  0.29747095  1
  O  O558  1  0.33610465  0.64821536  0.54836172  1
  O  O559  1  0.33608576  0.64913461  0.79701012  1
  O  O560  1  0.33555360  0.98208875  0.04780504  1
  O  O561  1  0.33524764  0.98300509  0.29709674  1
  O  O562  1  0.33809215  0.98159568  0.54860702  1
  O  O563  1  0.33704979  0.98104322  0.79761868  1
  O  O564  1  0.83575009  0.31463874  0.04781874  1
  O  O565  1  0.83568803  0.31501987  0.29752059  1
  O  O566  1  0.83533576  0.31447022  0.54817052  1
  O  O567  1  0.83666983  0.31580287  0.79742363  1
  O  O568  1  0.83879222  0.64781448  0.04797695  1
  O  O569  1  0.83947694  0.64700881  0.29657161  1
  O  O570  1  0.83856199  0.64932112  0.54801949  1
  O  O571  1  0.83738255  0.64682126  0.79767230  1
  O  O572  1  0.83897033  0.98252036  0.04744776  1
  O  O573  1  0.83649738  0.98297589  0.29608695  1
  O  O574  1  0.83879430  0.98153223  0.54749362  1
  O  O575  1  0.83635862  0.98260598  0.79685739  1
  O  O576  1  0.41246158  0.14874147  0.17232188  1
  O  O577  1  0.41227057  0.14925844  0.42127328  1
  O  O578  1  0.41416552  0.14879836  0.67182286  1
  O  O579  1  0.41173072  0.14903235  0.92312487  1
  O  O580  1  0.41047470  0.48228311  0.17212174  1
  O  O581  1  0.41079665  0.48069155  0.42197637  1
  O  O582  1  0.41385943  0.48147641  0.67265497  1
  O  O583  1  0.41244579  0.48105870  0.92349626  1
  O  O584  1  0.41342246  0.81438842  0.17293114  1
  O  O585  1  0.41279706  0.81541508  0.42256088  1
  O  O586  1  0.41100928  0.81492690  0.67301840  1
  O  O587  1  0.41206926  0.81519219  0.92249435  1
  O  O588  1  0.91215225  0.14783626  0.17292573  1
  O  O589  1  0.91035167  0.14813490  0.42295342  1
  O  O590  1  0.90999167  0.14787190  0.67266263  1
  O  O591  1  0.91088118  0.14836855  0.92293564  1
  O  O592  1  0.91467021  0.48249765  0.17300994  1
  O  O593  1  0.91177141  0.48144988  0.42201863  1
  O  O594  1  0.91387461  0.48287896  0.67364642  1
  O  O595  1  0.91412554  0.48186266  0.92234669  1
  O  O596  1  0.91334303  0.81535654  0.17209012  1
  O  O597  1  0.91360203  0.81493648  0.42317827  1
  O  O598  1  0.91200582  0.81480596  0.67241635  1
  O  O599  1  0.91526024  0.81482784  0.92272022  1
  O  O600  1  0.08727913  0.18441926  0.07746957  1
  O  O601  1  0.08768022  0.18471740  0.32733216  1
  O  O602  1  0.08774528  0.18600889  0.57608437  1
  O  O603  1  0.08759592  0.18537870  0.82699534  1
  O  O604  1  0.08774483  0.51650241  0.07774033  1
  O  O605  1  0.09041404  0.51981792  0.32729626  1
  O  O606  1  0.08709827  0.51677380  0.57790985  1
  O  O607  1  0.09056092  0.51860351  0.82785225  1
  O  O608  1  0.08835138  0.85359512  0.07741794  1
  O  O609  1  0.08778208  0.85098321  0.32770398  1
  O  O610  1  0.08612202  0.85222865  0.57796649  1
  O  O611  1  0.08907845  0.85096545  0.82760665  1
  O  O612  1  0.58706538  0.18410782  0.07777072  1
  O  O613  1  0.58740155  0.18504592  0.32650658  1
  O  O614  1  0.58688274  0.18494352  0.57689493  1
  O  O615  1  0.58663369  0.18593731  0.82830203  1
  O  O616  1  0.58536381  0.51905165  0.07729456  1
  O  O617  1  0.58681124  0.51834960  0.32667563  1
  O  O618  1  0.58579678  0.51742746  0.57799627  1
  O  O619  1  0.58790661  0.51661088  0.82750020  1
  O  O620  1  0.58851240  0.85144600  0.07855424  1
  O  O621  1  0.58884255  0.85159264  0.32694267  1
  O  O622  1  0.58678442  0.85227910  0.57765040  1
  O  O623  1  0.58810835  0.85175759  0.82653204  1
  O  O624  1  0.33994374  0.18510375  0.04690582  1
  O  O625  1  0.33953716  0.18480887  0.29667958  1
  O  O626  1  0.33755503  0.18526290  0.54810181  1
  O  O627  1  0.33979726  0.18524923  0.79753904  1
  O  O628  1  0.33599349  0.51759722  0.04769005  1
  O  O629  1  0.33602708  0.51740369  0.29665542  1
  O  O630  1  0.33579321  0.51829899  0.54908345  1
  O  O631  1  0.33644515  0.51895675  0.79760725  1
  O  O632  1  0.33524433  0.85199622  0.04809359  1
  O  O633  1  0.33526718  0.85276354  0.29775270  1
  O  O634  1  0.33796120  0.85163639  0.54814664  1
  O  O635  1  0.33640529  0.85079840  0.79722157  1
  O  O636  1  0.83555877  0.18458000  0.04764370  1
  O  O637  1  0.83589223  0.18475596  0.29699486  1
  O  O638  1  0.83520941  0.18439828  0.54759917  1
  O  O639  1  0.83727688  0.18534298  0.79677816  1
  O  O640  1  0.83906665  0.51782913  0.04776547  1
  O  O641  1  0.83822971  0.51659054  0.29646995  1
  O  O642  1  0.83933346  0.51924067  0.54854639  1
  O  O643  1  0.83658914  0.51659111  0.79728170  1
  O  O644  1  0.83925681  0.85247732  0.04826668  1
  O  O645  1  0.83692119  0.85274790  0.29675841  1
  O  O646  1  0.83884143  0.85141475  0.54789381  1
  O  O647  1  0.83671397  0.85237125  0.79781755  1
  O  O648  1  0.16318148  0.14818364  0.20090522  1
  O  O649  1  0.16310099  0.14990170  0.45236176  1
  O  O650  1  0.16270603  0.14778329  0.70207745  1
  O  O651  1  0.16370614  0.14834385  0.95222360  1
  O  O652  1  0.16321463  0.48141364  0.20177681  1
  O  O653  1  0.16150106  0.48159276  0.45387575  1
  O  O654  1  0.16124083  0.48223100  0.70292284  1
  O  O655  1  0.16311712  0.48227033  0.95277993  1
  O  O656  1  0.16082421  0.81535298  0.20368528  1
  O  O657  1  0.16086814  0.81411375  0.45250337  1
  O  O658  1  0.16257936  0.81540709  0.70290936  1
  O  O659  1  0.16133172  0.81521329  0.95242651  1
  O  O660  1  0.66242108  0.14844568  0.20215821  1
  O  O661  1  0.66299068  0.14887656  0.45318633  1
  O  O662  1  0.66218277  0.14750488  0.70208478  1
  O  O663  1  0.66334874  0.14933161  0.95303264  1
  O  O664  1  0.66413624  0.48106744  0.20163571  1
  O  O665  1  0.66125434  0.48119588  0.45296933  1
  O  O666  1  0.66211519  0.48260012  0.70243065  1
  O  O667  1  0.66108124  0.48055392  0.95186294  1
  O  O668  1  0.66235017  0.81575121  0.20194106  1
  O  O669  1  0.66517109  0.81480549  0.45252912  1
  O  O670  1  0.66275470  0.81489183  0.70248979  1
  O  O671  1  0.66222658  0.81456851  0.95310373  1
