# generated using pymatgen
data_Na2MnFe(PO4)2
_symmetry_space_group_name_H-M   'P 1'
_cell_length_a   21.07580945
_cell_length_b   18.92656123
_cell_length_c   20.03562123
_cell_angle_alpha   90.00030533
_cell_angle_beta   90.00290299
_cell_angle_gamma   89.99983743
_symmetry_Int_Tables_number   1
_chemical_formula_structural   Na2MnFe(PO4)2
_chemical_formula_sum   'Na96 Mn48 Fe48 P96 O384'
_cell_volume   7992.06099422
_cell_formula_units_Z   48
loop_
 _symmetry_equiv_pos_site_id
 _symmetry_equiv_pos_as_xyz
  1  'x, y, z'
loop_
 _atom_site_type_symbol
 _atom_site_label
 _atom_site_symmetry_multiplicity
 _atom_site_fract_x
 _atom_site_fract_y
 _atom_site_fract_z
 _atom_site_occupancy
  Na  Na0  1  0.00086886  0.00015725  0.00110799  1
  Na  Na1  1  0.00217180  0.00059302  0.24921532  1
  Na  Na2  1  -0.00313198  -0.00143091  0.49989493  1
  Na  Na3  1  -0.00180472  -0.00030578  0.75008546  1
  Na  Na4  1  -0.00172424  0.33269608  0.00147306  1
  Na  Na5  1  -0.00021571  0.33320165  0.24964045  1
  Na  Na6  1  -0.00144118  0.33275424  0.49881359  1
  Na  Na7  1  -0.00218915  0.33273856  0.75056765  1
  Na  Na8  1  -0.00167349  0.66608086  0.00065289  1
  Na  Na9  1  0.00230819  0.66724698  0.24951495  1
  Na  Na10  1  0.00279372  0.66810874  0.49943655  1
  Na  Na11  1  -0.00253865  0.66622391  0.75060836  1
  Na  Na12  1  0.49976458  0.00047617  -0.00045433  1
  Na  Na13  1  0.49862434  0.00014013  0.25022922  1
  Na  Na14  1  0.50049038  0.00027837  0.50072329  1
  Na  Na15  1  0.50040101  0.00001359  0.74898516  1
  Na  Na16  1  0.49990558  0.33343007  0.00074977  1
  Na  Na17  1  0.49964223  0.33315940  0.25070098  1
  Na  Na18  1  0.50071302  0.33322544  0.49887783  1
  Na  Na19  1  0.50036519  0.33309549  0.74982163  1
  Na  Na20  1  0.50257372  0.66778151  -0.00051142  1
  Na  Na21  1  0.50011973  0.66707336  0.25131309  1
  Na  Na22  1  0.49985129  0.66746971  0.49931289  1
  Na  Na23  1  0.50117387  0.66717882  0.75023058  1
  Na  Na24  1  0.24870097  -0.00019349  0.12497187  1
  Na  Na25  1  0.25125670  0.00096217  0.37497405  1
  Na  Na26  1  0.25147838  0.00030151  0.62532698  1
  Na  Na27  1  0.25046850  0.00087388  0.87458788  1
  Na  Na28  1  0.25076161  0.33356698  0.12460511  1
  Na  Na29  1  0.24995426  0.33282323  0.37459552  1
  Na  Na30  1  0.25141933  0.33379681  0.62544213  1
  Na  Na31  1  0.25138763  0.33356418  0.87469386  1
  Na  Na32  1  0.25096636  0.66739591  0.12543821  1
  Na  Na33  1  0.24899743  0.66702571  0.37523651  1
  Na  Na34  1  0.24846574  0.66715407  0.62476931  1
  Na  Na35  1  0.25047544  0.66751978  0.87484987  1
  Na  Na36  1  0.74919452  -0.00046492  0.12502973  1
  Na  Na37  1  0.75050740  0.00013935  0.37459901  1
  Na  Na38  1  0.75025723  -0.00073018  0.62424829  1
  Na  Na39  1  0.75076122  0.00005596  0.87518296  1
  Na  Na40  1  0.75109299  0.33391269  0.12459918  1
  Na  Na41  1  0.74921981  0.33265455  0.37489827  1
  Na  Na42  1  0.75024662  0.33276433  0.62505553  1
  Na  Na43  1  0.75110345  0.33355506  0.87549749  1
  Na  Na44  1  0.74810277  0.66605837  0.12434758  1
  Na  Na45  1  0.74819005  0.66674617  0.37507557  1
  Na  Na46  1  0.74915054  0.66676440  0.62543839  1
  Na  Na47  1  0.75101610  0.66787997  0.87541196  1
  Na  Na48  1  0.00038245  0.16677433  0.00135329  1
  Na  Na49  1  0.00142307  0.16615645  0.24939803  1
  Na  Na50  1  -0.00274398  0.16734172  0.49968350  1
  Na  Na51  1  -0.00242589  0.16672157  0.74946040  1
  Na  Na52  1  -0.00132515  0.49999491  0.00150318  1
  Na  Na53  1  0.00147177  0.49962289  0.25032190  1
  Na  Na54  1  0.00124451  0.49969525  0.49859291  1
  Na  Na55  1  -0.00166268  0.50044301  0.74999588  1
  Na  Na56  1  -0.00121761  0.83393987  0.00049059  1
  Na  Na57  1  0.00121143  0.83347736  0.24851232  1
  Na  Na58  1  0.00040972  0.83314302  0.49996001  1
  Na  Na59  1  -0.00219481  0.83391336  0.75172977  1
  Na  Na60  1  0.49768810  0.16669531  -0.00029404  1
  Na  Na61  1  0.49957366  0.16577775  0.25070669  1
  Na  Na62  1  0.49908161  0.16638063  0.49932564  1
  Na  Na63  1  0.49843002  0.16666051  0.74986186  1
  Na  Na64  1  0.50198312  0.49921208  0.00061590  1
  Na  Na65  1  0.50026047  0.49971158  0.25007008  1
  Na  Na66  1  0.50246984  0.49881644  0.49928225  1
  Na  Na67  1  0.50129613  0.50011012  0.75031794  1
  Na  Na68  1  0.50239475  0.83253214  -0.00067800  1
  Na  Na69  1  0.49852388  0.83389543  0.25152699  1
  Na  Na70  1  0.49937439  0.83347370  0.50033398  1
  Na  Na71  1  0.50218883  0.83248366  0.74879719  1
  Na  Na72  1  0.25118283  0.16588323  0.12475930  1
  Na  Na73  1  0.25088428  0.16688131  0.37450008  1
  Na  Na74  1  0.25249263  0.16557850  0.62617912  1
  Na  Na75  1  0.25046496  0.16625963  0.87471012  1
  Na  Na76  1  0.24981223  0.49995352  0.12454808  1
  Na  Na77  1  0.24826277  0.50052441  0.37466663  1
  Na  Na78  1  0.24825187  0.50120179  0.62540928  1
  Na  Na79  1  0.25167353  0.49937908  0.87518136  1
  Na  Na80  1  0.24918257  0.83404003  0.12543923  1
  Na  Na81  1  0.25082185  0.83304300  0.37598671  1
  Na  Na82  1  0.25056191  0.83274384  0.62397284  1
  Na  Na83  1  0.24937586  0.83374257  0.87432216  1
  Na  Na84  1  0.74983653  0.16655674  0.12507374  1
  Na  Na85  1  0.74996195  0.16622015  0.37420198  1
  Na  Na86  1  0.75098167  0.16632395  0.62467856  1
  Na  Na87  1  0.75161331  0.16606185  0.87537215  1
  Na  Na88  1  0.74875263  0.49975744  0.12460345  1
  Na  Na89  1  0.74880773  0.49950661  0.37462157  1
  Na  Na90  1  0.74901121  0.50000818  0.62554517  1
  Na  Na91  1  0.74944917  0.49999523  0.87540755  1
  Na  Na92  1  0.75069815  0.83298477  0.12416141  1
  Na  Na93  1  0.74985833  0.83356947  0.37556004  1
  Na  Na94  1  0.74971922  0.83397244  0.62442497  1
  Na  Na95  1  0.75088773  0.83303314  0.87548093  1
  Mn  Mn96  1  0.39328875  0.58335666  0.87722448  1
  Mn  Mn97  1  0.39219207  0.25053818  0.87729847  1
  Mn  Mn98  1  0.35782720  0.41709122  0.50237744  1
  Mn  Mn99  1  0.64208930  0.24978173  0.24721022  1
  Mn  Mn100  1  0.60794992  0.08337352  0.87285251  1
  Mn  Mn101  1  0.89293157  0.24992920  0.12757164  1
  Mn  Mn102  1  0.89320243  0.91694191  0.12741844  1
  Mn  Mn103  1  0.89204630  0.58303028  0.12776186  1
  Mn  Mn104  1  0.39300604  0.91660663  0.62726262  1
  Mn  Mn105  1  0.89199015  0.58375654  0.62616981  1
  Mn  Mn106  1  0.64272399  0.58404190  0.74767134  1
  Mn  Mn107  1  0.39180112  0.91664717  0.12714235  1
  Mn  Mn108  1  0.10734947  0.41668232  0.62286381  1
  Mn  Mn109  1  0.64253714  0.91664161  0.99774039  1
  Mn  Mn110  1  0.39207517  0.24962854  0.37719103  1
  Mn  Mn111  1  0.14207358  0.24994782  0.49856698  1
  Mn  Mn112  1  0.85788646  0.74946911  0.25251730  1
  Mn  Mn113  1  0.60820124  0.41651191  0.62245560  1
  Mn  Mn114  1  0.35843264  0.41737262  0.75229375  1
  Mn  Mn115  1  0.14312174  0.24989653  0.99731458  1
  Mn  Mn116  1  0.10778009  0.08308471  0.37364767  1
  Mn  Mn117  1  0.64257853  0.24895256  0.74771680  1
  Mn  Mn118  1  0.10708851  0.41619467  0.87357434  1
  Mn  Mn119  1  0.35874086  0.75053902  0.00205177  1
  Mn  Mn120  1  0.85807588  0.08353537  0.25226671  1
  Mn  Mn121  1  0.14119872  0.58388342  0.74866755  1
  Mn  Mn122  1  0.10708165  0.08307915  0.62248185  1
  Mn  Mn123  1  0.85798624  0.41741878  0.75275000  1
  Mn  Mn124  1  0.10872092  0.74984517  0.12225566  1
  Mn  Mn125  1  0.64229880  0.24990369  0.99817431  1
  Mn  Mn126  1  0.64144289  0.91644016  0.24801037  1
  Mn  Mn127  1  0.10784246  0.41630729  0.37212230  1
  Mn  Mn128  1  0.14167848  0.25000565  0.74778100  1
  Mn  Mn129  1  0.39158750  0.58348676  0.37754521  1
  Mn  Mn130  1  0.85696495  0.41654477  0.50183459  1
  Mn  Mn131  1  0.14199206  0.91718384  0.49804615  1
  Mn  Mn132  1  0.39281016  0.91605741  0.87670334  1
  Mn  Mn133  1  0.64170493  0.58338970  0.24745299  1
  Mn  Mn134  1  0.60686654  0.75062735  0.37303327  1
  Mn  Mn135  1  0.39321109  0.58320251  0.12724952  1
  Mn  Mn136  1  0.14154909  0.91639959  0.74790377  1
  Mn  Mn137  1  0.89279877  0.58395034  0.37729122  1
  Mn  Mn138  1  0.85792308  0.74991931  0.50203345  1
  Mn  Mn139  1  0.39223390  0.58303742  0.62682114  1
  Mn  Mn140  1  0.85820460  0.08255114  0.75271371  1
  Mn  Mn141  1  0.10631470  0.75009959  0.87288652  1
  Mn  Mn142  1  0.60783258  0.08325703  0.62231995  1
  Mn  Mn143  1  0.14262856  0.58363989  0.99709772  1
  Fe  Fe144  1  0.35806299  0.08319990  0.50190815  1
  Fe  Fe145  1  0.89236038  0.91718871  0.87767731  1
  Fe  Fe146  1  0.60780405  0.41627116  0.87381650  1
  Fe  Fe147  1  0.85800071  0.08332185  0.00224885  1
  Fe  Fe148  1  0.14335329  0.91701496  0.24930595  1
  Fe  Fe149  1  0.60640156  0.08325493  0.12327336  1
  Fe  Fe150  1  0.35847789  0.41662187  0.00242231  1
  Fe  Fe151  1  0.10683162  0.75044351  0.62418729  1
  Fe  Fe152  1  0.85715279  0.75005969  0.75149990  1
  Fe  Fe153  1  0.60716502  0.41619741  0.12317112  1
  Fe  Fe154  1  0.35727554  0.08258995  0.75209861  1
  Fe  Fe155  1  0.10878904  0.08401055  0.12294616  1
  Fe  Fe156  1  0.39181712  0.91708250  0.37696200  1
  Fe  Fe157  1  0.89251149  0.24942989  0.37640815  1
  Fe  Fe158  1  0.85662279  0.08323011  0.50059796  1
  Fe  Fe159  1  0.14312248  0.25003477  0.24841226  1
  Fe  Fe160  1  0.14345179  0.58306296  0.24806294  1
  Fe  Fe161  1  0.60737571  0.75042479  0.12379541  1
  Fe  Fe162  1  0.10818617  0.75087850  0.37306372  1
  Fe  Fe163  1  0.35723579  0.75014310  0.25160001  1
  Fe  Fe164  1  0.10784226  0.41636895  0.12312508  1
  Fe  Fe165  1  0.60700391  0.08328355  0.37346216  1
  Fe  Fe166  1  0.89239829  0.24983865  0.87741681  1
  Fe  Fe167  1  0.39263325  0.24999243  0.12671984  1
  Fe  Fe168  1  0.85675737  0.41690167  0.00224172  1
  Fe  Fe169  1  0.64202849  0.58333213  0.49814894  1
  Fe  Fe170  1  0.14277286  0.91677521  0.99783158  1
  Fe  Fe171  1  0.64248472  0.24935622  0.49820903  1
  Fe  Fe172  1  0.35682047  0.08322097  0.00184235  1
  Fe  Fe173  1  0.89144477  0.58295746  0.87789252  1
  Fe  Fe174  1  0.85644484  0.74974101  0.00187801  1
  Fe  Fe175  1  0.60865427  0.75006712  0.87226405  1
  Fe  Fe176  1  0.89147728  0.24987559  0.62631300  1
  Fe  Fe177  1  0.35772081  0.75027785  0.75122562  1
  Fe  Fe178  1  0.35625846  0.74982369  0.50233566  1
  Fe  Fe179  1  0.64314002  0.91722425  0.49757170  1
  Fe  Fe180  1  0.60780721  0.74984086  0.62295390  1
  Fe  Fe181  1  0.35706672  0.08316227  0.25149570  1
  Fe  Fe182  1  0.14223140  0.58343374  0.49849585  1
  Fe  Fe183  1  0.89305887  0.91663667  0.37596029  1
  Fe  Fe184  1  0.60749232  0.41597662  0.37267827  1
  Fe  Fe185  1  0.35707754  0.41701853  0.25129549  1
  Fe  Fe186  1  0.85716953  0.41687459  0.25150347  1
  Fe  Fe187  1  0.39290746  0.25033578  0.62615018  1
  Fe  Fe188  1  0.64302764  0.58328991  0.99835632  1
  Fe  Fe189  1  0.10660877  0.08355791  0.87370532  1
  Fe  Fe190  1  0.89178788  0.91621437  0.62667929  1
  Fe  Fe191  1  0.64375695  0.91676252  0.74845669  1
  P  P192  1  0.05588277  0.25038536  0.11144916  1
  P  P193  1  0.05284335  0.24947683  0.35924927  1
  P  P194  1  0.05100173  0.24976804  0.60984488  1
  P  P195  1  0.05176204  0.24907404  0.86059232  1
  P  P196  1  0.05524127  0.58225485  0.11117373  1
  P  P197  1  0.05580201  0.58442030  0.36017944  1
  P  P198  1  0.05344262  0.58451304  0.60947167  1
  P  P199  1  0.05080301  0.58305732  0.86071484  1
  P  P200  1  0.05656682  0.91751391  0.11060249  1
  P  P201  1  0.05307284  0.91632066  0.35942197  1
  P  P202  1  0.05148959  0.91590953  0.61042577  1
  P  P203  1  0.05271980  0.91773821  0.86173046  1
  P  P204  1  0.55203246  0.24931942  0.11041005  1
  P  P205  1  0.55482324  0.24924538  0.36108509  1
  P  P206  1  0.55286366  0.24942810  0.60897755  1
  P  P207  1  0.55358548  0.25051111  0.86013297  1
  P  P208  1  0.55443992  0.58352377  0.10959140  1
  P  P209  1  0.55431986  0.58274586  0.36104624  1
  P  P210  1  0.55409609  0.58442942  0.60916634  1
  P  P211  1  0.55576194  0.58306604  0.86140499  1
  P  P212  1  0.55300466  0.91690727  0.11014334  1
  P  P213  1  0.55277619  0.91786181  0.36153917  1
  P  P214  1  0.55597304  0.91578874  0.61041876  1
  P  P215  1  0.55472423  0.91620371  0.85873229  1
  P  P216  1  0.44542807  0.08390403  0.13941951  1
  P  P217  1  0.44549599  0.08241195  0.38944855  1
  P  P218  1  0.44504624  0.08406581  0.63933951  1
  P  P219  1  0.44493125  0.08275679  0.88949484  1
  P  P220  1  0.44641166  0.41587969  0.13974434  1
  P  P221  1  0.44646993  0.41660546  0.38868424  1
  P  P222  1  0.44719579  0.41605714  0.63975350  1
  P  P223  1  0.44785297  0.41698585  0.89100685  1
  P  P224  1  0.44774106  0.75008643  0.14084757  1
  P  P225  1  0.44365766  0.75106695  0.38981103  1
  P  P226  1  0.44646577  0.74969284  0.63932692  1
  P  P227  1  0.44797981  0.75016419  0.88862852  1
  P  P228  1  0.94767840  0.08336414  0.13918936  1
  P  P229  1  0.94594780  0.08312796  0.38997535  1
  P  P230  1  0.94435953  0.08287911  0.63827387  1
  P  P231  1  0.94689015  0.08334554  0.89123635  1
  P  P232  1  0.94611609  0.41674833  0.14009304  1
  P  P233  1  0.94528727  0.41594513  0.38830052  1
  P  P234  1  0.94604240  0.41631177  0.63953456  1
  P  P235  1  0.94551665  0.41660404  0.89151141  1
  P  P236  1  0.94584132  0.74976863  0.13901224  1
  P  P237  1  0.94842410  0.75096654  0.38953497  1
  P  P238  1  0.94674787  0.75078421  0.64058112  1
  P  P239  1  0.94378145  0.75006555  0.88992438  1
  P  P240  1  0.19722572  0.08348567  0.23510882  1
  P  P241  1  0.19840865  0.08355671  0.48530419  1
  P  P242  1  0.19608740  0.08313580  0.73606292  1
  P  P243  1  0.19611345  0.08285374  0.98517574  1
  P  P244  1  0.19731607  0.41633082  0.23446782  1
  P  P245  1  0.19650934  0.41691075  0.48496241  1
  P  P246  1  0.19656623  0.41682840  0.73528018  1
  P  P247  1  0.19769923  0.41645944  0.98583985  1
  P  P248  1  0.19683552  0.75051725  0.23658507  1
  P  P249  1  0.19520750  0.74997284  0.48589822  1
  P  P250  1  0.19683113  0.75038398  0.73444163  1
  P  P251  1  0.19701660  0.75101341  0.98444946  1
  P  P252  1  0.69484212  0.08299877  0.23510152  1
  P  P253  1  0.69686239  0.08312528  0.48425753  1
  P  P254  1  0.69720961  0.08228265  0.73479019  1
  P  P255  1  0.69702985  0.08343458  0.98622691  1
  P  P256  1  0.69595942  0.41623470  0.23503285  1
  P  P257  1  0.69552330  0.41619610  0.48430615  1
  P  P258  1  0.69590132  0.41623459  0.73619899  1
  P  P259  1  0.69579835  0.41688803  0.98592890  1
  P  P260  1  0.69595647  0.75046770  0.23416375  1
  P  P261  1  0.69525892  0.75037128  0.48619227  1
  P  P262  1  0.69647354  0.75119133  0.73535571  1
  P  P263  1  0.69565453  0.74950683  0.98573205  1
  P  P264  1  0.30465420  0.24981516  0.01548242  1
  P  P265  1  0.30388211  0.25012522  0.26321876  1
  P  P266  1  0.30409501  0.24928795  0.51575286  1
  P  P267  1  0.30466663  0.24933538  0.76393179  1
  P  P268  1  0.30408073  0.58319698  0.01515626  1
  P  P269  1  0.30263909  0.58317612  0.26460410  1
  P  P270  1  0.30164844  0.58426100  0.51495694  1
  P  P271  1  0.30342157  0.58488290  0.76510515  1
  P  P272  1  0.30221992  0.91743961  0.01466011  1
  P  P273  1  0.30300059  0.91697412  0.26541062  1
  P  P274  1  0.30469756  0.91676715  0.51391063  1
  P  P275  1  0.30359014  0.91611985  0.76460491  1
  P  P276  1  0.80501934  0.24980984  0.01420888  1
  P  P277  1  0.80407101  0.25082401  0.26526614  1
  P  P278  1  0.80333371  0.24891062  0.51366875  1
  P  P279  1  0.80512217  0.24980321  0.76501793  1
  P  P280  1  0.80323409  0.58320465  0.01417128  1
  P  P281  1  0.80300215  0.58251948  0.26516679  1
  P  P282  1  0.80136369  0.58335463  0.51468366  1
  P  P283  1  0.80404971  0.58449911  0.76569608  1
  P  P284  1  0.80513525  0.91695187  0.01405139  1
  P  P285  1  0.80383081  0.91650812  0.26557229  1
  P  P286  1  0.80422840  0.91729873  0.51370599  1
  P  P287  1  0.80428645  0.91554355  0.76463222  1
  O  O288  1  0.06000671  0.25022302  0.18821668  1
  O  O289  1  0.05649347  0.24971425  0.43599085  1
  O  O290  1  0.05504561  0.24959128  0.68657961  1
  O  O291  1  0.05607711  0.24979327  0.93730979  1
  O  O292  1  0.06005608  0.58299979  0.18796769  1
  O  O293  1  0.05968376  0.58351673  0.43702306  1
  O  O294  1  0.05559858  0.58364426  0.68633281  1
  O  O295  1  0.05533239  0.58321231  0.93742552  1
  O  O296  1  0.06087666  0.91687754  0.18740561  1
  O  O297  1  0.05633740  0.91686859  0.43620190  1
  O  O298  1  0.05508918  0.91673836  0.68716775  1
  O  O299  1  0.05786971  0.91694694  0.93837435  1
  O  O300  1  0.55539023  0.24938417  0.18714213  1
  O  O301  1  0.55888381  0.24916215  0.43782659  1
  O  O302  1  0.55677046  0.24902420  0.68572988  1
  O  O303  1  0.55658602  0.24959948  0.93693559  1
  O  O304  1  0.55625663  0.58346139  0.18648802  1
  O  O305  1  0.55843370  0.58330330  0.43780598  1
  O  O306  1  0.55712216  0.58401791  0.68603164  1
  O  O307  1  0.55941868  0.58340353  0.93819942  1
  O  O308  1  0.55517381  0.91691600  0.18694369  1
  O  O309  1  0.55791552  0.91726951  0.43819306  1
  O  O310  1  0.56013329  0.91669903  0.68713414  1
  O  O311  1  0.55746392  0.91698549  0.93561320  1
  O  O312  1  0.44077617  0.08295460  0.06268818  1
  O  O313  1  0.44054779  0.08292719  0.31269773  1
  O  O314  1  0.44141354  0.08303080  0.56248817  1
  O  O315  1  0.44079638  0.08253206  0.81266560  1
  O  O316  1  0.44183877  0.41671405  0.06301484  1
  O  O317  1  0.44098482  0.41699218  0.31199715  1
  O  O318  1  0.44414681  0.41680590  0.56292651  1
  O  O319  1  0.44398268  0.41710579  0.81423994  1
  O  O320  1  0.44441832  0.75020971  0.06404298  1
  O  O321  1  0.43949979  0.75007379  0.31295172  1
  O  O322  1  0.44099242  0.74972817  0.56265046  1
  O  O323  1  0.44254695  0.75031007  0.81202213  1
  O  O324  1  0.94232489  0.08338166  0.06258518  1
  O  O325  1  0.94407343  0.08319404  0.31313244  1
  O  O326  1  0.94037526  0.08296224  0.56153569  1
  O  O327  1  0.94350490  0.08288998  0.81442133  1
  O  O328  1  0.94070438  0.41700242  0.06342902  1
  O  O329  1  0.94139781  0.41687803  0.31154516  1
  O  O330  1  0.94322395  0.41691318  0.56269240  1
  O  O331  1  0.94309854  0.41700779  0.81463703  1
  O  O332  1  0.94070299  0.74948043  0.06230680  1
  O  O333  1  0.94466465  0.75005820  0.31283460  1
  O  O334  1  0.94360200  0.75022157  0.56377323  1
  O  O335  1  0.94042623  0.75008030  0.81308188  1
  O  O336  1  0.19189940  0.08369613  0.06195014  1
  O  O337  1  0.19372834  0.08388019  0.31182803  1
  O  O338  1  0.19412191  0.08319165  0.56201677  1
  O  O339  1  0.19064815  0.08342509  0.81272903  1
  O  O340  1  0.19241527  0.41643460  0.06245785  1
  O  O341  1  0.19377632  0.41596757  0.31121533  1
  O  O342  1  0.19344307  0.41634135  0.56177745  1
  O  O343  1  0.19316289  0.41633161  0.81210749  1
  O  O344  1  0.19425406  0.75011785  0.06132224  1
  O  O345  1  0.19260562  0.75072032  0.31329736  1
  O  O346  1  0.19046363  0.75091458  0.56257435  1
  O  O347  1  0.19231612  0.75058703  0.81114708  1
  O  O348  1  0.69144332  0.08356953  0.06286652  1
  O  O349  1  0.69045607  0.08292833  0.31184723  1
  O  O350  1  0.69371775  0.08330195  0.56100555  1
  O  O351  1  0.69411204  0.08318553  0.81158561  1
  O  O352  1  0.69082441  0.41581788  0.06268256  1
  O  O353  1  0.69102668  0.41597804  0.31173300  1
  O  O354  1  0.69331188  0.41602948  0.56120915  1
  O  O355  1  0.69193580  0.41597757  0.81298070  1
  O  O356  1  0.69091189  0.75038374  0.06241570  1
  O  O357  1  0.69230461  0.75083181  0.31097058  1
  O  O358  1  0.69199743  0.75027308  0.56298826  1
  O  O359  1  0.69240418  0.75047061  0.81217331  1
  O  O360  1  0.30842775  0.25009591  0.18655867  1
  O  O361  1  0.30675266  0.25005806  0.43884100  1
  O  O362  1  0.30887901  0.25016640  0.68721504  1
  O  O363  1  0.30701945  0.25013590  0.93863218  1
  O  O364  1  0.30654913  0.58320517  0.18792856  1
  O  O365  1  0.30538760  0.58355029  0.43824421  1
  O  O366  1  0.30627517  0.58428267  0.68831907  1
  O  O367  1  0.30734923  0.58352685  0.93836356  1
  O  O368  1  0.30608993  0.91690041  0.18863521  1
  O  O369  1  0.30804314  0.91714322  0.43712857  1
  O  O370  1  0.30684500  0.91600275  0.68781356  1
  O  O371  1  0.30614772  0.91676707  0.93800581  1
  O  O372  1  0.80729343  0.24998594  0.18843695  1
  O  O373  1  0.80805456  0.24954138  0.43699071  1
  O  O374  1  0.80887760  0.24988800  0.68812458  1
  O  O375  1  0.80870441  0.24946082  0.93740172  1
  O  O376  1  0.80599508  0.58310048  0.18834100  1
  O  O377  1  0.80571720  0.58372563  0.43800173  1
  O  O378  1  0.80686578  0.58353505  0.68886577  1
  O  O379  1  0.80742136  0.58307299  0.93744091  1
  O  O380  1  0.80727927  0.91657117  0.18875151  1
  O  O381  1  0.80920367  0.91622301  0.43705089  1
  O  O382  1  0.80834754  0.91622418  0.68782494  1
  O  O383  1  0.80868424  0.91748838  0.93720579  1
  O  O384  1  0.23498473  0.24963114  0.04073666  1
  O  O385  1  0.23356349  0.24992099  0.28737340  1
  O  O386  1  0.23451301  0.24955226  0.54130101  1
  O  O387  1  0.23473145  0.24964915  0.78861585  1
  O  O388  1  0.23435893  0.58377758  0.04021978  1
  O  O389  1  0.23249497  0.58316070  0.28910031  1
  O  O390  1  0.23160672  0.58415678  0.53951977  1
  O  O391  1  0.23383745  0.58399673  0.79074467  1
  O  O392  1  0.23226148  0.91709057  0.03942739  1
  O  O393  1  0.23292606  0.91711588  0.29036164  1
  O  O394  1  0.23487192  0.91655290  0.53893447  1
  O  O395  1  0.23386999  0.91674154  0.78968703  1
  O  O396  1  0.73512746  0.25020091  0.03899663  1
  O  O397  1  0.73420731  0.24969751  0.28977485  1
  O  O398  1  0.73289117  0.24949376  0.53749071  1
  O  O399  1  0.73517334  0.24955066  0.78940700  1
  O  O400  1  0.73296473  0.58302635  0.03829022  1
  O  O401  1  0.73328551  0.58306076  0.29015007  1
  O  O402  1  0.73133598  0.58325054  0.53919465  1
  O  O403  1  0.73432438  0.58417237  0.79075765  1
  O  O404  1  0.73517866  0.91645544  0.03860124  1
  O  O405  1  0.73397706  0.91669432  0.29019124  1
  O  O406  1  0.73372817  0.91695421  0.53710314  1
  O  O407  1  0.73409626  0.91638425  0.78889067  1
  O  O408  1  0.26746468  0.08312207  0.21061060  1
  O  O409  1  0.26845489  0.08362495  0.46087831  1
  O  O410  1  0.26662271  0.08258450  0.71296110  1
  O  O411  1  0.26651588  0.08373265  0.96152049  1
  O  O412  1  0.26756362  0.41662062  0.21005727  1
  O  O413  1  0.26615658  0.41672947  0.45952325  1
  O  O414  1  0.26633275  0.41754411  0.71037635  1
  O  O415  1  0.26819220  0.41621718  0.96251283  1
  O  O416  1  0.26714480  0.75062721  0.21224565  1
  O  O417  1  0.26568546  0.75029232  0.46237623  1
  O  O418  1  0.26699645  0.75024611  0.71029722  1
  O  O419  1  0.26666432  0.75082583  0.95923651  1
  O  O420  1  0.76508513  0.08320443  0.21142647  1
  O  O421  1  0.76691996  0.08295538  0.45946606  1
  O  O422  1  0.76686253  0.08251632  0.70968354  1
  O  O423  1  0.76743214  0.08320529  0.96277267  1
  O  O424  1  0.76634953  0.41658242  0.21149265  1
  O  O425  1  0.76518520  0.41620266  0.45885407  1
  O  O426  1  0.76579711  0.41657390  0.71165147  1
  O  O427  1  0.76630328  0.41659946  0.96264652  1
  O  O428  1  0.76574204  0.74980291  0.20949499  1
  O  O429  1  0.76510092  0.75055617  0.46111964  1
  O  O430  1  0.76672742  0.75026077  0.71129667  1
  O  O431  1  0.76615530  0.75030077  0.96234800  1
  O  O432  1  0.01817115  0.08359264  0.16235942  1
  O  O433  1  0.01541781  0.08306234  0.41610247  1
  O  O434  1  0.01418711  0.08291622  0.66325978  1
  O  O435  1  0.01694913  0.08339862  0.91600188  1
  O  O436  1  0.01663349  0.41629478  0.16317769  1
  O  O437  1  0.01531924  0.41612870  0.41263326  1
  O  O438  1  0.01551759  0.41656058  0.66538993  1
  O  O439  1  0.01514027  0.41632589  0.91716429  1
  O  O440  1  0.01614200  0.75008750  0.16229899  1
  O  O441  1  0.01847236  0.75080369  0.41409261  1
  O  O442  1  0.01659526  0.75032504  0.66587496  1
  O  O443  1  0.01376673  0.75012666  0.91470389  1
  O  O444  1  0.51575895  0.08317999  0.16330471  1
  O  O445  1  0.51589278  0.08326860  0.41304740  1
  O  O446  1  0.51514296  0.08330607  0.66350352  1
  O  O447  1  0.51506171  0.08334108  0.91343512  1
  O  O448  1  0.51693247  0.41645207  0.16325749  1
  O  O449  1  0.51693846  0.41600289  0.41185746  1
  O  O450  1  0.51682572  0.41641630  0.66508600  1
  O  O451  1  0.51796941  0.41651684  0.91532201  1
  O  O452  1  0.51774022  0.75040152  0.16566239  1
  O  O453  1  0.51388951  0.75061404  0.41342941  1
  O  O454  1  0.51703652  0.75003429  0.66234739  1
  O  O455  1  0.51847140  0.75026582  0.91188822  1
  O  O456  1  0.48209719  0.24971109  0.08541885  1
  O  O457  1  0.48477564  0.24934235  0.33676760  1
  O  O458  1  0.48278154  0.24968455  0.58455846  1
  O  O459  1  0.48394048  0.25015152  0.83493015  1
  O  O460  1  0.48494779  0.58344463  0.08366120  1
  O  O461  1  0.48432005  0.58347369  0.33670728  1
  O  O462  1  0.48443062  0.58345284  0.58387373  1
  O  O463  1  0.48597212  0.58338571  0.83636585  1
  O  O464  1  0.48358972  0.91669129  0.08399154  1
  O  O465  1  0.48242541  0.91720639  0.33780930  1
  O  O466  1  0.48572764  0.91657714  0.58665235  1
  O  O467  1  0.48510004  0.91629760  0.83339714  1
  O  O468  1  0.98578250  0.25011183  0.08745232  1
  O  O469  1  0.98272646  0.24926545  0.33479469  1
  O  O470  1  0.98089757  0.24978008  0.58540160  1
  O  O471  1  0.98156252  0.24947908  0.83645249  1
  O  O472  1  0.98503661  0.58277696  0.08760170  1
  O  O473  1  0.98572740  0.58365101  0.33594224  1
  O  O474  1  0.98396396  0.58397895  0.58336451  1
  O  O475  1  0.98060740  0.58315790  0.83674599  1
  O  O476  1  0.98632584  0.91693012  0.08699239  1
  O  O477  1  0.98315129  0.91702113  0.33435057  1
  O  O478  1  0.98150074  0.91589626  0.58564957  1
  O  O479  1  0.98222386  0.91720229  0.83831802  1
  O  O480  1  0.08894538  0.31572993  0.07825903  1
  O  O481  1  0.08693912  0.31437637  0.32626579  1
  O  O482  1  0.08476552  0.31487870  0.57714078  1
  O  O483  1  0.08547988  0.31410955  0.82754890  1
  O  O484  1  0.08867035  0.64726756  0.07771042  1
  O  O485  1  0.08915082  0.64985564  0.32759518  1
  O  O486  1  0.08757068  0.65010545  0.57797623  1
  O  O487  1  0.08439680  0.64818050  0.82770278  1
  O  O488  1  0.08978947  0.98282003  0.07763553  1
  O  O489  1  0.08766855  0.98124678  0.32696524  1
  O  O490  1  0.08533297  0.98082598  0.57716915  1
  O  O491  1  0.08560613  0.98302795  0.82840971  1
  O  O492  1  0.58629497  0.31436651  0.07800393  1
  O  O493  1  0.58833511  0.31439167  0.32796157  1
  O  O494  1  0.58710908  0.31434919  0.57638361  1
  O  O495  1  0.58753228  0.31588304  0.82821168  1
  O  O496  1  0.58891639  0.64865812  0.07760263  1
  O  O497  1  0.58809352  0.64783050  0.32810734  1
  O  O498  1  0.58795629  0.64974296  0.57687832  1
  O  O499  1  0.58965800  0.64808852  0.82835528  1
  O  O500  1  0.58732253  0.98211786  0.07793058  1
  O  O501  1  0.58579825  0.98304770  0.32817281  1
  O  O502  1  0.58978440  0.98057530  0.57678443  1
  O  O503  1  0.58911545  0.98122321  0.82626305  1
  O  O504  1  0.41158109  0.01912533  0.17303030  1
  O  O505  1  0.41242045  0.01732492  0.42292689  1
  O  O506  1  0.41103406  0.01922908  0.67267367  1
  O  O507  1  0.41165816  0.01760928  0.92282038  1
  O  O508  1  0.41321307  0.35065199  0.17281407  1
  O  O509  1  0.41310004  0.35156724  0.42188755  1
  O  O510  1  0.41328128  0.35071974  0.67181008  1
  O  O511  1  0.41362351  0.35209382  0.92372287  1
  O  O512  1  0.41380954  0.68496894  0.17350263  1
  O  O513  1  0.40995114  0.68616919  0.42329067  1
  O  O514  1  0.41342725  0.68467025  0.67300878  1
  O  O515  1  0.41497667  0.68518129  0.92239718  1
  O  O516  1  0.91461670  0.01833758  0.17273892  1
  O  O517  1  0.91131684  0.01803119  0.42191113  1
  O  O518  1  0.91089233  0.01753271  0.67127349  1
  O  O519  1  0.91277366  0.01839926  0.92404894  1
  O  O520  1  0.91246040  0.35183166  0.17337505  1
  O  O521  1  0.91184312  0.35042066  0.42071489  1
  O  O522  1  0.91167553  0.35123314  0.67154518  1
  O  O523  1  0.91107887  0.35143800  0.92350894  1
  O  O524  1  0.91283236  0.68470775  0.17265736  1
  O  O525  1  0.91452566  0.68607448  0.42283219  1
  O  O526  1  0.91211585  0.68589066  0.67299773  1
  O  O527  1  0.90992484  0.68495672  0.92284092  1
  O  O528  1  0.16330516  0.01830888  0.20267118  1
  O  O529  1  0.16463341  0.01848488  0.45239962  1
  O  O530  1  0.16277856  0.01810857  0.70256015  1
  O  O531  1  0.16294483  0.01757053  0.95212530  1
  O  O532  1  0.16358463  0.35125652  0.20154818  1
  O  O533  1  0.16239798  0.35177743  0.45241684  1
  O  O534  1  0.16295158  0.35161843  0.70244496  1
  O  O535  1  0.16442319  0.35139579  0.95233769  1
  O  O536  1  0.16355303  0.68536235  0.20333117  1
  O  O537  1  0.16197014  0.68484786  0.45272164  1
  O  O538  1  0.16264504  0.68540342  0.70185411  1
  O  O539  1  0.16267723  0.68605083  0.95189063  1
  O  O540  1  0.66123724  0.01802931  0.20184992  1
  O  O541  1  0.66273792  0.01801737  0.45162224  1
  O  O542  1  0.66331711  0.01700945  0.70263359  1
  O  O543  1  0.66368879  0.01841957  0.95274169  1
  O  O544  1  0.66272747  0.35119054  0.20139183  1
  O  O545  1  0.66126077  0.35106003  0.45200743  1
  O  O546  1  0.66244434  0.35121867  0.70292292  1
  O  O547  1  0.66242150  0.35203639  0.95209725  1
  O  O548  1  0.66139192  0.68562198  0.20175538  1
  O  O549  1  0.66144170  0.68529195  0.45338893  1
  O  O550  1  0.66225704  0.68650628  0.70207649  1
  O  O551  1  0.66290924  0.68412663  0.95245263  1
  O  O552  1  0.33912389  0.31470986  0.04798937  1
  O  O553  1  0.33716381  0.31522998  0.29655869  1
  O  O554  1  0.33874861  0.31424039  0.54810361  1
  O  O555  1  0.33847837  0.31435791  0.79715784  1
  O  O556  1  0.33836126  0.64827959  0.04757149  1
  O  O557  1  0.33622488  0.64833161  0.29744392  1
  O  O558  1  0.33549625  0.64941187  0.54747606  1
  O  O559  1  0.33732488  0.65036501  0.79714571  1
  O  O560  1  0.33578954  0.98272751  0.04735601  1
  O  O561  1  0.33708437  0.98213832  0.29785934  1
  O  O562  1  0.33853811  0.98178603  0.54679382  1
  O  O563  1  0.33801602  0.98105380  0.79695688  1
  O  O564  1  0.83884637  0.31506920  0.04673585  1
  O  O565  1  0.83756212  0.31624397  0.29756194  1
  O  O566  1  0.83696899  0.31372416  0.54741253  1
  O  O567  1  0.83889612  0.31476655  0.79805425  1
  O  O568  1  0.83649012  0.64843604  0.04727459  1
  O  O569  1  0.83724275  0.64751164  0.29782882  1
  O  O570  1  0.83517175  0.64843309  0.54756069  1
  O  O571  1  0.83797551  0.64984403  0.79767307  1
  O  O572  1  0.83857244  0.98207874  0.04728949  1
  O  O573  1  0.83813960  0.98148283  0.29802457  1
  O  O574  1  0.83720200  0.98265018  0.54681873  1
  O  O575  1  0.83836198  0.98026266  0.79813401  1
  O  O576  1  0.41233608  0.14921415  0.17260289  1
  O  O577  1  0.41173224  0.14732175  0.42277212  1
  O  O578  1  0.41166140  0.14941013  0.67185962  1
  O  O579  1  0.41086403  0.14755329  0.92250976  1
  O  O580  1  0.41284868  0.48080971  0.17333142  1
  O  O581  1  0.41367803  0.48168499  0.42256478  1
  O  O582  1  0.41310831  0.48115678  0.67232948  1
  O  O583  1  0.41422422  0.48206080  0.92399944  1
  O  O584  1  0.41321858  0.81492363  0.17337528  1
  O  O585  1  0.41041075  0.81632201  0.42264829  1
  O  O586  1  0.41314080  0.81470409  0.67297992  1
  O  O587  1  0.41487313  0.81518405  0.92242861  1
  O  O588  1  0.91425191  0.14823997  0.17268871  1
  O  O589  1  0.91128495  0.14822427  0.42197290  1
  O  O590  1  0.91057902  0.14794609  0.67118668  1
  O  O591  1  0.91286360  0.14846099  0.92374440  1
  O  O592  1  0.91289430  0.48170882  0.17381899  1
  O  O593  1  0.91174770  0.48084411  0.42184296  1
  O  O594  1  0.91177552  0.48149717  0.67183368  1
  O  O595  1  0.91111846  0.48165504  0.92393760  1
  O  O596  1  0.91258174  0.81486926  0.17221199  1
  O  O597  1  0.91457612  0.81621605  0.42190218  1
  O  O598  1  0.91253358  0.81587106  0.67297664  1
  O  O599  1  0.90997569  0.81522901  0.92269616  1
  O  O600  1  0.08942699  0.18530101  0.07834652  1
  O  O601  1  0.08710980  0.18445069  0.32682503  1
  O  O602  1  0.08475832  0.18472178  0.57689200  1
  O  O603  1  0.08515670  0.18375966  0.82782496  1
  O  O604  1  0.08825064  0.51678357  0.07827133  1
  O  O605  1  0.08992641  0.51960180  0.32691634  1
  O  O606  1  0.08835630  0.51984269  0.57689584  1
  O  O607  1  0.08449537  0.51800379  0.82792408  1
  O  O608  1  0.09016780  0.85263230  0.07699393  1
  O  O609  1  0.08717070  0.85126685  0.32687669  1
  O  O610  1  0.08553770  0.85073503  0.57823245  1
  O  O611  1  0.08594205  0.85276908  0.82794821  1
  O  O612  1  0.58578124  0.18413226  0.07766025  1
  O  O613  1  0.58811837  0.18397234  0.32806521  1
  O  O614  1  0.58674948  0.18445455  0.57588933  1
  O  O615  1  0.58773117  0.18551047  0.82736971  1
  O  O616  1  0.58905334  0.51836217  0.07772191  1
  O  O617  1  0.58760052  0.51745561  0.32810997  1
  O  O618  1  0.58896681  0.51963249  0.57686363  1
  O  O619  1  0.58919944  0.51758417  0.82893102  1
  O  O620  1  0.58757349  0.85178509  0.07816845  1
  O  O621  1  0.58623498  0.85289506  0.32796083  1
  O  O622  1  0.58907527  0.85048549  0.57739756  1
  O  O623  1  0.58924917  0.85114999  0.82672156  1
  O  O624  1  0.33893646  0.18457233  0.04758404  1
  O  O625  1  0.33730100  0.18498444  0.29642716  1
  O  O626  1  0.33855768  0.18414560  0.54758709  1
  O  O627  1  0.33816859  0.18397326  0.79657437  1
  O  O628  1  0.33790971  0.51792292  0.04757817  1
  O  O629  1  0.33624306  0.51796616  0.29745648  1
  O  O630  1  0.33551275  0.51922402  0.54781649  1
  O  O631  1  0.33827928  0.52007054  0.79744406  1
  O  O632  1  0.33629006  0.85253735  0.04769271  1
  O  O633  1  0.33711572  0.85203315  0.29805299  1
  O  O634  1  0.33862004  0.85151692  0.54646635  1
  O  O635  1  0.33733415  0.85070574  0.79705902  1
  O  O636  1  0.83860895  0.18466655  0.04730537  1
  O  O637  1  0.83873969  0.18610642  0.29797470  1
  O  O638  1  0.83641599  0.18356780  0.54675148  1
  O  O639  1  0.83906132  0.18478136  0.79790181  1
  O  O640  1  0.83667309  0.51812709  0.04743077  1
  O  O641  1  0.83689857  0.51725761  0.29729608  1
  O  O642  1  0.83509330  0.51823970  0.54739811  1
  O  O643  1  0.83836581  0.51968481  0.79869748  1
  O  O644  1  0.83896318  0.85168204  0.04643221  1
  O  O645  1  0.83790179  0.85152571  0.29834614  1
  O  O646  1  0.83766740  0.85251240  0.54780674  1
  O  O647  1  0.83751668  0.85028100  0.79748033  1
  O  O648  1  0.16357291  0.14846994  0.20185251  1
  O  O649  1  0.16456339  0.14857367  0.45257950  1
  O  O650  1  0.16326155  0.14825709  0.70228527  1
  O  O651  1  0.16224797  0.14761286  0.95160769  1
  O  O652  1  0.16332177  0.48142063  0.20189194  1
  O  O653  1  0.16234417  0.48210491  0.45292667  1
  O  O654  1  0.16207479  0.48190646  0.70334747  1
  O  O655  1  0.16448083  0.48150614  0.95234687  1
  O  O656  1  0.16344146  0.81563960  0.20353502  1
  O  O657  1  0.16186411  0.81494334  0.45205286  1
  O  O658  1  0.16302954  0.81537452  0.70125357  1
  O  O659  1  0.16274186  0.81624217  0.95253431  1
  O  O660  1  0.66116169  0.14792786  0.20171259  1
  O  O661  1  0.66282421  0.14808172  0.45147410  1
  O  O662  1  0.66302427  0.14718319  0.70195518  1
  O  O663  1  0.66395024  0.14851238  0.95257802  1
  O  O664  1  0.66218559  0.48109868  0.20183144  1
  O  O665  1  0.66117160  0.48132311  0.45214774  1
  O  O666  1  0.66215656  0.48140680  0.70350130  1
  O  O667  1  0.66262132  0.48212319  0.95290781  1
  O  O668  1  0.66213903  0.81557214  0.20131318  1
  O  O669  1  0.66137093  0.81557866  0.45340099  1
  O  O670  1  0.66328455  0.81642702  0.70238073  1
  O  O671  1  0.66209623  0.81426911  0.95187389  1
