# generated using pymatgen
data_Na2MnFe(PO4)2
_symmetry_space_group_name_H-M   'P 1'
_cell_length_a   21.08683074
_cell_length_b   18.93901518
_cell_length_c   20.04543954
_cell_angle_alpha   89.99980668
_cell_angle_beta   90.00048317
_cell_angle_gamma   90.00054922
_symmetry_Int_Tables_number   1
_chemical_formula_structural   Na2MnFe(PO4)2
_chemical_formula_sum   'Na96 Mn48 Fe48 P96 O384'
_cell_volume   8005.42305905
_cell_formula_units_Z   48
loop_
 _symmetry_equiv_pos_site_id
 _symmetry_equiv_pos_as_xyz
  1  'x, y, z'
loop_
 _atom_site_type_symbol
 _atom_site_label
 _atom_site_symmetry_multiplicity
 _atom_site_fract_x
 _atom_site_fract_y
 _atom_site_fract_z
 _atom_site_occupancy
  Na  Na0  1  -0.00264058  -0.00048857  0.00075605  1
  Na  Na1  1  -0.00200709  -0.00013065  0.24993561  1
  Na  Na2  1  0.00029827  0.00064075  0.49862473  1
  Na  Na3  1  -0.00129253  -0.00030661  0.75052994  1
  Na  Na4  1  0.00030937  0.33242140  0.00075703  1
  Na  Na5  1  0.00186467  0.33348903  0.24953009  1
  Na  Na6  1  -0.00121775  0.33278780  0.50006940  1
  Na  Na7  1  -0.00233201  0.33185278  0.75037146  1
  Na  Na8  1  0.00084843  0.66705265  -0.00030370  1
  Na  Na9  1  -0.00050561  0.66668958  0.24904418  1
  Na  Na10  1  -0.00120940  0.66721905  0.49997605  1
  Na  Na11  1  -0.00125309  0.66690035  0.75059205  1
  Na  Na12  1  0.50025220  0.00055292  -0.00075988  1
  Na  Na13  1  0.50019747  0.00045815  0.25146678  1
  Na  Na14  1  0.50271539  0.00089844  0.49992119  1
  Na  Na15  1  0.50020786  -0.00074034  0.74943605  1
  Na  Na16  1  0.50001711  0.33306955  0.00014247  1
  Na  Na17  1  0.49897855  0.33278223  0.24968650  1
  Na  Na18  1  0.49914456  0.33303249  0.49998471  1
  Na  Na19  1  0.50099470  0.33348131  0.74988819  1
  Na  Na20  1  0.50006143  0.66672978  0.00057529  1
  Na  Na21  1  0.49904679  0.66633474  0.24907317  1
  Na  Na22  1  0.49827380  0.66562936  0.49980296  1
  Na  Na23  1  0.49976892  0.66618224  0.75079986  1
  Na  Na24  1  0.25241984  0.00064904  0.12397022  1
  Na  Na25  1  0.24969560  -0.00008954  0.37523935  1
  Na  Na26  1  0.24896825  -0.00001818  0.62518905  1
  Na  Na27  1  0.25187620  0.00083708  0.87566447  1
  Na  Na28  1  0.25193547  0.33327762  0.12543270  1
  Na  Na29  1  0.25229179  0.33347943  0.37456943  1
  Na  Na30  1  0.25201711  0.33360136  0.62419410  1
  Na  Na31  1  0.25203475  0.33385765  0.87592175  1
  Na  Na32  1  0.25087947  0.66713654  0.12587931  1
  Na  Na33  1  0.24914885  0.66580499  0.37460650  1
  Na  Na34  1  0.25081881  0.66749823  0.62507759  1
  Na  Na35  1  0.24886993  0.66614521  0.87386196  1
  Na  Na36  1  0.74955481  0.00075542  0.12426757  1
  Na  Na37  1  0.74810548  -0.00012971  0.37477047  1
  Na  Na38  1  0.74913215  -0.00018691  0.62593675  1
  Na  Na39  1  0.75049700  0.00052666  0.87551592  1
  Na  Na40  1  0.74856325  0.33260397  0.12424536  1
  Na  Na41  1  0.74964830  0.33265682  0.37431892  1
  Na  Na42  1  0.75022401  0.33288034  0.62633627  1
  Na  Na43  1  0.74822164  0.33228338  0.87483270  1
  Na  Na44  1  0.74955488  0.66667730  0.12459747  1
  Na  Na45  1  0.75073615  0.66656429  0.37544607  1
  Na  Na46  1  0.75356067  0.66815180  0.62618952  1
  Na  Na47  1  0.74945300  0.66657587  0.87411139  1
  Na  Na48  1  -0.00092046  0.16734456  0.00121956  1
  Na  Na49  1  -0.00066651  0.16732991  0.24883376  1
  Na  Na50  1  0.00010371  0.16648876  0.49859940  1
  Na  Na51  1  -0.00089599  0.16681551  0.75116154  1
  Na  Na52  1  0.00267777  0.49893567  -0.00034688  1
  Na  Na53  1  0.00129996  0.49922678  0.25001517  1
  Na  Na54  1  -0.00270234  0.50088522  0.50022605  1
  Na  Na55  1  -0.00079277  0.50007725  0.75088249  1
  Na  Na56  1  -0.00166850  0.83287569  0.00058517  1
  Na  Na57  1  -0.00033292  0.83229329  0.24965808  1
  Na  Na58  1  -0.00072135  0.83318295  0.49955562  1
  Na  Na59  1  -0.00257885  0.83395799  0.74940358  1
  Na  Na60  1  0.50212514  0.16607267  -0.00083446  1
  Na  Na61  1  0.50041618  0.16730943  0.25079443  1
  Na  Na62  1  0.50139283  0.16700015  0.50016799  1
  Na  Na63  1  0.50225967  0.16636302  0.75037135  1
  Na  Na64  1  0.49970827  0.49991859  0.00013105  1
  Na  Na65  1  0.49775813  0.50043158  0.24900997  1
  Na  Na66  1  0.49709797  0.50051420  0.49901449  1
  Na  Na67  1  0.49871161  0.50016568  0.75069605  1
  Na  Na68  1  0.49816997  0.83447680  0.00042091  1
  Na  Na69  1  0.49907812  0.83422962  0.25036066  1
  Na  Na70  1  0.50138085  0.83325396  0.50043624  1
  Na  Na71  1  0.50111027  0.83305304  0.74935672  1
  Na  Na72  1  0.25055577  0.16743552  0.12485853  1
  Na  Na73  1  0.25047150  0.16669544  0.37566589  1
  Na  Na74  1  0.25004243  0.16640749  0.62392363  1
  Na  Na75  1  0.24997670  0.16683655  0.87503270  1
  Na  Na76  1  0.25175187  0.49940734  0.12538934  1
  Na  Na77  1  0.25316591  0.49919855  0.37454323  1
  Na  Na78  1  0.25272915  0.49953179  0.62460969  1
  Na  Na79  1  0.25090146  0.49967990  0.87530708  1
  Na  Na80  1  0.25212727  0.83305929  0.12517744  1
  Na  Na81  1  0.24808368  0.83412075  0.37380202  1
  Na  Na82  1  0.24805050  0.83393049  0.62604392  1
  Na  Na83  1  0.25152912  0.83309060  0.87519389  1
  Na  Na84  1  0.74965494  0.16659433  0.12470013  1
  Na  Na85  1  0.74803099  0.16759822  0.37417386  1
  Na  Na86  1  0.74952876  0.16681491  0.62610781  1
  Na  Na87  1  0.74910319  0.16727758  0.87566627  1
  Na  Na88  1  0.74696642  0.50082331  0.12462427  1
  Na  Na89  1  0.75028856  0.49962512  0.37516026  1
  Na  Na90  1  0.75210251  0.49868289  0.62616218  1
  Na  Na91  1  0.74768326  0.50072391  0.87431668  1
  Na  Na92  1  0.75149077  0.83244154  0.12391405  1
  Na  Na93  1  0.75174195  0.83275724  0.37501698  1
  Na  Na94  1  0.75149621  0.83334157  0.62628840  1
  Na  Na95  1  0.75015285  0.83333588  0.87448913  1
  Mn  Mn96  1  0.10641909  0.75048586  0.62282994  1
  Mn  Mn97  1  0.64222128  0.91627052  0.24726379  1
  Mn  Mn98  1  0.14289391  0.91651754  0.99738509  1
  Mn  Mn99  1  0.89142117  0.91700085  0.12747655  1
  Mn  Mn100  1  0.85700448  0.41699115  0.00251662  1
  Mn  Mn101  1  0.64217647  0.58360795  0.74709627  1
  Mn  Mn102  1  0.64266789  0.58312938  0.49810594  1
  Mn  Mn103  1  0.35800456  0.75019249  0.25302885  1
  Mn  Mn104  1  0.60857187  0.74945572  0.37304036  1
  Mn  Mn105  1  0.35778296  0.08259107  0.50240887  1
  Mn  Mn106  1  0.89168090  0.25033222  0.37644645  1
  Mn  Mn107  1  0.14245843  0.58261741  0.74725983  1
  Mn  Mn108  1  0.14282678  0.58238486  0.24768102  1
  Mn  Mn109  1  0.10830983  0.41713096  0.37335639  1
  Mn  Mn110  1  0.10796750  0.08331800  0.37147537  1
  Mn  Mn111  1  0.89174995  0.91685314  0.37715188  1
  Mn  Mn112  1  0.10782454  0.74955627  0.12216233  1
  Mn  Mn113  1  0.35904645  0.08368013  0.00256428  1
  Mn  Mn114  1  0.89132023  0.58286437  0.37667016  1
  Mn  Mn115  1  0.10751978  0.41620655  0.62267025  1
  Mn  Mn116  1  0.60832529  0.08329284  0.62278036  1
  Mn  Mn117  1  0.35704172  0.75042607  0.50191400  1
  Mn  Mn118  1  0.60739849  0.41702184  0.37313232  1
  Mn  Mn119  1  0.35802194  0.75063052  0.75267884  1
  Mn  Mn120  1  0.14203470  0.25007603  0.74795254  1
  Mn  Mn121  1  0.89196427  0.58192308  0.12646316  1
  Mn  Mn122  1  0.60739254  0.75084539  0.12261322  1
  Mn  Mn123  1  0.39254161  0.91675751  0.37844726  1
  Mn  Mn124  1  0.39216614  0.91629181  0.62697179  1
  Mn  Mn125  1  0.14211052  0.58349522  0.49814314  1
  Mn  Mn126  1  0.10855598  0.41636715  0.87266252  1
  Mn  Mn127  1  0.64197214  0.91635552  0.99729936  1
  Mn  Mn128  1  0.39250596  0.58424166  0.87796585  1
  Mn  Mn129  1  0.60675240  0.41628525  0.12271177  1
  Mn  Mn130  1  0.60843803  0.74901797  0.62259581  1
  Mn  Mn131  1  0.85793705  0.08309057  0.75238811  1
  Mn  Mn132  1  0.14274404  0.91786133  0.24717898  1
  Mn  Mn133  1  0.60747673  0.41737992  0.62241441  1
  Mn  Mn134  1  0.85763782  0.41654762  0.75305645  1
  Mn  Mn135  1  0.14158290  0.91737387  0.74861089  1
  Mn  Mn136  1  0.10710846  0.08242182  0.87349611  1
  Mn  Mn137  1  0.89247398  0.58291698  0.87846088  1
  Mn  Mn138  1  0.39338035  0.24927079  0.87697112  1
  Mn  Mn139  1  0.85712417  0.08358896  0.50240002  1
  Mn  Mn140  1  0.14210983  0.25038192  0.49787732  1
  Mn  Mn141  1  0.39267084  0.24993625  0.62764537  1
  Mn  Mn142  1  0.85753887  0.41677009  0.25149226  1
  Mn  Mn143  1  0.10760761  0.08353133  0.12303170  1
  Fe  Fe144  1  0.85701635  0.74975799  0.25138436  1
  Fe  Fe145  1  0.60783301  0.08259748  0.87294495  1
  Fe  Fe146  1  0.85727546  0.75028766  0.75279157  1
  Fe  Fe147  1  0.85784290  0.74973123  0.50182539  1
  Fe  Fe148  1  0.35776172  0.41696786  0.00179937  1
  Fe  Fe149  1  0.10879347  0.41628823  0.12338145  1
  Fe  Fe150  1  0.89217548  0.58301027  0.62686024  1
  Fe  Fe151  1  0.60749646  0.08384336  0.37308798  1
  Fe  Fe152  1  0.10695694  0.75062832  0.87399780  1
  Fe  Fe153  1  0.64296882  0.25024984  0.49840521  1
  Fe  Fe154  1  0.39269138  0.58352732  0.37673444  1
  Fe  Fe155  1  0.35795320  0.41581709  0.75197359  1
  Fe  Fe156  1  0.60675188  0.41676354  0.87351800  1
  Fe  Fe157  1  0.85579874  0.08344416  0.25137211  1
  Fe  Fe158  1  0.89206175  0.24958508  0.87802965  1
  Fe  Fe159  1  0.39308193  0.91760143  0.12691772  1
  Fe  Fe160  1  0.14338455  0.25037671  0.99870547  1
  Fe  Fe161  1  0.64325819  0.24976500  0.74842900  1
  Fe  Fe162  1  0.39350858  0.24992527  0.37678769  1
  Fe  Fe163  1  0.89175733  0.91687892  0.87709337  1
  Fe  Fe164  1  0.39301323  0.24916388  0.12698602  1
  Fe  Fe165  1  0.35754129  0.41572315  0.25171583  1
  Fe  Fe166  1  0.10694091  0.08328715  0.62399244  1
  Fe  Fe167  1  0.89214339  0.91739098  0.62641388  1
  Fe  Fe168  1  0.14382402  0.58325100  0.99896156  1
  Fe  Fe169  1  0.35793754  0.41665038  0.50174345  1
  Fe  Fe170  1  0.64201318  0.25051537  0.24767154  1
  Fe  Fe171  1  0.39354418  0.91667690  0.87586197  1
  Fe  Fe172  1  0.35852226  0.08410333  0.25180298  1
  Fe  Fe173  1  0.60704404  0.08341251  0.12380594  1
  Fe  Fe174  1  0.64171920  0.58323516  0.24855268  1
  Fe  Fe175  1  0.85745129  0.41633634  0.50194092  1
  Fe  Fe176  1  0.39224748  0.58376878  0.62674224  1
  Fe  Fe177  1  0.14414433  0.24982315  0.24830100  1
  Fe  Fe178  1  0.39246686  0.58359726  0.12648841  1
  Fe  Fe179  1  0.60744563  0.75032986  0.87375078  1
  Fe  Fe180  1  0.35774696  0.74940910  0.00114385  1
  Fe  Fe181  1  0.35759122  0.08373857  0.75129191  1
  Fe  Fe182  1  0.85672298  0.74951528  0.00097811  1
  Fe  Fe183  1  0.89276304  0.25064025  0.12667248  1
  Fe  Fe184  1  0.85618745  0.08377726  0.00195607  1
  Fe  Fe185  1  0.64244751  0.25052745  0.99828650  1
  Fe  Fe186  1  0.64155449  0.58328576  0.99843762  1
  Fe  Fe187  1  0.64312405  0.91664218  0.74865005  1
  Fe  Fe188  1  0.89200638  0.24955460  0.62646915  1
  Fe  Fe189  1  0.14110178  0.91650311  0.49846432  1
  Fe  Fe190  1  0.10640765  0.74970773  0.37349563  1
  Fe  Fe191  1  0.64352953  0.91659659  0.49882338  1
  P  P192  1  0.05489568  0.25063237  0.11087916  1
  P  P193  1  0.05422482  0.25032582  0.35863841  1
  P  P194  1  0.05166399  0.24910042  0.61019111  1
  P  P195  1  0.05319387  0.24954774  0.86167562  1
  P  P196  1  0.05438268  0.58211164  0.10922008  1
  P  P197  1  0.05306233  0.58411442  0.35991415  1
  P  P198  1  0.05145151  0.58327337  0.61028614  1
  P  P199  1  0.05531971  0.58428673  0.86144500  1
  P  P200  1  0.05310232  0.91683263  0.10975989  1
  P  P201  1  0.05410872  0.91559341  0.36036748  1
  P  P202  1  0.05180911  0.91762111  0.60973231  1
  P  P203  1  0.05134711  0.91577247  0.86062959  1
  P  P204  1  0.55377244  0.24921103  0.11060181  1
  P  P205  1  0.55446628  0.25007222  0.36075750  1
  P  P206  1  0.55534553  0.25028342  0.61041126  1
  P  P207  1  0.55592906  0.25025411  0.86082935  1
  P  P208  1  0.55347752  0.58332282  0.11065588  1
  P  P209  1  0.55238817  0.58299054  0.35923847  1
  P  P210  1  0.55166558  0.58298233  0.60954363  1
  P  P211  1  0.55480765  0.58347925  0.86147930  1
  P  P212  1  0.55214268  0.91796811  0.11016306  1
  P  P213  1  0.55533388  0.91713105  0.36149822  1
  P  P214  1  0.55545734  0.91634134  0.61037137  1
  P  P215  1  0.55337828  0.91628732  0.85945274  1
  P  P216  1  0.44772223  0.08390455  0.14055582  1
  P  P217  1  0.44713637  0.08448085  0.38934060  1
  P  P218  1  0.44657334  0.08321972  0.64070687  1
  P  P219  1  0.44742871  0.08260861  0.88821865  1
  P  P220  1  0.44420288  0.41634052  0.13886067  1
  P  P221  1  0.44465681  0.41624384  0.38878424  1
  P  P222  1  0.44495752  0.41745005  0.63963488  1
  P  P223  1  0.44618606  0.41637846  0.88967666  1
  P  P224  1  0.44513837  0.75024612  0.13867793  1
  P  P225  1  0.44716622  0.74943070  0.39031646  1
  P  P226  1  0.44675887  0.74935267  0.64002945  1
  P  P227  1  0.44774634  0.75105656  0.89050171  1
  P  P228  1  0.94401679  0.08466499  0.13942422  1
  P  P229  1  0.94503654  0.08379831  0.38836821  1
  P  P230  1  0.94732340  0.08340788  0.63973758  1
  P  P231  1  0.94519696  0.08324253  0.89124261  1
  P  P232  1  0.94833150  0.41581923  0.13971677  1
  P  P233  1  0.94602078  0.41634958  0.39051882  1
  P  P234  1  0.94505598  0.41621300  0.63927012  1
  P  P235  1  0.94680983  0.41560399  0.89084388  1
  P  P236  1  0.94426600  0.74917135  0.13907468  1
  P  P237  1  0.94519120  0.74980457  0.38923694  1
  P  P238  1  0.94370859  0.75038622  0.63945369  1
  P  P239  1  0.94563251  0.75075145  0.88973645  1
  P  P240  1  0.19884605  0.08439940  0.23464688  1
  P  P241  1  0.19465896  0.08251734  0.48611955  1
  P  P242  1  0.19717179  0.08356804  0.73478496  1
  P  P243  1  0.19713202  0.08441060  0.98529689  1
  P  P244  1  0.19786515  0.41546686  0.23487058  1
  P  P245  1  0.19851514  0.41692617  0.48485838  1
  P  P246  1  0.19843997  0.41618376  0.73463914  1
  P  P247  1  0.19722638  0.41649030  0.98674450  1
  P  P248  1  0.19548279  0.75003691  0.23595021  1
  P  P249  1  0.19522821  0.75076799  0.48435572  1
  P  P250  1  0.19506572  0.75047624  0.73623382  1
  P  P251  1  0.19781436  0.74922587  0.98460849  1
  P  P252  1  0.69516503  0.08417604  0.23518696  1
  P  P253  1  0.69589987  0.08376333  0.48460904  1
  P  P254  1  0.69537449  0.08304850  0.73689607  1
  P  P255  1  0.69517848  0.08416114  0.98596058  1
  P  P256  1  0.69581546  0.41670500  0.23486924  1
  P  P257  1  0.69804876  0.41591009  0.48536511  1
  P  P258  1  0.69501391  0.41586433  0.73638847  1
  P  P259  1  0.69524116  0.41651965  0.98446243  1
  P  P260  1  0.69761275  0.74928588  0.23484926  1
  P  P261  1  0.69866476  0.75041073  0.48563044  1
  P  P262  1  0.69655590  0.75101937  0.73647659  1
  P  P263  1  0.69683451  0.74944605  0.98429354  1
  P  P264  1  0.30397914  0.25056700  0.01542904  1
  P  P265  1  0.30516257  0.24945973  0.26429667  1
  P  P266  1  0.30512622  0.25022790  0.51360227  1
  P  P267  1  0.30376816  0.24961940  0.76501006  1
  P  P268  1  0.30336017  0.58368778  0.01526319  1
  P  P269  1  0.30569280  0.58237737  0.26425495  1
  P  P270  1  0.30511059  0.58311967  0.51432570  1
  P  P271  1  0.30502978  0.58254799  0.76408675  1
  P  P272  1  0.30608536  0.91573306  0.01398492  1
  P  P273  1  0.30549950  0.91829223  0.26402408  1
  P  P274  1  0.30110278  0.91627223  0.51533158  1
  P  P275  1  0.30398581  0.91798578  0.76576007  1
  P  P276  1  0.80352492  0.24958630  0.01449494  1
  P  P277  1  0.80276867  0.24959346  0.26302395  1
  P  P278  1  0.80243908  0.25038823  0.51542115  1
  P  P279  1  0.80420816  0.24946556  0.76507657  1
  P  P280  1  0.80124030  0.58365294  0.01460054  1
  P  P281  1  0.80156540  0.58359259  0.26437460  1
  P  P282  1  0.80393121  0.58289855  0.51588638  1
  P  P283  1  0.80488590  0.58389673  0.76439795  1
  P  P284  1  0.80414838  0.91677209  0.01344008  1
  P  P285  1  0.80311852  0.91698045  0.26452436  1
  P  P286  1  0.80275446  0.91658932  0.51563347  1
  P  P287  1  0.80423907  0.91654614  0.76470938  1
  O  O288  1  0.06018572  0.24994947  0.18748772  1
  O  O289  1  0.05726603  0.25011613  0.43545557  1
  O  O290  1  0.05536722  0.24983648  0.68692419  1
  O  O291  1  0.05889281  0.25002780  0.93826457  1
  O  O292  1  0.05725748  0.58292210  0.18602282  1
  O  O293  1  0.05600120  0.58354157  0.43668783  1
  O  O294  1  0.05559126  0.58298224  0.68700373  1
  O  O295  1  0.06020797  0.58346486  0.93814836  1
  O  O296  1  0.05664442  0.91702537  0.18653251  1
  O  O297  1  0.05777752  0.91651589  0.43714908  1
  O  O298  1  0.05547246  0.91696742  0.68645424  1
  O  O299  1  0.05570136  0.91620572  0.93726553  1
  O  O300  1  0.55824158  0.25017755  0.18734052  1
  O  O301  1  0.55916737  0.25082767  0.43745104  1
  O  O302  1  0.55972389  0.25016522  0.68716437  1
  O  O303  1  0.55910692  0.25024166  0.93770031  1
  O  O304  1  0.55838927  0.58338713  0.18732224  1
  O  O305  1  0.55671181  0.58292107  0.43592408  1
  O  O306  1  0.55607935  0.58289051  0.68625308  1
  O  O307  1  0.55841030  0.58351776  0.93830362  1
  O  O308  1  0.55594990  0.91706132  0.18684241  1
  O  O309  1  0.56008869  0.91620691  0.43822440  1
  O  O310  1  0.55970782  0.91623633  0.68712019  1
  O  O311  1  0.55643711  0.91660508  0.93632979  1
  O  O312  1  0.44465390  0.08414295  0.06374019  1
  O  O313  1  0.44249429  0.08395009  0.31269042  1
  O  O314  1  0.44340233  0.08334093  0.56388393  1
  O  O315  1  0.44243797  0.08357705  0.81167664  1
  O  O316  1  0.44082560  0.41656236  0.06198598  1
  O  O317  1  0.44131816  0.41584379  0.31195292  1
  O  O318  1  0.44119446  0.41646993  0.56280415  1
  O  O319  1  0.44166563  0.41612863  0.81296799  1
  O  O320  1  0.44154806  0.74967410  0.06193207  1
  O  O321  1  0.44397655  0.75043362  0.31352813  1
  O  O322  1  0.44337853  0.75024848  0.56331908  1
  O  O323  1  0.44413633  0.74998688  0.81380197  1
  O  O324  1  0.93975658  0.08392435  0.06269039  1
  O  O325  1  0.93995222  0.08379925  0.31168268  1
  O  O326  1  0.94394428  0.08348314  0.56303905  1
  O  O327  1  0.94285588  0.08342847  0.81440069  1
  O  O328  1  0.94388666  0.41645289  0.06311234  1
  O  O329  1  0.94293683  0.41624906  0.31371565  1
  O  O330  1  0.94113502  0.41623466  0.56248965  1
  O  O331  1  0.94321600  0.41626457  0.81408040  1
  O  O332  1  0.93953815  0.74902341  0.06232328  1
  O  O333  1  0.94033765  0.74969035  0.31250254  1
  O  O334  1  0.94021585  0.75037213  0.56253994  1
  O  O335  1  0.94108446  0.75015076  0.81299007  1
  O  O336  1  0.19371660  0.08362641  0.06199784  1
  O  O337  1  0.19479938  0.08355786  0.31136097  1
  O  O338  1  0.19014974  0.08318391  0.56286186  1
  O  O339  1  0.19304362  0.08338266  0.81149760  1
  O  O340  1  0.19291949  0.41624084  0.06341040  1
  O  O341  1  0.19426229  0.41638254  0.31153443  1
  O  O342  1  0.19412002  0.41683191  0.56154102  1
  O  O343  1  0.19431311  0.41629196  0.81139335  1
  O  O344  1  0.19430960  0.75028179  0.06137102  1
  O  O345  1  0.19070399  0.74981576  0.31260192  1
  O  O346  1  0.19233272  0.75001959  0.56123039  1
  O  O347  1  0.19053683  0.75071508  0.81294020  1
  O  O348  1  0.69051259  0.08328334  0.06264612  1
  O  O349  1  0.69076115  0.08383429  0.31188979  1
  O  O350  1  0.69368932  0.08370365  0.56147125  1
  O  O351  1  0.69177263  0.08288317  0.81368964  1
  O  O352  1  0.69232771  0.41643956  0.06126473  1
  O  O353  1  0.69328277  0.41646936  0.31162652  1
  O  O354  1  0.69430200  0.41659273  0.56205433  1
  O  O355  1  0.69065051  0.41674481  0.81306429  1
  O  O356  1  0.69302567  0.75027950  0.06100912  1
  O  O357  1  0.69422206  0.74991894  0.31156785  1
  O  O358  1  0.69501596  0.74982846  0.56232792  1
  O  O359  1  0.69134030  0.75027219  0.81307438  1
  O  O360  1  0.30936845  0.24905454  0.18757898  1
  O  O361  1  0.30927383  0.24935831  0.43686096  1
  O  O362  1  0.30645616  0.24945961  0.68825297  1
  O  O363  1  0.30787496  0.24963669  0.93875609  1
  O  O364  1  0.30951340  0.58363645  0.18747343  1
  O  O365  1  0.30901715  0.58392027  0.43751938  1
  O  O366  1  0.30880888  0.58378906  0.68732312  1
  O  O367  1  0.30652439  0.58366644  0.93848148  1
  O  O368  1  0.30989790  0.91777537  0.18723218  1
  O  O369  1  0.30562618  0.91643047  0.43862222  1
  O  O370  1  0.30662048  0.91688546  0.68898291  1
  O  O371  1  0.31036637  0.91683531  0.93724776  1
  O  O372  1  0.80780054  0.25050920  0.18641084  1
  O  O373  1  0.80588537  0.24976897  0.43869015  1
  O  O374  1  0.80915851  0.24929393  0.68838289  1
  O  O375  1  0.80812800  0.25014604  0.93778283  1
  O  O376  1  0.80529120  0.58278227  0.18772283  1
  O  O377  1  0.80611072  0.58290012  0.43905304  1
  O  O378  1  0.80926744  0.58302232  0.68768465  1
  O  O379  1  0.80536628  0.58286815  0.93795120  1
  O  O380  1  0.80552051  0.91718589  0.18770607  1
  O  O381  1  0.80620994  0.91732757  0.43891086  1
  O  O382  1  0.80877091  0.91760841  0.68803844  1
  O  O383  1  0.80761753  0.91685036  0.93667713  1
  O  O384  1  0.23385225  0.25035611  0.03973011  1
  O  O385  1  0.23491005  0.24990424  0.28847364  1
  O  O386  1  0.23515826  0.25009095  0.53799742  1
  O  O387  1  0.23432119  0.25018363  0.79088433  1
  O  O388  1  0.23342935  0.58338347  0.04028944  1
  O  O389  1  0.23564565  0.58238590  0.28841577  1
  O  O390  1  0.23514353  0.58373919  0.53886789  1
  O  O391  1  0.23513871  0.58253639  0.78861625  1
  O  O392  1  0.23597976  0.91672616  0.03813198  1
  O  O393  1  0.23543578  0.91761213  0.28791835  1
  O  O394  1  0.23106326  0.91658142  0.53959981  1
  O  O395  1  0.23432500  0.91734670  0.79115032  1
  O  O396  1  0.73296098  0.24995584  0.03772948  1
  O  O397  1  0.73239477  0.25005464  0.28668418  1
  O  O398  1  0.73241468  0.24979033  0.54017059  1
  O  O399  1  0.73370725  0.24956972  0.78818481  1
  O  O400  1  0.73108912  0.58354136  0.03886402  1
  O  O401  1  0.73166960  0.58317057  0.28951622  1
  O  O402  1  0.73445329  0.58323178  0.54199133  1
  O  O403  1  0.73473260  0.58369921  0.78802020  1
  O  O404  1  0.73421810  0.91660902  0.03830920  1
  O  O405  1  0.73365350  0.91650038  0.29024132  1
  O  O406  1  0.73272468  0.91692567  0.54036863  1
  O  O407  1  0.73392545  0.91695426  0.78856923  1
  O  O408  1  0.26886964  0.08433614  0.21016737  1
  O  O409  1  0.26477162  0.08293364  0.46208336  1
  O  O410  1  0.26727193  0.08332020  0.71043543  1
  O  O411  1  0.26704245  0.08402038  0.96068547  1
  O  O412  1  0.26808434  0.41600249  0.21072800  1
  O  O413  1  0.26859439  0.41665836  0.46063693  1
  O  O414  1  0.26852450  0.41615593  0.71053420  1
  O  O415  1  0.26757752  0.41675767  0.96265105  1
  O  O416  1  0.26570561  0.75020498  0.21243249  1
  O  O417  1  0.26486748  0.75014641  0.45896719  1
  O  O418  1  0.26517971  0.75087639  0.71241009  1
  O  O419  1  0.26791151  0.74940803  0.95998688  1
  O  O420  1  0.76544224  0.08359452  0.21129376  1
  O  O421  1  0.76545177  0.08390453  0.45893900  1
  O  O422  1  0.76519805  0.08318126  0.71207570  1
  O  O423  1  0.76560740  0.08394736  0.96242068  1
  O  O424  1  0.76525610  0.41658493  0.20887827  1
  O  O425  1  0.76797169  0.41613719  0.46049098  1
  O  O426  1  0.76511135  0.41593094  0.71259587  1
  O  O427  1  0.76490757  0.41638602  0.95913663  1
  O  O428  1  0.76754170  0.74974544  0.20991487  1
  O  O429  1  0.76872620  0.74978204  0.46101508  1
  O  O430  1  0.76700312  0.75075411  0.71324421  1
  O  O431  1  0.76696569  0.74988260  0.95992371  1
  O  O432  1  0.01417266  0.08391794  0.16337117  1
  O  O433  1  0.01521812  0.08382770  0.41174277  1
  O  O434  1  0.01709100  0.08325374  0.66527024  1
  O  O435  1  0.01478304  0.08323087  0.91685042  1
  O  O436  1  0.01844809  0.41609576  0.16398371  1
  O  O437  1  0.01570781  0.41677155  0.41564402  1
  O  O438  1  0.01489292  0.41591150  0.66425953  1
  O  O439  1  0.01665309  0.41563835  0.91534143  1
  O  O440  1  0.01454522  0.74945692  0.16240625  1
  O  O441  1  0.01544094  0.74994302  0.41300472  1
  O  O442  1  0.01373528  0.75036932  0.66385178  1
  O  O443  1  0.01596051  0.75033651  0.91358340  1
  O  O444  1  0.51766097  0.08388270  0.16552408  1
  O  O445  1  0.51744994  0.08417875  0.41314123  1
  O  O446  1  0.51643284  0.08301614  0.66519384  1
  O  O447  1  0.51785539  0.08293584  0.91186691  1
  O  O448  1  0.51415215  0.41635842  0.16342266  1
  O  O449  1  0.51454291  0.41653330  0.41369280  1
  O  O450  1  0.51492081  0.41678863  0.66400761  1
  O  O451  1  0.51651072  0.41657515  0.91336862  1
  O  O452  1  0.51502274  0.75042006  0.16359132  1
  O  O453  1  0.51681513  0.74929749  0.41548653  1
  O  O454  1  0.51647220  0.74928008  0.66511286  1
  O  O455  1  0.51779316  0.75071352  0.91514440  1
  O  O456  1  0.48342537  0.24967406  0.08683282  1
  O  O457  1  0.48404238  0.25040062  0.33720300  1
  O  O458  1  0.48522607  0.25001584  0.58670402  1
  O  O459  1  0.48601683  0.24983355  0.83609181  1
  O  O460  1  0.48298330  0.58307386  0.08733355  1
  O  O461  1  0.48218765  0.58308152  0.33529694  1
  O  O462  1  0.48163406  0.58318882  0.58544239  1
  O  O463  1  0.48483754  0.58348749  0.83705954  1
  O  O464  1  0.48216233  0.91787812  0.08559985  1
  O  O465  1  0.48521785  0.91712227  0.33770312  1
  O  O466  1  0.48538868  0.91702954  0.58625503  1
  O  O467  1  0.48341550  0.91630101  0.83458150  1
  O  O468  1  0.98425444  0.25009423  0.08789647  1
  O  O469  1  0.98441394  0.25028479  0.33388405  1
  O  O470  1  0.98166676  0.24948795  0.58536092  1
  O  O471  1  0.98262518  0.24921419  0.83870046  1
  O  O472  1  0.98466846  0.58267862  0.08398283  1
  O  O473  1  0.98347738  0.58323850  0.33443002  1
  O  O474  1  0.98132312  0.58392911  0.58610875  1
  O  O475  1  0.98512352  0.58365925  0.83780630  1
  O  O476  1  0.98316918  0.91658697  0.08548473  1
  O  O477  1  0.98419182  0.91606152  0.33579795  1
  O  O478  1  0.98170581  0.91693438  0.58510816  1
  O  O479  1  0.98124818  0.91662300  0.83631128  1
  O  O480  1  0.08794592  0.31582081  0.07742333  1
  O  O481  1  0.08854026  0.31543211  0.32655759  1
  O  O482  1  0.08578059  0.31401498  0.57725007  1
  O  O483  1  0.08610625  0.31449804  0.82761579  1
  O  O484  1  0.08894335  0.64688875  0.07653495  1
  O  O485  1  0.08682589  0.64935016  0.32759103  1
  O  O486  1  0.08538470  0.64826620  0.57771098  1
  O  O487  1  0.08814734  0.64974475  0.82852904  1
  O  O488  1  0.08680495  0.98196828  0.07715443  1
  O  O489  1  0.08795492  0.98053429  0.32709874  1
  O  O490  1  0.08551033  0.98280774  0.57723989  1
  O  O491  1  0.08523682  0.98084611  0.82775392  1
  O  O492  1  0.58742643  0.31401147  0.07702875  1
  O  O493  1  0.58776674  0.31493485  0.32693251  1
  O  O494  1  0.58867298  0.31526138  0.57695710  1
  O  O495  1  0.58929427  0.31553465  0.82802622  1
  O  O496  1  0.58681160  0.64826340  0.07718584  1
  O  O497  1  0.58636527  0.64790068  0.32629365  1
  O  O498  1  0.58563409  0.64792350  0.57680367  1
  O  O499  1  0.58828064  0.64874230  0.82864871  1
  O  O500  1  0.58599493  0.98302685  0.07772413  1
  O  O501  1  0.58856206  0.98249987  0.32869014  1
  O  O502  1  0.58953942  0.98118003  0.57745365  1
  O  O503  1  0.58766238  0.98114748  0.82685339  1
  O  O504  1  0.41354410  0.01899190  0.17306504  1
  O  O505  1  0.41371473  0.01955884  0.42298468  1
  O  O506  1  0.41223011  0.01834945  0.67306444  1
  O  O507  1  0.41435635  0.01744987  0.92138750  1
  O  O508  1  0.41069219  0.35105940  0.17160165  1
  O  O509  1  0.41106007  0.35118749  0.42186260  1
  O  O510  1  0.41103761  0.35261928  0.67302443  1
  O  O511  1  0.41280827  0.35141007  0.92301276  1
  O  O512  1  0.41159804  0.68509227  0.17161503  1
  O  O513  1  0.41285794  0.68418302  0.42189664  1
  O  O514  1  0.41261925  0.68431551  0.67236197  1
  O  O515  1  0.41359233  0.68626212  0.92368488  1
  O  O516  1  0.90996790  0.01993317  0.17276434  1
  O  O517  1  0.91185410  0.01877138  0.42188771  1
  O  O518  1  0.91313705  0.01832038  0.67218991  1
  O  O519  1  0.91066736  0.01812096  0.92307726  1
  O  O520  1  0.91453401  0.35073144  0.17244759  1
  O  O521  1  0.91194332  0.35125144  0.42300293  1
  O  O522  1  0.91114032  0.35101900  0.67184012  1
  O  O523  1  0.91265884  0.35062753  0.92311115  1
  O  O524  1  0.91101013  0.68407815  0.17241541  1
  O  O525  1  0.91174471  0.68483400  0.42255779  1
  O  O526  1  0.91000963  0.68543328  0.67254010  1
  O  O527  1  0.91206766  0.68585184  0.92334519  1
  O  O528  1  0.16488142  0.01957440  0.20151416  1
  O  O529  1  0.16136719  0.01724412  0.45318739  1
  O  O530  1  0.16290745  0.01865027  0.70210557  1
  O  O531  1  0.16315118  0.01942325  0.95241314  1
  O  O532  1  0.16444043  0.35018222  0.20218540  1
  O  O533  1  0.16469353  0.35197767  0.45202384  1
  O  O534  1  0.16466136  0.35108733  0.70195943  1
  O  O535  1  0.16411035  0.35127453  0.95334968  1
  O  O536  1  0.16242581  0.68480981  0.20263726  1
  O  O537  1  0.16063974  0.68589366  0.45186368  1
  O  O538  1  0.16196579  0.68532190  0.70286139  1
  O  O539  1  0.16388574  0.68400600  0.95251713  1
  O  O540  1  0.66153331  0.01925595  0.20173456  1
  O  O541  1  0.66161114  0.01864965  0.45249860  1
  O  O542  1  0.66183525  0.01790317  0.70409739  1
  O  O543  1  0.66185441  0.01919837  0.95217205  1
  O  O544  1  0.66132946  0.35172116  0.20254892  1
  O  O545  1  0.66412973  0.35083089  0.45284389  1
  O  O546  1  0.66177475  0.35055613  0.70363831  1
  O  O547  1  0.66094490  0.35136171  0.95236579  1
  O  O548  1  0.66361019  0.68421739  0.20258658  1
  O  O549  1  0.66460443  0.68545640  0.45282918  1
  O  O550  1  0.66349445  0.68608976  0.70247499  1
  O  O551  1  0.66291548  0.68445573  0.95181505  1
  O  O552  1  0.33786760  0.31558082  0.04793576  1
  O  O553  1  0.33888267  0.31463549  0.29703405  1
  O  O554  1  0.33873004  0.31549980  0.54614057  1
  O  O555  1  0.33847286  0.31455405  0.79711280  1
  O  O556  1  0.33735248  0.64884450  0.04767452  1
  O  O557  1  0.33935395  0.64712781  0.29795949  1
  O  O558  1  0.33909468  0.64787100  0.54768835  1
  O  O559  1  0.33857620  0.64756724  0.79751254  1
  O  O560  1  0.34031026  0.98046845  0.04736859  1
  O  O561  1  0.33862760  0.98362678  0.29699629  1
  O  O562  1  0.33531735  0.98109113  0.54803665  1
  O  O563  1  0.33810253  0.98335292  0.79762898  1
  O  O564  1  0.83699883  0.31443892  0.04816035  1
  O  O565  1  0.83620347  0.31442335  0.29669574  1
  O  O566  1  0.83627118  0.31546194  0.54799672  1
  O  O567  1  0.83751113  0.31433233  0.79869644  1
  O  O568  1  0.83509671  0.64867550  0.04696646  1
  O  O569  1  0.83541759  0.64874929  0.29682200  1
  O  O570  1  0.83865774  0.64788403  0.54778987  1
  O  O571  1  0.83817558  0.64918537  0.79718017  1
  O  O572  1  0.83753572  0.98201878  0.04630297  1
  O  O573  1  0.83694129  0.98228671  0.29681704  1
  O  O574  1  0.83665820  0.98160522  0.54866033  1
  O  O575  1  0.83788586  0.98132038  0.79831360  1
  O  O576  1  0.41373119  0.14899227  0.17318548  1
  O  O577  1  0.41394222  0.14967809  0.42231350  1
  O  O578  1  0.41272951  0.14824157  0.67351817  1
  O  O579  1  0.41432668  0.14742950  0.92235589  1
  O  O580  1  0.41041400  0.48132198  0.17165417  1
  O  O581  1  0.41066026  0.48136814  0.42126987  1
  O  O582  1  0.41150798  0.48273330  0.67220240  1
  O  O583  1  0.41253285  0.48131868  0.92291732  1
  O  O584  1  0.41154569  0.81554344  0.17122887  1
  O  O585  1  0.41317463  0.81438304  0.42322763  1
  O  O586  1  0.41292830  0.81453525  0.67272354  1
  O  O587  1  0.41374149  0.81621460  0.92253303  1
  O  O588  1  0.91074835  0.15004105  0.17219292  1
  O  O589  1  0.91176909  0.14882087  0.42175254  1
  O  O590  1  0.91319323  0.14837646  0.67239272  1
  O  O591  1  0.91073591  0.14821467  0.92356075  1
  O  O592  1  0.91448631  0.48084537  0.17266836  1
  O  O593  1  0.91132131  0.48114111  0.42275901  1
  O  O594  1  0.91162332  0.48150721  0.67217308  1
  O  O595  1  0.91306459  0.48078806  0.92362028  1
  O  O596  1  0.91069270  0.81414994  0.17239005  1
  O  O597  1  0.91165038  0.81470945  0.42270585  1
  O  O598  1  0.91010377  0.81570343  0.67206400  1
  O  O599  1  0.91205791  0.81580381  0.92262117  1
  O  O600  1  0.08822566  0.18581905  0.07697094  1
  O  O601  1  0.08854711  0.18551507  0.32583395  1
  O  O602  1  0.08543679  0.18391608  0.57786872  1
  O  O603  1  0.08627427  0.18441657  0.82830436  1
  O  O604  1  0.08858279  0.51679431  0.07741419  1
  O  O605  1  0.08772813  0.51916674  0.32766849  1
  O  O606  1  0.08489789  0.51816516  0.57726981  1
  O  O607  1  0.08880415  0.51923260  0.82798691  1
  O  O608  1  0.08703310  0.85182070  0.07716588  1
  O  O609  1  0.08753926  0.85023590  0.32796887  1
  O  O610  1  0.08597477  0.85275956  0.57676362  1
  O  O611  1  0.08475950  0.85072103  0.82763716  1
  O  O612  1  0.58719684  0.18410715  0.07771168  1
  O  O613  1  0.58773802  0.18493454  0.32756997  1
  O  O614  1  0.58904999  0.18536879  0.57725532  1
  O  O615  1  0.59006980  0.18530943  0.82816679  1
  O  O616  1  0.58682771  0.51838287  0.07719278  1
  O  O617  1  0.58592871  0.51790427  0.32621096  1
  O  O618  1  0.58514122  0.51796493  0.57641462  1
  O  O619  1  0.58819759  0.51828977  0.82854704  1
  O  O620  1  0.58592376  0.85298060  0.07711619  1
  O  O621  1  0.58855560  0.85212226  0.32781102  1
  O  O622  1  0.58889277  0.85125420  0.57719652  1
  O  O623  1  0.58745525  0.85112044  0.82721919  1
  O  O624  1  0.33804592  0.18566313  0.04855568  1
  O  O625  1  0.33865254  0.18453584  0.29780670  1
  O  O626  1  0.33870076  0.18537018  0.54702662  1
  O  O627  1  0.33776859  0.18427097  0.79728374  1
  O  O628  1  0.33774501  0.51879438  0.04769717  1
  O  O629  1  0.33933072  0.51703802  0.29650847  1
  O  O630  1  0.33870552  0.51775389  0.54674033  1
  O  O631  1  0.33878727  0.51732888  0.79653369  1
  O  O632  1  0.33899901  0.85019196  0.04663397  1
  O  O633  1  0.33916292  0.85334053  0.29731070  1
  O  O634  1  0.33466614  0.85111985  0.54814506  1
  O  O635  1  0.33883562  0.85333943  0.79844200  1
  O  O636  1  0.83667666  0.18450102  0.04770783  1
  O  O637  1  0.83561254  0.18432574  0.29635052  1
  O  O638  1  0.83654055  0.18549354  0.54848562  1
  O  O639  1  0.83729958  0.18440146  0.79856134  1
  O  O640  1  0.83480947  0.51858262  0.04782336  1
  O  O641  1  0.83573325  0.51866302  0.29711257  1
  O  O642  1  0.83816886  0.51762144  0.54788961  1
  O  O643  1  0.83825923  0.51900408  0.79800198  1
  O  O644  1  0.83787345  0.85160615  0.04594306  1
  O  O645  1  0.83762544  0.85186938  0.29633631  1
  O  O646  1  0.83673653  0.85157698  0.54799663  1
  O  O647  1  0.83762681  0.85139428  0.79772618  1
  O  O648  1  0.16490620  0.14958250  0.20242569  1
  O  O649  1  0.16122639  0.14754595  0.45276372  1
  O  O650  1  0.16341901  0.14862881  0.70189093  1
  O  O651  1  0.16343584  0.14975616  0.95314999  1
  O  O652  1  0.16371035  0.48010273  0.20160114  1
  O  O653  1  0.16506757  0.48214667  0.45203316  1
  O  O654  1  0.16465615  0.48113303  0.70166764  1
  O  O655  1  0.16391847  0.48159684  0.95360681  1
  O  O656  1  0.16219528  0.81499064  0.20245423  1
  O  O657  1  0.16114167  0.81605721  0.45242130  1
  O  O658  1  0.16128425  0.81544409  0.70322267  1
  O  O659  1  0.16366642  0.81409341  0.95151584  1
  O  O660  1  0.66178754  0.14921898  0.20197365  1
  O  O661  1  0.66143334  0.14882697  0.45242966  1
  O  O662  1  0.66168284  0.14817921  0.70415512  1
  O  O663  1  0.66180348  0.14922959  0.95300674  1
  O  O664  1  0.66143292  0.48185463  0.20293208  1
  O  O665  1  0.66399567  0.48089580  0.45255237  1
  O  O666  1  0.66172557  0.48083728  0.70270386  1
  O  O667  1  0.66092900  0.48157734  0.95225471  1
  O  O668  1  0.66368930  0.81428889  0.20185610  1
  O  O669  1  0.66524720  0.81560561  0.45297627  1
  O  O670  1  0.66365686  0.81630305  0.70338645  1
  O  O671  1  0.66288061  0.81445209  0.95132535  1
