# generated using pymatgen
data_Na2MnFe(PO4)2
_symmetry_space_group_name_H-M   'P 1'
_cell_length_a   21.08721974
_cell_length_b   18.94090645
_cell_length_c   20.04669464
_cell_angle_alpha   89.99980293
_cell_angle_beta   89.99913907
_cell_angle_gamma   90.00200550
_symmetry_Int_Tables_number   1
_chemical_formula_structural   Na2MnFe(PO4)2
_chemical_formula_sum   'Na96 Mn48 Fe48 P96 O384'
_cell_volume   8006.87147623
_cell_formula_units_Z   48
loop_
 _symmetry_equiv_pos_site_id
 _symmetry_equiv_pos_as_xyz
  1  'x, y, z'
loop_
 _atom_site_type_symbol
 _atom_site_label
 _atom_site_symmetry_multiplicity
 _atom_site_fract_x
 _atom_site_fract_y
 _atom_site_fract_z
 _atom_site_occupancy
  Na  Na0  1  -0.00192851  -0.00014747  -0.00075224  1
  Na  Na1  1  -0.00126740  -0.00058967  0.25094798  1
  Na  Na2  1  -0.00110189  0.00008400  0.50018358  1
  Na  Na3  1  -0.00074468  0.00088423  0.74945385  1
  Na  Na4  1  0.00132359  0.33274444  -0.00046921  1
  Na  Na5  1  0.00244205  0.33307029  0.25060107  1
  Na  Na6  1  0.00055779  0.33251679  0.50022697  1
  Na  Na7  1  0.00047609  0.33285568  0.74987845  1
  Na  Na8  1  -0.00050216  0.66719835  0.00032847  1
  Na  Na9  1  -0.00093235  0.66648794  0.25010412  1
  Na  Na10  1  -0.00089061  0.66606779  0.50051823  1
  Na  Na11  1  -0.00169596  0.66646429  0.74885555  1
  Na  Na12  1  0.49825894  0.00038583  0.00031299  1
  Na  Na13  1  0.50034149  0.00056234  0.25033558  1
  Na  Na14  1  0.50126503  0.00035099  0.50063094  1
  Na  Na15  1  0.49801153  -0.00043324  0.74924870  1
  Na  Na16  1  0.49971411  0.33304029  -0.00110652  1
  Na  Na17  1  0.49828371  0.33206824  0.25143419  1
  Na  Na18  1  0.49866795  0.33193857  0.50111702  1
  Na  Na19  1  0.50139167  0.33351911  0.74860231  1
  Na  Na20  1  0.49652782  0.66624366  -0.00047133  1
  Na  Na21  1  0.49763172  0.66570038  0.24965479  1
  Na  Na22  1  0.49880119  0.66648031  0.50052038  1
  Na  Na23  1  0.49857502  0.66686484  0.75024672  1
  Na  Na24  1  0.25201230  0.00082637  0.12428296  1
  Na  Na25  1  0.25143294  0.00154000  0.37630111  1
  Na  Na26  1  0.24897304  -0.00002824  0.62602438  1
  Na  Na27  1  0.25110000  0.00098124  0.87434286  1
  Na  Na28  1  0.24921748  0.33170740  0.12540543  1
  Na  Na29  1  0.25084324  0.33325557  0.37615394  1
  Na  Na30  1  0.24867685  0.33253279  0.62429185  1
  Na  Na31  1  0.24773471  0.33174850  0.87364930  1
  Na  Na32  1  0.25139035  0.66703654  0.12550736  1
  Na  Na33  1  0.24927404  0.66635769  0.37469680  1
  Na  Na34  1  0.25092913  0.66708815  0.62545325  1
  Na  Na35  1  0.25169079  0.66711875  0.87433514  1
  Na  Na36  1  0.75048110  -0.00004203  0.12486868  1
  Na  Na37  1  0.74812123  -0.00006917  0.37448154  1
  Na  Na38  1  0.75110665  0.00079763  0.62534778  1
  Na  Na39  1  0.75214030  0.00020759  0.87487116  1
  Na  Na40  1  0.75009097  0.33298713  0.12424975  1
  Na  Na41  1  0.75056515  0.33336608  0.37513606  1
  Na  Na42  1  0.75129627  0.33266712  0.62539693  1
  Na  Na43  1  0.75109909  0.33251274  0.87492536  1
  Na  Na44  1  0.75078605  0.66661095  0.12485839  1
  Na  Na45  1  0.75212439  0.66765313  0.37654736  1
  Na  Na46  1  0.75152969  0.66654495  0.62511173  1
  Na  Na47  1  0.75195552  0.66703791  0.87369095  1
  Na  Na48  1  0.00101221  0.16630077  0.00001698  1
  Na  Na49  1  0.00094522  0.16685623  0.24992868  1
  Na  Na50  1  0.00033813  0.16679828  0.50049575  1
  Na  Na51  1  -0.00071745  0.16701711  0.74958601  1
  Na  Na52  1  -0.00077226  0.50029816  -0.00092985  1
  Na  Na53  1  -0.00070424  0.50059613  0.25120471  1
  Na  Na54  1  -0.00146837  0.50030734  0.50035516  1
  Na  Na55  1  -0.00127099  0.50008781  0.74938869  1
  Na  Na56  1  -0.00207181  0.83411604  0.00003950  1
  Na  Na57  1  0.00082488  0.83282713  0.25055238  1
  Na  Na58  1  0.00007141  0.83376356  0.50002312  1
  Na  Na59  1  -0.00140635  0.83389253  0.74904083  1
  Na  Na60  1  0.49657786  0.16721563  -0.00113382  1
  Na  Na61  1  0.49762909  0.16693001  0.25091495  1
  Na  Na62  1  0.49920318  0.16681218  0.50101810  1
  Na  Na63  1  0.49996912  0.16618839  0.74915703  1
  Na  Na64  1  0.49813534  0.50047080  -0.00033010  1
  Na  Na65  1  0.49808280  0.50025247  0.25043919  1
  Na  Na66  1  0.49750949  0.50082232  0.50066048  1
  Na  Na67  1  0.49698400  0.50105541  0.74905871  1
  Na  Na68  1  0.49811569  0.83458329  -0.00011634  1
  Na  Na69  1  0.50200039  0.83296992  0.25025755  1
  Na  Na70  1  0.50254069  0.83319519  0.50065941  1
  Na  Na71  1  0.50083982  0.83335356  0.74974066  1
  Na  Na72  1  0.25124981  0.16622148  0.12495264  1
  Na  Na73  1  0.25022917  0.16690150  0.37640481  1
  Na  Na74  1  0.25032949  0.16581207  0.62498165  1
  Na  Na75  1  0.24856157  0.16681372  0.87373465  1
  Na  Na76  1  0.25219216  0.49970255  0.12497461  1
  Na  Na77  1  0.25168453  0.49971366  0.37605799  1
  Na  Na78  1  0.24950675  0.50070248  0.62495299  1
  Na  Na79  1  0.25141833  0.49985871  0.87422268  1
  Na  Na80  1  0.25049205  0.83292860  0.12492360  1
  Na  Na81  1  0.24683418  0.83447706  0.37517958  1
  Na  Na82  1  0.24967155  0.83295158  0.62559218  1
  Na  Na83  1  0.25157745  0.83255501  0.87451630  1
  Na  Na84  1  0.75053486  0.16619939  0.12534651  1
  Na  Na85  1  0.74921053  0.16697438  0.37504350  1
  Na  Na86  1  0.75159722  0.16645959  0.62553595  1
  Na  Na87  1  0.75251879  0.16610815  0.87468448  1
  Na  Na88  1  0.75007913  0.50063401  0.12440801  1
  Na  Na89  1  0.75207476  0.49921047  0.37589054  1
  Na  Na90  1  0.75389130  0.49866320  0.62477046  1
  Na  Na91  1  0.75277469  0.49951281  0.87475574  1
  Na  Na92  1  0.75138987  0.83331504  0.12391865  1
  Na  Na93  1  0.74868267  0.83406413  0.37540592  1
  Na  Na94  1  0.74876412  0.83431611  0.62533429  1
  Na  Na95  1  0.75068699  0.83409403  0.87422166  1
  Mn  Mn96  1  0.39227532  0.91638235  0.62696606  1
  Mn  Mn97  1  0.60809648  0.41694040  0.87225083  1
  Mn  Mn98  1  0.60833849  0.74952144  0.37301805  1
  Mn  Mn99  1  0.89161969  0.91628955  0.37775595  1
  Mn  Mn100  1  0.60768013  0.08325177  0.87295137  1
  Mn  Mn101  1  0.39275549  0.91632397  0.37811794  1
  Mn  Mn102  1  0.10840618  0.08268232  0.12289097  1
  Mn  Mn103  1  0.60733169  0.41650568  0.37380310  1
  Mn  Mn104  1  0.64190724  0.58362659  0.24852984  1
  Mn  Mn105  1  0.35824943  0.41582890  0.25299840  1
  Mn  Mn106  1  0.14178265  0.91664532  0.74826957  1
  Mn  Mn107  1  0.64203179  0.24942356  0.99772465  1
  Mn  Mn108  1  0.64301753  0.58283383  0.49803068  1
  Mn  Mn109  1  0.64267466  0.58283135  0.74768380  1
  Mn  Mn110  1  0.10765038  0.75030550  0.12226876  1
  Mn  Mn111  1  0.64199368  0.58373591  0.99732603  1
  Mn  Mn112  1  0.89322161  0.24992969  0.12741101  1
  Mn  Mn113  1  0.89258900  0.25020045  0.37735897  1
  Mn  Mn114  1  0.85765986  0.75025424  0.75236344  1
  Mn  Mn115  1  0.14223078  0.58318748  0.74799988  1
  Mn  Mn116  1  0.60809534  0.08316088  0.62309772  1
  Mn  Mn117  1  0.14245339  0.58272781  0.24799711  1
  Mn  Mn118  1  0.64295677  0.91677369  0.99743429  1
  Mn  Mn119  1  0.60671049  0.08409754  0.12241016  1
  Mn  Mn120  1  0.39164043  0.25000020  0.87621152  1
  Mn  Mn121  1  0.10814260  0.41738280  0.37332898  1
  Mn  Mn122  1  0.64089835  0.25022509  0.24764493  1
  Mn  Mn123  1  0.85722767  0.08355269  0.25242749  1
  Mn  Mn124  1  0.60756874  0.74936635  0.12200043  1
  Mn  Mn125  1  0.10897750  0.41716733  0.12260528  1
  Mn  Mn126  1  0.85856576  0.41644374  0.00270507  1
  Mn  Mn127  1  0.35714351  0.75068783  0.50208583  1
  Mn  Mn128  1  0.60723165  0.75007778  0.87319603  1
  Mn  Mn129  1  0.35691055  0.41614395  0.75176953  1
  Mn  Mn130  1  0.35769441  0.75105723  0.25312068  1
  Mn  Mn131  1  0.10828440  0.08261869  0.37310543  1
  Mn  Mn132  1  0.85823259  0.41645362  0.25201202  1
  Mn  Mn133  1  0.35779832  0.41598374  0.00214420  1
  Mn  Mn134  1  0.89202994  0.58339016  0.12761093  1
  Mn  Mn135  1  0.10740090  0.75012688  0.62246840  1
  Mn  Mn136  1  0.39187078  0.91695386  0.12783733  1
  Mn  Mn137  1  0.14285381  0.58325734  0.99737239  1
  Mn  Mn138  1  0.85769896  0.75011773  0.25273447  1
  Mn  Mn139  1  0.14215082  0.91789930  0.24745127  1
  Mn  Mn140  1  0.10743958  0.41723622  0.87228352  1
  Mn  Mn141  1  0.14208932  0.91681206  0.99709131  1
  Mn  Mn142  1  0.60807510  0.41743780  0.62279909  1
  Mn  Mn143  1  0.60711557  0.41656810  0.12290586  1
  Fe  Fe144  1  0.14330215  0.24985888  0.49867849  1
  Fe  Fe145  1  0.85700964  0.08363678  0.50132481  1
  Fe  Fe146  1  0.39231224  0.58295801  0.12685844  1
  Fe  Fe147  1  0.39239893  0.91641362  0.87646265  1
  Fe  Fe148  1  0.10713855  0.75043236  0.87374736  1
  Fe  Fe149  1  0.14295404  0.24955024  0.99824637  1
  Fe  Fe150  1  0.35793882  0.75093682  0.75204098  1
  Fe  Fe151  1  0.39225080  0.58360612  0.87679185  1
  Fe  Fe152  1  0.64356336  0.91747576  0.49876212  1
  Fe  Fe153  1  0.14183228  0.91672791  0.49884200  1
  Fe  Fe154  1  0.64264264  0.91659933  0.24781246  1
  Fe  Fe155  1  0.89266094  0.58328706  0.37731460  1
  Fe  Fe156  1  0.10652740  0.41645972  0.62292840  1
  Fe  Fe157  1  0.64411198  0.24971308  0.74848095  1
  Fe  Fe158  1  0.35713150  0.08323723  0.50225465  1
  Fe  Fe159  1  0.60686683  0.08391873  0.37403216  1
  Fe  Fe160  1  0.85831797  0.41561235  0.75166477  1
  Fe  Fe161  1  0.39254690  0.25019439  0.62712160  1
  Fe  Fe162  1  0.60725439  0.74926212  0.62393421  1
  Fe  Fe163  1  0.89211352  0.91714352  0.62617779  1
  Fe  Fe164  1  0.64289333  0.91747769  0.74863163  1
  Fe  Fe165  1  0.10646573  0.08344715  0.62320228  1
  Fe  Fe166  1  0.89262521  0.91654289  0.87639653  1
  Fe  Fe167  1  0.39220912  0.24984485  0.37823023  1
  Fe  Fe168  1  0.85798860  0.08380565  0.75178547  1
  Fe  Fe169  1  0.89255161  0.91687092  0.12710002  1
  Fe  Fe170  1  0.14250393  0.58335351  0.49842636  1
  Fe  Fe171  1  0.35678855  0.41643684  0.50244733  1
  Fe  Fe172  1  0.10655767  0.74960432  0.37425218  1
  Fe  Fe173  1  0.85816095  0.75041541  0.00138083  1
  Fe  Fe174  1  0.89304728  0.58384314  0.87679101  1
  Fe  Fe175  1  0.39132249  0.25052026  0.12676097  1
  Fe  Fe176  1  0.35627294  0.08301853  0.75169003  1
  Fe  Fe177  1  0.89295824  0.24982345  0.62655671  1
  Fe  Fe178  1  0.89367300  0.24974773  0.87696391  1
  Fe  Fe179  1  0.35703242  0.75062966  0.00167167  1
  Fe  Fe180  1  0.89319109  0.58305015  0.62635400  1
  Fe  Fe181  1  0.10679252  0.08264229  0.87314575  1
  Fe  Fe182  1  0.39202206  0.58359581  0.62645472  1
  Fe  Fe183  1  0.35763391  0.08314585  0.25260658  1
  Fe  Fe184  1  0.35643931  0.08324699  0.00114140  1
  Fe  Fe185  1  0.14407691  0.24961057  0.24891628  1
  Fe  Fe186  1  0.85831695  0.08325183  0.00212521  1
  Fe  Fe187  1  0.85751264  0.75073101  0.50230772  1
  Fe  Fe188  1  0.14166288  0.24958298  0.74742241  1
  Fe  Fe189  1  0.85818708  0.41565539  0.50210334  1
  Fe  Fe190  1  0.64316331  0.24971608  0.49913685  1
  Fe  Fe191  1  0.39190078  0.58322160  0.37760620  1
  P  P192  1  0.05604512  0.24960093  0.11043538  1
  P  P193  1  0.05595276  0.24974745  0.36089542  1
  P  P194  1  0.05407738  0.24969029  0.61080595  1
  P  P195  1  0.05442754  0.24885670  0.86045292  1
  P  P196  1  0.05331874  0.58341014  0.10961973  1
  P  P197  1  0.05336338  0.58422536  0.36176513  1
  P  P198  1  0.05295548  0.58246576  0.60981125  1
  P  P199  1  0.05205918  0.58462269  0.85981451  1
  P  P200  1  0.05195692  0.91703718  0.10953435  1
  P  P201  1  0.05434639  0.91583009  0.36147335  1
  P  P202  1  0.05229792  0.91785833  0.60994454  1
  P  P203  1  0.05170642  0.91653259  0.85999880  1
  P  P204  1  0.55073390  0.24978254  0.10956628  1
  P  P205  1  0.55306060  0.24913867  0.36236941  1
  P  P206  1  0.55454722  0.24979117  0.61089362  1
  P  P207  1  0.55386818  0.24954034  0.85847368  1
  P  P208  1  0.55161037  0.58320305  0.10973073  1
  P  P209  1  0.55157346  0.58291623  0.36061895  1
  P  P210  1  0.55220298  0.58405942  0.61029364  1
  P  P211  1  0.55168184  0.58362969  0.85957763  1
  P  P212  1  0.55417753  0.91694143  0.11061830  1
  P  P213  1  0.55587369  0.91797153  0.36118371  1
  P  P214  1  0.55562243  0.91612427  0.61101948  1
  P  P215  1  0.55252897  0.91713587  0.85947142  1
  P  P216  1  0.44391135  0.08443437  0.13959002  1
  P  P217  1  0.44577492  0.08359742  0.39043157  1
  P  P218  1  0.44431838  0.08394337  0.63932350  1
  P  P219  1  0.44430307  0.08247543  0.88871339  1
  P  P220  1  0.44602386  0.41611814  0.14011894  1
  P  P221  1  0.44541796  0.41622431  0.39165807  1
  P  P222  1  0.44486808  0.41632880  0.63852866  1
  P  P223  1  0.44635008  0.41686283  0.88918954  1
  P  P224  1  0.44511196  0.74979918  0.13909153  1
  P  P225  1  0.44702719  0.74986107  0.39066368  1
  P  P226  1  0.44682224  0.74983750  0.64032749  1
  P  P227  1  0.44448539  0.75072830  0.88913803  1
  P  P228  1  0.94600923  0.08259402  0.13939466  1
  P  P229  1  0.94614925  0.08358031  0.39098047  1
  P  P230  1  0.94532273  0.08365891  0.63876628  1
  P  P231  1  0.94599861  0.08364164  0.88875993  1
  P  P232  1  0.94797145  0.41631427  0.14055296  1
  P  P233  1  0.94643378  0.41687027  0.39094759  1
  P  P234  1  0.94596335  0.41579053  0.63895403  1
  P  P235  1  0.94556178  0.41614137  0.88836619  1
  P  P236  1  0.94542335  0.75114324  0.13929134  1
  P  P237  1  0.94668304  0.74943337  0.39103501  1
  P  P238  1  0.94499888  0.75049374  0.63843242  1
  P  P239  1  0.94712730  0.75023614  0.88979160  1
  P  P240  1  0.19842819  0.08426248  0.23531132  1
  P  P241  1  0.19609175  0.08341771  0.48719214  1
  P  P242  1  0.19468416  0.08357275  0.73548658  1
  P  P243  1  0.19690786  0.08380662  0.98406467  1
  P  P244  1  0.19736592  0.41575661  0.23559115  1
  P  P245  1  0.19619028  0.41671053  0.48698550  1
  P  P246  1  0.19517187  0.41597965  0.73382827  1
  P  P247  1  0.19714852  0.41580396  0.98440277  1
  P  P248  1  0.19519318  0.75000622  0.23617029  1
  P  P249  1  0.19542296  0.74972223  0.48493967  1
  P  P250  1  0.19650657  0.75008143  0.73630700  1
  P  P251  1  0.19745519  0.74998309  0.98400631  1
  P  P252  1  0.69458553  0.08292877  0.23603641  1
  P  P253  1  0.69709587  0.08382552  0.48524299  1
  P  P254  1  0.69808610  0.08362297  0.73556644  1
  P  P255  1  0.69842360  0.08312979  0.98480744  1
  P  P256  1  0.69665138  0.41690389  0.23490418  1
  P  P257  1  0.69834739  0.41561591  0.48571225  1
  P  P258  1  0.69862004  0.41583791  0.73503946  1
  P  P259  1  0.69695342  0.41661471  0.98453598  1
  P  P260  1  0.69654973  0.75060466  0.23477960  1
  P  P261  1  0.69687842  0.75043133  0.48710398  1
  P  P262  1  0.69584542  0.75072741  0.73467551  1
  P  P263  1  0.69855446  0.75018399  0.98431762  1
  P  P264  1  0.30254249  0.24897637  0.01466509  1
  P  P265  1  0.30445730  0.24888070  0.26544649  1
  P  P266  1  0.30430324  0.24976669  0.51483938  1
  P  P267  1  0.30242412  0.24903033  0.76296814  1
  P  P268  1  0.30525480  0.58425056  0.01424377  1
  P  P269  1  0.30516385  0.58324285  0.26513993  1
  P  P270  1  0.30353382  0.58315528  0.51458957  1
  P  P271  1  0.30534506  0.58419677  0.76404801  1
  P  P272  1  0.30429763  0.91676953  0.01334051  1
  P  P273  1  0.30319866  0.91779144  0.26578424  1
  P  P274  1  0.30154698  0.91720823  0.51532322  1
  P  P275  1  0.30390367  0.91687892  0.76509463  1
  P  P276  1  0.80511765  0.24881012  0.01394776  1
  P  P277  1  0.80297018  0.24995489  0.26522178  1
  P  P278  1  0.80336678  0.24952576  0.51541542  1
  P  P279  1  0.80542341  0.24979807  0.76408767  1
  P  P280  1  0.80492935  0.58448579  0.01361617  1
  P  P281  1  0.80384247  0.58340794  0.26642150  1
  P  P282  1  0.80589525  0.58323674  0.51460207  1
  P  P283  1  0.80599468  0.58225329  0.76390856  1
  P  P284  1  0.80618008  0.91685674  0.01387283  1
  P  P285  1  0.80300731  0.91680560  0.26422464  1
  P  P286  1  0.80281473  0.91735129  0.51537009  1
  P  P287  1  0.80443138  0.91773242  0.76393427  1
  O  O288  1  0.06048646  0.24934156  0.18719522  1
  O  O289  1  0.06029680  0.24963921  0.43771644  1
  O  O290  1  0.05818109  0.24961024  0.68755505  1
  O  O291  1  0.05918645  0.24931121  0.93713361  1
  O  O292  1  0.05668992  0.58331494  0.18642934  1
  O  O293  1  0.05836016  0.58311798  0.43842399  1
  O  O294  1  0.05656429  0.58313806  0.68647762  1
  O  O295  1  0.05610554  0.58399511  0.93646318  1
  O  O296  1  0.05606093  0.91727661  0.18626573  1
  O  O297  1  0.05871595  0.91726605  0.43821637  1
  O  O298  1  0.05600496  0.91728994  0.68661237  1
  O  O299  1  0.05541279  0.91670056  0.93664985  1
  O  O300  1  0.55459754  0.24926949  0.18632743  1
  O  O301  1  0.55870733  0.24955663  0.43896836  1
  O  O302  1  0.56026552  0.24966773  0.68747397  1
  O  O303  1  0.55681958  0.24928327  0.93528576  1
  O  O304  1  0.55572243  0.58348808  0.18640812  1
  O  O305  1  0.55632487  0.58313734  0.43727829  1
  O  O306  1  0.55631684  0.58321894  0.68693361  1
  O  O307  1  0.55565883  0.58364222  0.93625650  1
  O  O308  1  0.55861244  0.91681505  0.18737996  1
  O  O309  1  0.56033412  0.91721578  0.43802861  1
  O  O310  1  0.55961889  0.91763014  0.68776505  1
  O  O311  1  0.55652104  0.91753660  0.93620476  1
  O  O312  1  0.43972293  0.08357702  0.06280021  1
  O  O313  1  0.44140924  0.08301869  0.31371087  1
  O  O314  1  0.44023438  0.08297802  0.56253606  1
  O  O315  1  0.44032050  0.08339711  0.81192906  1
  O  O316  1  0.44348512  0.41583031  0.06333559  1
  O  O317  1  0.44307625  0.41591018  0.31484502  1
  O  O318  1  0.44059426  0.41603352  0.56182867  1
  O  O319  1  0.44303847  0.41588977  0.81242860  1
  O  O320  1  0.44098286  0.75096295  0.06232666  1
  O  O321  1  0.44380272  0.75086080  0.31391936  1
  O  O322  1  0.44311605  0.75089583  0.56364000  1
  O  O323  1  0.44126944  0.75098825  0.81230738  1
  O  O324  1  0.94232226  0.08342953  0.06260365  1
  O  O325  1  0.94287345  0.08373432  0.31420184  1
  O  O326  1  0.94066876  0.08366747  0.56212895  1
  O  O327  1  0.94172689  0.08383940  0.81199255  1
  O  O328  1  0.94467968  0.41591466  0.06372745  1
  O  O329  1  0.94366464  0.41596093  0.31418926  1
  O  O330  1  0.94156968  0.41530339  0.56224349  1
  O  O331  1  0.94216071  0.41574451  0.81155924  1
  O  O332  1  0.94156929  0.75046342  0.06253583  1
  O  O333  1  0.94346264  0.75029277  0.31427637  1
  O  O334  1  0.94123097  0.75095117  0.56167639  1
  O  O335  1  0.94366781  0.75030995  0.81310987  1
  O  O336  1  0.19378464  0.08273169  0.06077961  1
  O  O337  1  0.19459916  0.08340623  0.31200245  1
  O  O338  1  0.19110393  0.08316765  0.56381715  1
  O  O339  1  0.18986493  0.08294947  0.81217135  1
  O  O340  1  0.19478248  0.41678126  0.06119629  1
  O  O341  1  0.19435973  0.41693950  0.31239096  1
  O  O342  1  0.19110091  0.41699985  0.56359367  1
  O  O343  1  0.19237186  0.41677128  0.81066771  1
  O  O344  1  0.19348778  0.75005085  0.06074623  1
  O  O345  1  0.19044771  0.74971931  0.31287200  1
  O  O346  1  0.19313626  0.74944105  0.56182277  1
  O  O347  1  0.19093237  0.75005052  0.81289997  1
  O  O348  1  0.69369838  0.08332383  0.06146067  1
  O  O349  1  0.69052141  0.08403376  0.31277690  1
  O  O350  1  0.69393226  0.08394685  0.56197253  1
  O  O351  1  0.69438359  0.08339467  0.81216083  1
  O  O352  1  0.69313059  0.41682673  0.06130812  1
  O  O353  1  0.69332042  0.41671378  0.31172455  1
  O  O354  1  0.69436129  0.41644462  0.56238694  1
  O  O355  1  0.69466683  0.41675878  0.81169744  1
  O  O356  1  0.69429015  0.74980468  0.06100835  1
  O  O357  1  0.69365346  0.74979050  0.31165489  1
  O  O358  1  0.69186790  0.74915844  0.56368406  1
  O  O359  1  0.69288603  0.75001601  0.81147206  1
  O  O360  1  0.30829552  0.24984155  0.18871167  1
  O  O361  1  0.30861146  0.24974532  0.43809150  1
  O  O362  1  0.30745577  0.24982230  0.68639597  1
  O  O363  1  0.30587641  0.24998088  0.93794865  1
  O  O364  1  0.30937286  0.58321800  0.18834118  1
  O  O365  1  0.30823810  0.58370200  0.43787329  1
  O  O366  1  0.30910312  0.58372584  0.68722258  1
  O  O367  1  0.30892408  0.58326345  0.93739750  1
  O  O368  1  0.30627651  0.91666871  0.18899292  1
  O  O369  1  0.30569850  0.91677361  0.43870832  1
  O  O370  1  0.30651735  0.91643423  0.68833574  1
  O  O371  1  0.30792192  0.91667165  0.93663825  1
  O  O372  1  0.80684324  0.24979824  0.18848854  1
  O  O373  1  0.80665937  0.24981533  0.43875932  1
  O  O374  1  0.80976505  0.24985504  0.68737315  1
  O  O375  1  0.80951533  0.24939325  0.93718498  1
  O  O376  1  0.80670910  0.58347321  0.18957567  1
  O  O377  1  0.80948393  0.58346242  0.43781363  1
  O  O378  1  0.81019947  0.58295178  0.68711234  1
  O  O379  1  0.80944083  0.58402623  0.93683251  1
  O  O380  1  0.80801215  0.91681387  0.18758768  1
  O  O381  1  0.80577296  0.91696751  0.43863127  1
  O  O382  1  0.80899125  0.91709969  0.68726225  1
  O  O383  1  0.81009198  0.91672664  0.93697279  1
  O  O384  1  0.23256040  0.24895262  0.03944212  1
  O  O385  1  0.23434641  0.24971333  0.28992136  1
  O  O386  1  0.23377874  0.24946223  0.53835683  1
  O  O387  1  0.23202187  0.24914640  0.78649193  1
  O  O388  1  0.23535519  0.58359181  0.03888499  1
  O  O389  1  0.23508273  0.58300331  0.28907561  1
  O  O390  1  0.23307142  0.58371089  0.53816260  1
  O  O391  1  0.23528585  0.58328865  0.78828451  1
  O  O392  1  0.23450353  0.91693991  0.03844424  1
  O  O393  1  0.23356252  0.91821109  0.29088528  1
  O  O394  1  0.23145379  0.91653513  0.53989590  1
  O  O395  1  0.23420541  0.91688654  0.79035744  1
  O  O396  1  0.73514409  0.24933658  0.03830178  1
  O  O397  1  0.73318098  0.25007675  0.28987486  1
  O  O398  1  0.73328481  0.24943036  0.54021182  1
  O  O399  1  0.73506417  0.24948700  0.78799671  1
  O  O400  1  0.73498216  0.58373221  0.03795797  1
  O  O401  1  0.73427031  0.58353125  0.29186930  1
  O  O402  1  0.73590536  0.58260281  0.53922415  1
  O  O403  1  0.73588225  0.58323508  0.78795496  1
  O  O404  1  0.73613707  0.91699423  0.03807616  1
  O  O405  1  0.73279298  0.91688063  0.28803385  1
  O  O406  1  0.73275544  0.91767747  0.54016961  1
  O  O407  1  0.73402082  0.91730292  0.78766108  1
  O  O408  1  0.26832580  0.08367312  0.21060087  1
  O  O409  1  0.26651577  0.08402515  0.46353087  1
  O  O410  1  0.26519211  0.08286544  0.71225345  1
  O  O411  1  0.26692570  0.08377366  0.95934947  1
  O  O412  1  0.26691542  0.41568013  0.21023382  1
  O  O413  1  0.26659716  0.41642211  0.46333350  1
  O  O414  1  0.26490658  0.41631369  0.70892752  1
  O  O415  1  0.26656587  0.41560544  0.95846751  1
  O  O416  1  0.26528253  0.75019401  0.21233101  1
  O  O417  1  0.26498372  0.75021063  0.45931656  1
  O  O418  1  0.26699421  0.75058522  0.71312149  1
  O  O419  1  0.26762950  0.75005819  0.96006880  1
  O  O420  1  0.76455091  0.08310830  0.21166419  1
  O  O421  1  0.76715679  0.08360123  0.46041902  1
  O  O422  1  0.76821715  0.08370948  0.71106521  1
  O  O423  1  0.76862513  0.08271273  0.96091101  1
  O  O424  1  0.76625755  0.41668890  0.20960085  1
  O  O425  1  0.76856584  0.41588541  0.46163817  1
  O  O426  1  0.76876677  0.41565918  0.71075032  1
  O  O427  1  0.76682883  0.41617337  0.96011601  1
  O  O428  1  0.76617148  0.75039338  0.20958092  1
  O  O429  1  0.76730395  0.75074799  0.46340836  1
  O  O430  1  0.76571605  0.75042687  0.71001565  1
  O  O431  1  0.76859331  0.75081756  0.95989525  1
  O  O432  1  0.01582872  0.08285851  0.16424182  1
  O  O433  1  0.01596772  0.08337176  0.41560874  1
  O  O434  1  0.01577618  0.08391842  0.66244836  1
  O  O435  1  0.01638533  0.08322954  0.91272287  1
  O  O436  1  0.01750342  0.41683699  0.16588398  1
  O  O437  1  0.01618770  0.41660196  0.41600865  1
  O  O438  1  0.01638767  0.41612928  0.66269471  1
  O  O439  1  0.01543029  0.41645358  0.91322235  1
  O  O440  1  0.01524794  0.75022220  0.16397078  1
  O  O441  1  0.01660636  0.74993977  0.41593478  1
  O  O442  1  0.01496631  0.75021435  0.66300122  1
  O  O443  1  0.01715081  0.75050898  0.91476644  1
  O  O444  1  0.51391187  0.08364013  0.16381238  1
  O  O445  1  0.51607245  0.08351643  0.41440172  1
  O  O446  1  0.51455191  0.08323159  0.66304336  1
  O  O447  1  0.51426435  0.08355264  0.91322916  1
  O  O448  1  0.51530296  0.41614510  0.16643316  1
  O  O449  1  0.51501233  0.41618462  0.41730427  1
  O  O450  1  0.51489992  0.41691635  0.66279405  1
  O  O451  1  0.51595026  0.41674846  0.91444720  1
  O  O452  1  0.51500678  0.74960819  0.16360864  1
  O  O453  1  0.51673441  0.74989794  0.41570080  1
  O  O454  1  0.51691409  0.75003352  0.66480244  1
  O  O455  1  0.51433026  0.75064966  0.91416399  1
  O  O456  1  0.48074144  0.25006161  0.08498202  1
  O  O457  1  0.48248415  0.24952420  0.33933309  1
  O  O458  1  0.48385704  0.24957256  0.58831118  1
  O  O459  1  0.48405644  0.24973900  0.83362649  1
  O  O460  1  0.48144730  0.58326292  0.08559116  1
  O  O461  1  0.48133318  0.58283878  0.33681161  1
  O  O462  1  0.48194786  0.58369864  0.58624013  1
  O  O463  1  0.48153113  0.58392158  0.83541570  1
  O  O464  1  0.48407662  0.91743198  0.08685608  1
  O  O465  1  0.48572380  0.91682656  0.33729003  1
  O  O466  1  0.48549390  0.91678822  0.58686423  1
  O  O467  1  0.48238041  0.91646284  0.83529483  1
  O  O468  1  0.98599778  0.24957601  0.08643072  1
  O  O469  1  0.98582862  0.24982833  0.33712111  1
  O  O470  1  0.98363052  0.24962168  0.58710830  1
  O  O471  1  0.98396861  0.24956933  0.83696092  1
  O  O472  1  0.98361481  0.58353695  0.08478376  1
  O  O473  1  0.98302951  0.58358158  0.33806255  1
  O  O474  1  0.98265846  0.58287066  0.58585654  1
  O  O475  1  0.98198916  0.58384630  0.83531832  1
  O  O476  1  0.98201228  0.91710867  0.08511134  1
  O  O477  1  0.98429359  0.91620405  0.33740448  1
  O  O478  1  0.98208923  0.91728907  0.58570135  1
  O  O479  1  0.98163380  0.91687636  0.83527266  1
  O  O480  1  0.08971813  0.31452958  0.07718316  1
  O  O481  1  0.08970836  0.31471818  0.32797973  1
  O  O482  1  0.08755512  0.31470209  0.57759898  1
  O  O483  1  0.08809831  0.31365018  0.82684783  1
  O  O484  1  0.08737133  0.64842264  0.07708967  1
  O  O485  1  0.08616658  0.64961025  0.32874093  1
  O  O486  1  0.08685451  0.64738744  0.57685930  1
  O  O487  1  0.08543634  0.64985842  0.82709324  1
  O  O488  1  0.08584654  0.98194730  0.07661858  1
  O  O489  1  0.08783735  0.98075868  0.32784735  1
  O  O490  1  0.08589694  0.98300656  0.57719286  1
  O  O491  1  0.08559242  0.98154109  0.82728899  1
  O  O492  1  0.58495999  0.31475546  0.07727495  1
  O  O493  1  0.58604333  0.31417231  0.32857760  1
  O  O494  1  0.58757362  0.31476649  0.57709959  1
  O  O495  1  0.58840356  0.31441920  0.82613060  1
  O  O496  1  0.58525861  0.64813084  0.07645359  1
  O  O497  1  0.58505595  0.64795824  0.32747080  1
  O  O498  1  0.58574322  0.64926661  0.57771850  1
  O  O499  1  0.58558559  0.64863705  0.82698859  1
  O  O500  1  0.58774705  0.98189430  0.07740956  1
  O  O501  1  0.58854889  0.98363551  0.32843115  1
  O  O502  1  0.58955017  0.98085845  0.57747464  1
  O  O503  1  0.58604020  0.98224316  0.82631980  1
  O  O504  1  0.40992909  0.01975683  0.17320562  1
  O  O505  1  0.41225410  0.01864486  0.42396947  1
  O  O506  1  0.41034531  0.01919712  0.67253932  1
  O  O507  1  0.41120784  0.01699972  0.92148908  1
  O  O508  1  0.41164558  0.35096198  0.17228338  1
  O  O509  1  0.41085788  0.35126146  0.42390024  1
  O  O510  1  0.41176284  0.35098770  0.67177969  1
  O  O511  1  0.41227455  0.35177300  0.92177647  1
  O  O512  1  0.41122247  0.68460246  0.17136413  1
  O  O513  1  0.41274333  0.68476289  0.42261593  1
  O  O514  1  0.41270103  0.68477489  0.67254683  1
  O  O515  1  0.41048656  0.68560124  0.92157025  1
  O  O516  1  0.91222177  0.01731649  0.17183533  1
  O  O517  1  0.91172275  0.01868979  0.42340001  1
  O  O518  1  0.91211305  0.01859338  0.67223024  1
  O  O519  1  0.91230972  0.01862821  0.92161063  1
  O  O520  1  0.91418736  0.35119046  0.17318129  1
  O  O521  1  0.91219991  0.35196415  0.42381557  1
  O  O522  1  0.91285057  0.35066579  0.67247108  1
  O  O523  1  0.91230197  0.35087574  0.92137477  1
  O  O524  1  0.91130646  0.68639029  0.17235330  1
  O  O525  1  0.91274287  0.68433759  0.42331141  1
  O  O526  1  0.91144257  0.68524801  0.67096475  1
  O  O527  1  0.91324388  0.68518397  0.92253501  1
  O  O528  1  0.16425361  0.01957826  0.20205335  1
  O  O529  1  0.16326590  0.01826032  0.45357091  1
  O  O530  1  0.16104525  0.01872538  0.70204378  1
  O  O531  1  0.16284753  0.01896403  0.95089735  1
  O  O532  1  0.16332241  0.35038261  0.20394135  1
  O  O533  1  0.16309717  0.35146967  0.45389772  1
  O  O534  1  0.16097036  0.35085001  0.70179846  1
  O  O535  1  0.16261910  0.35061195  0.95285121  1
  O  O536  1  0.16202984  0.68491033  0.20279659  1
  O  O537  1  0.16129960  0.68454912  0.45263717  1
  O  O538  1  0.16365548  0.68500138  0.70259567  1
  O  O539  1  0.16366988  0.68505105  0.95099160  1
  O  O540  1  0.66119885  0.01758267  0.20341529  1
  O  O541  1  0.66290478  0.01886123  0.45283225  1
  O  O542  1  0.66425371  0.01865362  0.70265300  1
  O  O543  1  0.66467640  0.01818815  0.95176451  1
  O  O544  1  0.66234977  0.35186173  0.20252933  1
  O  O545  1  0.66466390  0.35040606  0.45327346  1
  O  O546  1  0.66473533  0.35074075  0.70263577  1
  O  O547  1  0.66291836  0.35149741  0.95217301  1
  O  O548  1  0.66249226  0.68543240  0.20236617  1
  O  O549  1  0.66400423  0.68544120  0.45299426  1
  O  O550  1  0.66166114  0.68582505  0.70180430  1
  O  O551  1  0.66487675  0.68518435  0.95133125  1
  O  O552  1  0.33642116  0.31379418  0.04802096  1
  O  O553  1  0.33855118  0.31348706  0.29892756  1
  O  O554  1  0.33737868  0.31493430  0.54815202  1
  O  O555  1  0.33548161  0.31396809  0.79678577  1
  O  O556  1  0.33862838  0.64966304  0.04671638  1
  O  O557  1  0.33871364  0.64820391  0.29840545  1
  O  O558  1  0.33716486  0.64807125  0.54797089  1
  O  O559  1  0.33865931  0.64945317  0.79677840  1
  O  O560  1  0.33808555  0.98204873  0.04585100  1
  O  O561  1  0.33765751  0.98286102  0.29767901  1
  O  O562  1  0.33520881  0.98225719  0.54804886  1
  O  O563  1  0.33805166  0.98213423  0.79710282  1
  O  O564  1  0.83896161  0.31366808  0.04715479  1
  O  O565  1  0.83714103  0.31489163  0.29776999  1
  O  O566  1  0.83758008  0.31434000  0.54836558  1
  O  O567  1  0.83878223  0.31481537  0.79739253  1
  O  O568  1  0.83806074  0.64992430  0.04637530  1
  O  O569  1  0.83834249  0.64836792  0.29870822  1
  O  O570  1  0.83929503  0.64846700  0.54759556  1
  O  O571  1  0.83995460  0.64715955  0.79704047  1
  O  O572  1  0.83987929  0.98193470  0.04684099  1
  O  O573  1  0.83645678  0.98167838  0.29767215  1
  O  O574  1  0.83689449  0.98248259  0.54768664  1
  O  O575  1  0.83787687  0.98279998  0.79694938  1
  O  O576  1  0.41065234  0.14983428  0.17231604  1
  O  O577  1  0.41201431  0.14854217  0.42348075  1
  O  O578  1  0.41101466  0.14919800  0.67217278  1
  O  O579  1  0.40983822  0.14708678  0.92180840  1
  O  O580  1  0.41162790  0.48131566  0.17196567  1
  O  O581  1  0.41086928  0.48136150  0.42353803  1
  O  O582  1  0.41093082  0.48135117  0.67103270  1
  O  O583  1  0.41218458  0.48201098  0.92117923  1
  O  O584  1  0.41173399  0.81482283  0.17266995  1
  O  O585  1  0.41316843  0.81486063  0.42364600  1
  O  O586  1  0.41285704  0.81476723  0.67343488  1
  O  O587  1  0.41066647  0.81581445  0.92199041  1
  O  O588  1  0.91222414  0.14749740  0.17254241  1
  O  O589  1  0.91216660  0.14852636  0.42374180  1
  O  O590  1  0.91203398  0.14871106  0.67225979  1
  O  O591  1  0.91296307  0.14876275  0.92223901  1
  O  O592  1  0.91344689  0.48133801  0.17250331  1
  O  O593  1  0.91225353  0.48194689  0.42305132  1
  O  O594  1  0.91243399  0.48084891  0.67190772  1
  O  O595  1  0.91178629  0.48133826  0.92078280  1
  O  O596  1  0.91230036  0.81669253  0.17199059  1
  O  O597  1  0.91224809  0.81423712  0.42385591  1
  O  O598  1  0.91156462  0.81556089  0.67149444  1
  O  O599  1  0.91290291  0.81525401  0.92225081  1
  O  O600  1  0.08954125  0.18459592  0.07705775  1
  O  O601  1  0.08951451  0.18478990  0.32761075  1
  O  O602  1  0.08757895  0.18469421  0.57759441  1
  O  O603  1  0.08725071  0.18359588  0.82704375  1
  O  O604  1  0.08730323  0.51838092  0.07699890  1
  O  O605  1  0.08693581  0.51942134  0.32810560  1
  O  O606  1  0.08648967  0.51738381  0.57694069  1
  O  O607  1  0.08603224  0.51966365  0.82690907  1
  O  O608  1  0.08573467  0.85198571  0.07678865  1
  O  O609  1  0.08755043  0.85036751  0.32912393  1
  O  O610  1  0.08651220  0.85302923  0.57715995  1
  O  O611  1  0.08533868  0.85137097  0.82730433  1
  O  O612  1  0.58437826  0.18480804  0.07636844  1
  O  O613  1  0.58575218  0.18397711  0.32867004  1
  O  O614  1  0.58764512  0.18476803  0.57718339  1
  O  O615  1  0.58799751  0.18445405  0.82602150  1
  O  O616  1  0.58514792  0.51805332  0.07697537  1
  O  O617  1  0.58500171  0.51772813  0.32784425  1
  O  O618  1  0.58598061  0.51915565  0.57709810  1
  O  O619  1  0.58525264  0.51858381  0.82650843  1
  O  O620  1  0.58732461  0.85178691  0.07730662  1
  O  O621  1  0.59014168  0.85336575  0.32785215  1
  O  O622  1  0.58889000  0.85066638  0.57864889  1
  O  O623  1  0.58697395  0.85234278  0.82700363  1
  O  O624  1  0.33654459  0.18386189  0.04691281  1
  O  O625  1  0.33774214  0.18354898  0.29829329  1
  O  O626  1  0.33788105  0.18490719  0.54807898  1
  O  O627  1  0.33562138  0.18392797  0.79613971  1
  O  O628  1  0.33941310  0.51943717  0.04734285  1
  O  O629  1  0.33884558  0.51827451  0.29826036  1
  O  O630  1  0.33676263  0.51804640  0.54779096  1
  O  O631  1  0.33934810  0.51933887  0.79708364  1
  O  O632  1  0.33794718  0.85171604  0.04640389  1
  O  O633  1  0.33700761  0.85277670  0.29872497  1
  O  O634  1  0.33557558  0.85224180  0.54810787  1
  O  O635  1  0.33835134  0.85207000  0.79757927  1
  O  O636  1  0.83845845  0.18343033  0.04664949  1
  O  O637  1  0.83683798  0.18493811  0.29799798  1
  O  O638  1  0.83734274  0.18443052  0.54802065  1
  O  O639  1  0.83906797  0.18475009  0.79715099  1
  O  O640  1  0.83879561  0.51957619  0.04676957  1
  O  O641  1  0.83845994  0.51847503  0.29853089  1
  O  O642  1  0.84007817  0.51824010  0.54718256  1
  O  O643  1  0.83924146  0.51696220  0.79658120  1
  O  O644  1  0.83969634  0.85170840  0.04678739  1
  O  O645  1  0.83623827  0.85178699  0.29775378  1
  O  O646  1  0.83679190  0.85250295  0.54830813  1
  O  O647  1  0.83793472  0.85281745  0.79748153  1
  O  O648  1  0.16489661  0.14958588  0.20297624  1
  O  O649  1  0.16279628  0.14843359  0.45388002  1
  O  O650  1  0.16160472  0.14858743  0.70194365  1
  O  O651  1  0.16280846  0.14888451  0.95182676  1
  O  O652  1  0.16339741  0.48070048  0.20272759  1
  O  O653  1  0.16326936  0.48184972  0.45334256  1
  O  O654  1  0.16083140  0.48091987  0.70134817  1
  O  O655  1  0.16299487  0.48087281  0.95183338  1
  O  O656  1  0.16186669  0.81522899  0.20303764  1
  O  O657  1  0.16062826  0.81472547  0.45326720  1
  O  O658  1  0.16300429  0.81494824  0.70284825  1
  O  O659  1  0.16355654  0.81496522  0.95106382  1
  O  O660  1  0.66098027  0.14787463  0.20258106  1
  O  O661  1  0.66308131  0.14888399  0.45258692  1
  O  O662  1  0.66437545  0.14863750  0.70262948  1
  O  O663  1  0.66492642  0.14815083  0.95174250  1
  O  O664  1  0.66275585  0.48219541  0.20270159  1
  O  O665  1  0.66455758  0.48054150  0.45263825  1
  O  O666  1  0.66503176  0.48090285  0.70184932  1
  O  O667  1  0.66343430  0.48182994  0.95167601  1
  O  O668  1  0.66249473  0.81580759  0.20271837  1
  O  O669  1  0.66351576  0.81565159  0.45435782  1
  O  O670  1  0.66189764  0.81598925  0.70270600  1
  O  O671  1  0.66449380  0.81523787  0.95185573  1
