# generated using pymatgen
data_Na2MnFe(PO4)2
_symmetry_space_group_name_H-M   'P 1'
_cell_length_a   21.08950953
_cell_length_b   18.94289110
_cell_length_c   20.04792081
_cell_angle_alpha   89.99976499
_cell_angle_beta   90.00359946
_cell_angle_gamma   89.99971049
_symmetry_Int_Tables_number   1
_chemical_formula_structural   Na2MnFe(PO4)2
_chemical_formula_sum   'Na96 Mn48 Fe48 P96 O384'
_cell_volume   8009.06981704
_cell_formula_units_Z   48
loop_
 _symmetry_equiv_pos_site_id
 _symmetry_equiv_pos_as_xyz
  1  'x, y, z'
loop_
 _atom_site_type_symbol
 _atom_site_label
 _atom_site_symmetry_multiplicity
 _atom_site_fract_x
 _atom_site_fract_y
 _atom_site_fract_z
 _atom_site_occupancy
  Na  Na0  1  0.00025196  0.00055239  -0.00041228  1
  Na  Na1  1  -0.00042352  -0.00000806  0.24930710  1
  Na  Na2  1  -0.00137669  -0.00019290  0.50019647  1
  Na  Na3  1  -0.00159154  -0.00047128  0.75013121  1
  Na  Na4  1  0.00007575  0.33322880  -0.00092212  1
  Na  Na5  1  0.00075960  0.33274179  0.24995728  1
  Na  Na6  1  -0.00088104  0.33315227  0.49998877  1
  Na  Na7  1  -0.00269391  0.33239787  0.75086745  1
  Na  Na8  1  -0.00127117  0.66598122  0.00024525  1
  Na  Na9  1  0.00314825  0.66791910  0.24981652  1
  Na  Na10  1  0.00009938  0.66747614  0.49991021  1
  Na  Na11  1  -0.00298035  0.66633195  0.74960166  1
  Na  Na12  1  0.50231241  0.00040387  0.00077493  1
  Na  Na13  1  0.50192851  0.00053695  0.25056987  1
  Na  Na14  1  0.50213928  -0.00034527  0.49960749  1
  Na  Na15  1  0.50251632  -0.00030097  0.74988572  1
  Na  Na16  1  0.49885663  0.33235794  -0.00009858  1
  Na  Na17  1  0.49869596  0.33299344  0.25054575  1
  Na  Na18  1  0.50157601  0.33349761  0.50021021  1
  Na  Na19  1  0.50136163  0.33310959  0.74967427  1
  Na  Na20  1  0.49840518  0.66609470  0.00057032  1
  Na  Na21  1  0.49998648  0.66717154  0.24906899  1
  Na  Na22  1  0.49767340  0.66528440  0.50038088  1
  Na  Na23  1  0.50049597  0.66716506  0.74970682  1
  Na  Na24  1  0.24960397  -0.00014568  0.12488707  1
  Na  Na25  1  0.24933127  -0.00027792  0.37585955  1
  Na  Na26  1  0.24927990  -0.00071049  0.62432394  1
  Na  Na27  1  0.24937184  -0.00054114  0.87466922  1
  Na  Na28  1  0.25205954  0.33382761  0.12609600  1
  Na  Na29  1  0.25112149  0.33331076  0.37430177  1
  Na  Na30  1  0.25087851  0.33367707  0.62603967  1
  Na  Na31  1  0.24940934  0.33275216  0.87439253  1
  Na  Na32  1  0.25022756  0.66720925  0.12611372  1
  Na  Na33  1  0.24890972  0.66636686  0.37598135  1
  Na  Na34  1  0.25087921  0.66717493  0.62410615  1
  Na  Na35  1  0.25124547  0.66725267  0.87411402  1
  Na  Na36  1  0.74876216  0.00051333  0.12546890  1
  Na  Na37  1  0.74945661  -0.00040689  0.37585513  1
  Na  Na38  1  0.75128729  0.00102580  0.62461671  1
  Na  Na39  1  0.74864636  -0.00014035  0.87495921  1
  Na  Na40  1  0.74978468  0.33297948  0.12558695  1
  Na  Na41  1  0.74739019  0.33177895  0.37351606  1
  Na  Na42  1  0.75057983  0.33367130  0.62461213  1
  Na  Na43  1  0.74929370  0.33215695  0.87497280  1
  Na  Na44  1  0.74956768  0.66657961  0.12437191  1
  Na  Na45  1  0.75040785  0.66697585  0.37521747  1
  Na  Na46  1  0.75183123  0.66727776  0.62489994  1
  Na  Na47  1  0.75080656  0.66658026  0.87580366  1
  Na  Na48  1  -0.00256608  0.16683410  -0.00080143  1
  Na  Na49  1  -0.00169667  0.16626246  0.24942597  1
  Na  Na50  1  -0.00201055  0.16587209  0.49936368  1
  Na  Na51  1  -0.00444944  0.16710633  0.75078951  1
  Na  Na52  1  0.00025879  0.49968582  0.00031009  1
  Na  Na53  1  0.00280152  0.49950747  0.24947492  1
  Na  Na54  1  0.00050778  0.49965261  0.50005044  1
  Na  Na55  1  -0.00111266  0.49941161  0.74984383  1
  Na  Na56  1  0.00167576  0.83336472  -0.00085191  1
  Na  Na57  1  0.00149016  0.83419228  0.25004886  1
  Na  Na58  1  -0.00073495  0.83453937  0.50055333  1
  Na  Na59  1  -0.00007513  0.83361566  0.75015486  1
  Na  Na60  1  0.50201749  0.16578222  -0.00062215  1
  Na  Na61  1  0.49956952  0.16716871  0.25129636  1
  Na  Na62  1  0.50318375  0.16529584  0.50007876  1
  Na  Na63  1  0.50398138  0.16567334  0.74982831  1
  Na  Na64  1  0.49871695  0.49972945  0.00095569  1
  Na  Na65  1  0.49871154  0.49961615  0.24890551  1
  Na  Na66  1  0.49876913  0.50016238  0.50051076  1
  Na  Na67  1  0.49987333  0.50008824  0.74910432  1
  Na  Na68  1  0.50005646  0.83446001  0.00089229  1
  Na  Na69  1  0.50055791  0.83434021  0.24952248  1
  Na  Na70  1  0.50086918  0.83408179  0.50016500  1
  Na  Na71  1  0.50001259  0.83466532  0.75014070  1
  Na  Na72  1  0.25090107  0.16595274  0.12592115  1
  Na  Na73  1  0.24886105  0.16672014  0.37461143  1
  Na  Na74  1  0.24947944  0.16615130  0.62472894  1
  Na  Na75  1  0.24924551  0.16681647  0.87502388  1
  Na  Na76  1  0.25119552  0.49899695  0.12530633  1
  Na  Na77  1  0.25081592  0.49979606  0.37586776  1
  Na  Na78  1  0.25109981  0.49935538  0.62518795  1
  Na  Na79  1  0.24958855  0.49973383  0.87372741  1
  Na  Na80  1  0.24987868  0.83435508  0.12586912  1
  Na  Na81  1  0.24943593  0.83461043  0.37566163  1
  Na  Na82  1  0.24976678  0.83518712  0.62464178  1
  Na  Na83  1  0.25099537  0.83437141  0.87432714  1
  Na  Na84  1  0.75082476  0.16568888  0.12537290  1
  Na  Na85  1  0.75064829  0.16545441  0.37447710  1
  Na  Na86  1  0.74877268  0.16722181  0.62571033  1
  Na  Na87  1  0.75017441  0.16628805  0.87509022  1
  Na  Na88  1  0.74845769  0.50045395  0.12491048  1
  Na  Na89  1  0.74781503  0.50043460  0.37460307  1
  Na  Na90  1  0.75062101  0.49989292  0.62448735  1
  Na  Na91  1  0.75079686  0.49956105  0.87597239  1
  Na  Na92  1  0.74776302  0.83509406  0.12543520  1
  Na  Na93  1  0.75110724  0.83355128  0.37497836  1
  Na  Na94  1  0.75123717  0.83391209  0.62468812  1
  Na  Na95  1  0.74915777  0.83398244  0.87417758  1
  Mn  Mn96  1  0.89166246  0.91641968  0.87745673  1
  Mn  Mn97  1  0.85754873  0.41697971  0.25255481  1
  Mn  Mn98  1  0.39254450  0.91809226  0.12741520  1
  Mn  Mn99  1  0.14263728  0.58319035  0.99681419  1
  Mn  Mn100  1  0.60786022  0.41661835  0.87267973  1
  Mn  Mn101  1  0.10806215  0.74923821  0.87252736  1
  Mn  Mn102  1  0.60810599  0.74937793  0.37295295  1
  Mn  Mn103  1  0.89293630  0.58374240  0.37624092  1
  Mn  Mn104  1  0.85758649  0.75116383  0.00271818  1
  Mn  Mn105  1  0.10684462  0.08388851  0.87262801  1
  Mn  Mn106  1  0.64181972  0.58353535  0.49705641  1
  Mn  Mn107  1  0.10673500  0.41605582  0.62283181  1
  Mn  Mn108  1  0.60852906  0.41669717  0.62264979  1
  Mn  Mn109  1  0.64201415  0.58328085  0.99719440  1
  Mn  Mn110  1  0.14272013  0.58336793  0.49785360  1
  Mn  Mn111  1  0.14160274  0.58419524  0.74752036  1
  Mn  Mn112  1  0.60861105  0.75008200  0.62267706  1
  Mn  Mn113  1  0.14070320  0.24896130  0.74742787  1
  Mn  Mn114  1  0.35880144  0.08346195  0.75167251  1
  Mn  Mn115  1  0.35788322  0.41595807  0.75242052  1
  Mn  Mn116  1  0.60651858  0.41568647  0.12277793  1
  Mn  Mn117  1  0.64190001  0.24953674  0.24696369  1
  Mn  Mn118  1  0.14270099  0.24960523  0.24751897  1
  Mn  Mn119  1  0.35804833  0.08361805  0.50226369  1
  Mn  Mn120  1  0.39141851  0.58289778  0.12770077  1
  Mn  Mn121  1  0.35839956  0.08376450  0.00209870  1
  Mn  Mn122  1  0.60761726  0.75042658  0.12263522  1
  Mn  Mn123  1  0.35754303  0.75056737  0.25344546  1
  Mn  Mn124  1  0.85794064  0.75025904  0.25211472  1
  Mn  Mn125  1  0.60759314  0.74992449  0.87268701  1
  Mn  Mn126  1  0.10752951  0.08389271  0.12291133  1
  Mn  Mn127  1  0.89246823  0.58291616  0.12826498  1
  Mn  Mn128  1  0.89133512  0.58305368  0.62736872  1
  Mn  Mn129  1  0.14131869  0.24973824  0.49833773  1
  Mn  Mn130  1  0.89205512  0.91687472  0.12704061  1
  Mn  Mn131  1  0.10887297  0.75029687  0.12225897  1
  Mn  Mn132  1  0.85779702  0.41590371  0.00289316  1
  Mn  Mn133  1  0.85752289  0.41646128  0.50080086  1
  Mn  Mn134  1  0.39352932  0.24888238  0.62712868  1
  Mn  Mn135  1  0.89223945  0.25019563  0.37715408  1
  Mn  Mn136  1  0.10676143  0.75024323  0.62304358  1
  Mn  Mn137  1  0.35764495  0.75021348  0.50200559  1
  Mn  Mn138  1  0.39216506  0.58383645  0.87731889  1
  Mn  Mn139  1  0.39293861  0.24905874  0.87726203  1
  Mn  Mn140  1  0.10600471  0.08363683  0.62323048  1
  Mn  Mn141  1  0.39282825  0.24956448  0.37831252  1
  Mn  Mn142  1  0.35834248  0.75077282  0.75197579  1
  Mn  Mn143  1  0.10869384  0.41562161  0.12244058  1
  Fe  Fe144  1  0.60807443  0.08332887  0.37303738  1
  Fe  Fe145  1  0.85586274  0.08294743  0.00167589  1
  Fe  Fe146  1  0.85677044  0.08319280  0.50151927  1
  Fe  Fe147  1  0.64152847  0.58384342  0.24870609  1
  Fe  Fe148  1  0.60829753  0.08315141  0.87319619  1
  Fe  Fe149  1  0.35724603  0.41652790  0.25293745  1
  Fe  Fe150  1  0.64333596  0.24974003  0.49831566  1
  Fe  Fe151  1  0.60753356  0.08412954  0.12367746  1
  Fe  Fe152  1  0.64397170  0.91669838  0.49807573  1
  Fe  Fe153  1  0.89234895  0.25018644  0.12614581  1
  Fe  Fe154  1  0.89066864  0.24962015  0.62676237  1
  Fe  Fe155  1  0.14334625  0.91718958  0.99798620  1
  Fe  Fe156  1  0.64335089  0.58328844  0.74892740  1
  Fe  Fe157  1  0.39351775  0.91723038  0.87666487  1
  Fe  Fe158  1  0.85820666  0.75046250  0.50106626  1
  Fe  Fe159  1  0.64316101  0.91606977  0.74779378  1
  Fe  Fe160  1  0.39239661  0.58377273  0.37634380  1
  Fe  Fe161  1  0.89212051  0.91707040  0.62712319  1
  Fe  Fe162  1  0.10662486  0.41640016  0.87348141  1
  Fe  Fe163  1  0.10875145  0.41654119  0.37366178  1
  Fe  Fe164  1  0.35768152  0.41598770  0.50165580  1
  Fe  Fe165  1  0.89291622  0.91653913  0.37648886  1
  Fe  Fe166  1  0.89149390  0.25057791  0.87752179  1
  Fe  Fe167  1  0.85673407  0.74998556  0.75222674  1
  Fe  Fe168  1  0.14294477  0.91694358  0.74818904  1
  Fe  Fe169  1  0.85570815  0.08330376  0.75179377  1
  Fe  Fe170  1  0.60640453  0.41708042  0.37303852  1
  Fe  Fe171  1  0.14248910  0.24966110  0.99852670  1
  Fe  Fe172  1  0.14345513  0.58358111  0.24904449  1
  Fe  Fe173  1  0.14283948  0.91697921  0.24888945  1
  Fe  Fe174  1  0.39343510  0.91677469  0.37692157  1
  Fe  Fe175  1  0.60882280  0.08265745  0.62295471  1
  Fe  Fe176  1  0.10641314  0.08311092  0.37320028  1
  Fe  Fe177  1  0.64257486  0.24964779  0.99860206  1
  Fe  Fe178  1  0.89212067  0.58280371  0.87641272  1
  Fe  Fe179  1  0.35674617  0.41646334  0.00081058  1
  Fe  Fe180  1  0.39365021  0.91699942  0.62649405  1
  Fe  Fe181  1  0.35735884  0.75026514  0.00136308  1
  Fe  Fe182  1  0.64238979  0.91713828  0.99784182  1
  Fe  Fe183  1  0.14191035  0.91717244  0.49797176  1
  Fe  Fe184  1  0.85694983  0.41701810  0.75207938  1
  Fe  Fe185  1  0.39234542  0.24895586  0.12585007  1
  Fe  Fe186  1  0.10733730  0.75058516  0.37374986  1
  Fe  Fe187  1  0.64391992  0.25049322  0.74830848  1
  Fe  Fe188  1  0.35791501  0.08287900  0.25233329  1
  Fe  Fe189  1  0.85673313  0.08265514  0.25172359  1
  Fe  Fe190  1  0.39293022  0.58379992  0.62713694  1
  Fe  Fe191  1  0.64302459  0.91604184  0.24925382  1
  P  P192  1  0.05252249  0.24928954  0.10885095  1
  P  P193  1  0.05358451  0.24921996  0.35996921  1
  P  P194  1  0.05001279  0.24935528  0.61008994  1
  P  P195  1  0.05237829  0.25039332  0.86126708  1
  P  P196  1  0.05525275  0.58315726  0.11074534  1
  P  P197  1  0.05464858  0.58359592  0.35967956  1
  P  P198  1  0.05261293  0.58343534  0.60981582  1
  P  P199  1  0.05177129  0.58257338  0.85978430  1
  P  P200  1  0.05521041  0.91730209  0.11004191  1
  P  P201  1  0.05380332  0.91735701  0.36086162  1
  P  P202  1  0.05317689  0.91711565  0.61078676  1
  P  P203  1  0.05491222  0.91682872  0.86023136  1
  P  P204  1  0.55238721  0.24899568  0.10965635  1
  P  P205  1  0.55532560  0.24996768  0.36162639  1
  P  P206  1  0.55650660  0.24911645  0.61064284  1
  P  P207  1  0.55581817  0.24910573  0.86040790  1
  P  P208  1  0.55382611  0.58315706  0.11084858  1
  P  P209  1  0.55185896  0.58263224  0.35941960  1
  P  P210  1  0.55383391  0.58349791  0.61112561  1
  P  P211  1  0.55356506  0.58323914  0.85898865  1
  P  P212  1  0.55564490  0.91813321  0.11117326  1
  P  P213  1  0.55486512  0.91704335  0.36090507  1
  P  P214  1  0.55545437  0.91710603  0.61033579  1
  P  P215  1  0.55485766  0.91732407  0.86052442  1
  P  P216  1  0.44757092  0.08420121  0.14088938  1
  P  P217  1  0.44749343  0.08222122  0.38923522  1
  P  P218  1  0.44926721  0.08217708  0.63963225  1
  P  P219  1  0.44889991  0.08219030  0.88971113  1
  P  P220  1  0.44358300  0.41492899  0.13933125  1
  P  P221  1  0.44591508  0.41738989  0.38956867  1
  P  P222  1  0.44570549  0.41659730  0.63880221  1
  P  P223  1  0.44636970  0.41638252  0.89066470  1
  P  P224  1  0.44486273  0.75064747  0.13916721  1
  P  P225  1  0.44698262  0.75057911  0.38986561  1
  P  P226  1  0.44693240  0.75092553  0.63968330  1
  P  P227  1  0.44629102  0.75156969  0.89074789  1
  P  P228  1  0.94415665  0.08401981  0.13895592  1
  P  P229  1  0.94522101  0.08211478  0.38896470  1
  P  P230  1  0.94320888  0.08312343  0.63944294  1
  P  P231  1  0.94328759  0.08361704  0.88938440  1
  P  P232  1  0.94697925  0.41535534  0.14023652  1
  P  P233  1  0.94880123  0.41700778  0.38947382  1
  P  P234  1  0.94481960  0.41547114  0.64051153  1
  P  P235  1  0.94562514  0.41678796  0.88891362  1
  P  P236  1  0.94735768  0.75063030  0.14026299  1
  P  P237  1  0.94767275  0.75118370  0.38996512  1
  P  P238  1  0.94396440  0.75134561  0.63950177  1
  P  P239  1  0.94512335  0.74941432  0.88900928  1
  P  P240  1  0.19661483  0.08224983  0.23649551  1
  P  P241  1  0.19526162  0.08269163  0.48467987  1
  P  P242  1  0.19650297  0.08228673  0.73464062  1
  P  P243  1  0.19659817  0.08382974  0.98520368  1
  P  P244  1  0.19691898  0.41720976  0.23657259  1
  P  P245  1  0.19755631  0.41617955  0.48492146  1
  P  P246  1  0.19465038  0.41643028  0.73590959  1
  P  P247  1  0.19713031  0.41531183  0.98437604  1
  P  P248  1  0.19524406  0.75076871  0.23712281  1
  P  P249  1  0.19556258  0.75138013  0.48497981  1
  P  P250  1  0.19677504  0.75138874  0.73442020  1
  P  P251  1  0.19832634  0.75094770  0.98471003  1
  P  P252  1  0.69568932  0.08221699  0.23597941  1
  P  P253  1  0.69616600  0.08318139  0.48586116  1
  P  P254  1  0.69572356  0.08322666  0.73601151  1
  P  P255  1  0.69534597  0.08382531  0.98600979  1
  P  P256  1  0.69463429  0.41748395  0.23591374  1
  P  P257  1  0.69593015  0.41570781  0.48369646  1
  P  P258  1  0.69806246  0.41694479  0.73546223  1
  P  P259  1  0.69641980  0.41525643  0.98532639  1
  P  P260  1  0.69639450  0.75015565  0.23523663  1
  P  P261  1  0.69844115  0.75111664  0.48514768  1
  P  P262  1  0.69787342  0.74961248  0.73525556  1
  P  P263  1  0.69653136  0.75111717  0.98472851  1
  P  P264  1  0.30256905  0.25039756  0.01537196  1
  P  P265  1  0.30545869  0.24910953  0.26383959  1
  P  P266  1  0.30321463  0.25034661  0.51543263  1
  P  P267  1  0.30321102  0.24917294  0.76509515  1
  P  P268  1  0.30331629  0.58334229  0.01482422  1
  P  P269  1  0.30287937  0.58293772  0.26588214  1
  P  P270  1  0.30570285  0.58247795  0.51441879  1
  P  P271  1  0.30449032  0.58359792  0.76368085  1
  P  P272  1  0.30390441  0.91663654  0.01383245  1
  P  P273  1  0.30327175  0.91800728  0.26600787  1
  P  P274  1  0.30413016  0.91708451  0.51431779  1
  P  P275  1  0.30481416  0.91746018  0.76426226  1
  P  P276  1  0.80339488  0.24888899  0.01460765  1
  P  P277  1  0.80436153  0.24893531  0.26359682  1
  P  P278  1  0.80262133  0.24906316  0.51475294  1
  P  P279  1  0.80387078  0.24995539  0.76434335  1
  P  P280  1  0.80461675  0.58317486  0.01444479  1
  P  P281  1  0.80146397  0.58347159  0.26508117  1
  P  P282  1  0.80342104  0.58384416  0.51418296  1
  P  P283  1  0.80276736  0.58317493  0.76565858  1
  P  P284  1  0.80145076  0.91788743  0.01474724  1
  P  P285  1  0.80299815  0.91753648  0.26558349  1
  P  P286  1  0.80477282  0.91698209  0.51378749  1
  P  P287  1  0.80315793  0.91701602  0.76368282  1
  O  O288  1  0.05702971  0.24897288  0.18554762  1
  O  O289  1  0.05592502  0.24923603  0.43673054  1
  O  O290  1  0.05384216  0.24903348  0.68679984  1
  O  O291  1  0.05786705  0.24961757  0.93782044  1
  O  O292  1  0.06033435  0.58336227  0.18744683  1
  O  O293  1  0.05693626  0.58343036  0.43643777  1
  O  O294  1  0.05553350  0.58365052  0.68656089  1
  O  O295  1  0.05585950  0.58338970  0.93653840  1
  O  O296  1  0.05946155  0.91741956  0.18679436  1
  O  O297  1  0.05781722  0.91746921  0.43759659  1
  O  O298  1  0.05823995  0.91708811  0.68740236  1
  O  O299  1  0.05990059  0.91695930  0.93706930  1
  O  O300  1  0.55589763  0.24992222  0.18631963  1
  O  O301  1  0.55939222  0.24949863  0.43837161  1
  O  O302  1  0.56078430  0.25032623  0.68741854  1
  O  O303  1  0.55938821  0.24993582  0.93721710  1
  O  O304  1  0.55827810  0.58347646  0.18764951  1
  O  O305  1  0.55556338  0.58330408  0.43619522  1
  O  O306  1  0.55973961  0.58352915  0.68766093  1
  O  O307  1  0.55649141  0.58311290  0.93581836  1
  O  O308  1  0.55966567  0.91690722  0.18788662  1
  O  O309  1  0.55984439  0.91634388  0.43758234  1
  O  O310  1  0.56022458  0.91625702  0.68708848  1
  O  O311  1  0.55920016  0.91678527  0.93728835  1
  O  O312  1  0.44390783  0.08318707  0.06413150  1
  O  O313  1  0.44235665  0.08280100  0.31265930  1
  O  O314  1  0.44507951  0.08285895  0.56298679  1
  O  O315  1  0.44520662  0.08277174  0.81308029  1
  O  O316  1  0.43955506  0.41599741  0.06252431  1
  O  O317  1  0.44111065  0.41662026  0.31283157  1
  O  O318  1  0.44178878  0.41580468  0.56210855  1
  O  O319  1  0.44361960  0.41624602  0.81383037  1
  O  O320  1  0.44046919  0.75062829  0.06243899  1
  O  O321  1  0.44432168  0.75093116  0.31309363  1
  O  O322  1  0.44374562  0.75081602  0.56288683  1
  O  O323  1  0.44377346  0.75099992  0.81396254  1
  O  O324  1  0.93988210  0.08275334  0.06221810  1
  O  O325  1  0.94074268  0.08251463  0.31225412  1
  O  O326  1  0.93982965  0.08315722  0.56259673  1
  O  O327  1  0.93891677  0.08263379  0.81259297  1
  O  O328  1  0.94364928  0.41614155  0.06346516  1
  O  O329  1  0.94459410  0.41692797  0.31282207  1
  O  O330  1  0.94207255  0.41635542  0.56373449  1
  O  O331  1  0.94068589  0.41664160  0.81225850  1
  O  O332  1  0.94362201  0.75087916  0.06346766  1
  O  O333  1  0.94411519  0.75072845  0.31326469  1
  O  O334  1  0.94041010  0.75075755  0.56268046  1
  O  O335  1  0.94041869  0.75049440  0.81219916  1
  O  O336  1  0.19370254  0.08386404  0.06185446  1
  O  O337  1  0.19132281  0.08299627  0.31310613  1
  O  O338  1  0.19176811  0.08316722  0.56137583  1
  O  O339  1  0.19307415  0.08324610  0.81145168  1
  O  O340  1  0.19416227  0.41592745  0.06115002  1
  O  O341  1  0.19200872  0.41635560  0.31323633  1
  O  O342  1  0.19334446  0.41604723  0.56159001  1
  O  O343  1  0.18974620  0.41633423  0.81268329  1
  O  O344  1  0.19493877  0.75048983  0.06142618  1
  O  O345  1  0.19113707  0.75083469  0.31384777  1
  O  O346  1  0.19259743  0.75098441  0.56167242  1
  O  O347  1  0.19385145  0.75037647  0.81124004  1
  O  O348  1  0.69134886  0.08410888  0.06273910  1
  O  O349  1  0.69130016  0.08323985  0.31268787  1
  O  O350  1  0.69232176  0.08307159  0.56263865  1
  O  O351  1  0.69181279  0.08290813  0.81272023  1
  O  O352  1  0.69286693  0.41578180  0.06208335  1
  O  O353  1  0.69021215  0.41691760  0.31260372  1
  O  O354  1  0.69366850  0.41686066  0.56074308  1
  O  O355  1  0.69444963  0.41679992  0.81201717  1
  O  O356  1  0.69334914  0.75049593  0.06163134  1
  O  O357  1  0.69383615  0.75000817  0.31200424  1
  O  O358  1  0.69477678  0.75058904  0.56182470  1
  O  O359  1  0.69404385  0.74972478  0.81184297  1
  O  O360  1  0.30912156  0.24876366  0.18726756  1
  O  O361  1  0.30661027  0.24949196  0.43845053  1
  O  O362  1  0.30740649  0.24894710  0.68843886  1
  O  O363  1  0.30643798  0.24932389  0.93864772  1
  O  O364  1  0.30616185  0.58346165  0.18936214  1
  O  O365  1  0.30961094  0.58356433  0.43762659  1
  O  O366  1  0.30906633  0.58367994  0.68692260  1
  O  O367  1  0.30591374  0.58331892  0.93793154  1
  O  O368  1  0.30698542  0.91776923  0.18930674  1
  O  O369  1  0.30959212  0.91715938  0.43770897  1
  O  O370  1  0.30989006  0.91771396  0.68760408  1
  O  O371  1  0.30889557  0.91757803  0.93719262  1
  O  O372  1  0.80842837  0.24991330  0.18682064  1
  O  O373  1  0.80620408  0.24945840  0.43804555  1
  O  O374  1  0.80758680  0.25008272  0.68757371  1
  O  O375  1  0.80780205  0.25010637  0.93787458  1
  O  O376  1  0.80554778  0.58318681  0.18838140  1
  O  O377  1  0.80672533  0.58324735  0.43751506  1
  O  O378  1  0.80592409  0.58299153  0.68873342  1
  O  O379  1  0.80916041  0.58281204  0.93772020  1
  O  O380  1  0.80631071  0.91718628  0.18882724  1
  O  O381  1  0.80915293  0.91669104  0.43712424  1
  O  O382  1  0.80742742  0.91716561  0.68686194  1
  O  O383  1  0.80524835  0.91701947  0.93846318  1
  O  O384  1  0.23259864  0.24980538  0.04021421  1
  O  O385  1  0.23550405  0.24963547  0.28842016  1
  O  O386  1  0.23356498  0.25000157  0.54039805  1
  O  O387  1  0.23327995  0.24933700  0.78936222  1
  O  O388  1  0.23381217  0.58313279  0.04061923  1
  O  O389  1  0.23287135  0.58324947  0.29070928  1
  O  O390  1  0.23562608  0.58333536  0.53856539  1
  O  O391  1  0.23446986  0.58366748  0.78772604  1
  O  O392  1  0.23357625  0.91727574  0.03767175  1
  O  O393  1  0.23311227  0.91725196  0.29022170  1
  O  O394  1  0.23346320  0.91717878  0.53699566  1
  O  O395  1  0.23438068  0.91694210  0.78759144  1
  O  O396  1  0.73313066  0.24917995  0.03862495  1
  O  O397  1  0.73438482  0.24848687  0.28763501  1
  O  O398  1  0.73259626  0.24980284  0.53935482  1
  O  O399  1  0.73349663  0.24936820  0.78830886  1
  O  O400  1  0.73444198  0.58340699  0.03806836  1
  O  O401  1  0.73139858  0.58381123  0.28950192  1
  O  O402  1  0.73372722  0.58369971  0.53943367  1
  O  O403  1  0.73278599  0.58318054  0.79049937  1
  O  O404  1  0.73139025  0.91803034  0.03947896  1
  O  O405  1  0.73296493  0.91671003  0.29017308  1
  O  O406  1  0.73437970  0.91754904  0.53769033  1
  O  O407  1  0.73281359  0.91682877  0.78759365  1
  O  O408  1  0.26696602  0.08255463  0.21287277  1
  O  O409  1  0.26519050  0.08323526  0.46010011  1
  O  O410  1  0.26612730  0.08266908  0.70946783  1
  O  O411  1  0.26625767  0.08353256  0.95977909  1
  O  O412  1  0.26735312  0.41658732  0.21320745  1
  O  O413  1  0.26773251  0.41636572  0.46076215  1
  O  O414  1  0.26483886  0.41640939  0.71245505  1
  O  O415  1  0.26711960  0.41605458  0.95948763  1
  O  O416  1  0.26518029  0.75106350  0.21266375  1
  O  O417  1  0.26540215  0.75082176  0.46004236  1
  O  O418  1  0.26630096  0.75144833  0.70899415  1
  O  O419  1  0.26818761  0.75071794  0.95966403  1
  O  O420  1  0.76602106  0.08287546  0.21226685  1
  O  O421  1  0.76647859  0.08267297  0.46180639  1
  O  O422  1  0.76605289  0.08388140  0.71202300  1
  O  O423  1  0.76550447  0.08339497  0.96163028  1
  O  O424  1  0.76462306  0.41679983  0.21163434  1
  O  O425  1  0.76545630  0.41599741  0.45816116  1
  O  O426  1  0.76804948  0.41683591  0.71059769  1
  O  O427  1  0.76614103  0.41542818  0.96051770  1
  O  O428  1  0.76580398  0.75065175  0.20930326  1
  O  O429  1  0.76842694  0.75071840  0.46043629  1
  O  O430  1  0.76795776  0.75004507  0.71068732  1
  O  O431  1  0.76609502  0.75080826  0.95965414  1
  O  O432  1  0.01423060  0.08343239  0.16300006  1
  O  O433  1  0.01552194  0.08286779  0.41281599  1
  O  O434  1  0.01302967  0.08309853  0.66437431  1
  O  O435  1  0.01356940  0.08349345  0.91302530  1
  O  O436  1  0.01678356  0.41542873  0.16492387  1
  O  O437  1  0.01884135  0.41656196  0.41398588  1
  O  O438  1  0.01442446  0.41582475  0.66583925  1
  O  O439  1  0.01594455  0.41645850  0.91284819  1
  O  O440  1  0.01713094  0.75097299  0.16472133  1
  O  O441  1  0.01774615  0.75108575  0.41455354  1
  O  O442  1  0.01388085  0.75033211  0.66398076  1
  O  O443  1  0.01526557  0.74983544  0.91298958  1
  O  O444  1  0.51766844  0.08401355  0.16532157  1
  O  O445  1  0.51793436  0.08258083  0.41260938  1
  O  O446  1  0.51940321  0.08248528  0.66387610  1
  O  O447  1  0.51891047  0.08261152  0.91432019  1
  O  O448  1  0.51371070  0.41585314  0.16336525  1
  O  O449  1  0.51629898  0.41662272  0.41315308  1
  O  O450  1  0.51583757  0.41653954  0.66318032  1
  O  O451  1  0.51600446  0.41636251  0.91587601  1
  O  O452  1  0.51502941  0.75090779  0.16305316  1
  O  O453  1  0.51646954  0.74980254  0.41571139  1
  O  O454  1  0.51656663  0.75106010  0.66493572  1
  O  O455  1  0.51583162  0.75037383  0.91631141  1
  O  O456  1  0.48242774  0.24888459  0.08488584  1
  O  O457  1  0.48518936  0.25015732  0.33750045  1
  O  O458  1  0.48653644  0.24926624  0.58639938  1
  O  O459  1  0.48591163  0.24954581  0.83578047  1
  O  O460  1  0.48381917  0.58276270  0.08716589  1
  O  O461  1  0.48180981  0.58351495  0.33480996  1
  O  O462  1  0.48334755  0.58323465  0.58812309  1
  O  O463  1  0.48386223  0.58358121  0.83408089  1
  O  O464  1  0.48558251  0.91769019  0.08711295  1
  O  O465  1  0.48449149  0.91713490  0.33725031  1
  O  O466  1  0.48507836  0.91684453  0.58681136  1
  O  O467  1  0.48458829  0.91719344  0.83665030  1
  O  O468  1  0.98233993  0.24972346  0.08493505  1
  O  O469  1  0.98403144  0.24941538  0.33431904  1
  O  O470  1  0.98004302  0.24942185  0.58543503  1
  O  O471  1  0.98180800  0.24993976  0.83819281  1
  O  O472  1  0.98510345  0.58294047  0.08718031  1
  O  O473  1  0.98509817  0.58382081  0.33372163  1
  O  O474  1  0.98289273  0.58350321  0.58467499  1
  O  O475  1  0.98174982  0.58279803  0.83526062  1
  O  O476  1  0.98506870  0.91722565  0.08605175  1
  O  O477  1  0.98351308  0.91712725  0.33661412  1
  O  O478  1  0.98264822  0.91726898  0.58758733  1
  O  O479  1  0.98472889  0.91679563  0.83711434  1
  O  O480  1  0.08674317  0.31411403  0.07611578  1
  O  O481  1  0.08811276  0.31422046  0.32789402  1
  O  O482  1  0.08413214  0.31431499  0.57760014  1
  O  O483  1  0.08524165  0.31551185  0.82787241  1
  O  O484  1  0.08837615  0.64825974  0.07725954  1
  O  O485  1  0.08905301  0.64880960  0.32775752  1
  O  O486  1  0.08680736  0.64837432  0.57750035  1
  O  O487  1  0.08554319  0.64767423  0.82686400  1
  O  O488  1  0.08872227  0.98232907  0.07691813  1
  O  O489  1  0.08712274  0.98248407  0.32744899  1
  O  O490  1  0.08636394  0.98202810  0.57710110  1
  O  O491  1  0.08818168  0.98191723  0.82682468  1
  O  O492  1  0.58643090  0.31375261  0.07648550  1
  O  O493  1  0.58859052  0.31507126  0.32862332  1
  O  O494  1  0.59027157  0.31398058  0.57721068  1
  O  O495  1  0.58991363  0.31382615  0.82705949  1
  O  O496  1  0.58702671  0.64833637  0.07760072  1
  O  O497  1  0.58630726  0.64745670  0.32673019  1
  O  O498  1  0.58653934  0.64859660  0.57724630  1
  O  O499  1  0.58801245  0.64815355  0.82662883  1
  O  O500  1  0.58887853  0.98366422  0.07870786  1
  O  O501  1  0.58853022  0.98195958  0.32783956  1
  O  O502  1  0.58890811  0.98220886  0.57734453  1
  O  O503  1  0.58861013  0.98224733  0.82755529  1
  O  O504  1  0.41363411  0.01935985  0.17414917  1
  O  O505  1  0.41442947  0.01716991  0.42258719  1
  O  O506  1  0.41568949  0.01700134  0.67224160  1
  O  O507  1  0.41522247  0.01719242  0.92258277  1
  O  O508  1  0.41082090  0.34931723  0.17196813  1
  O  O509  1  0.41230107  0.35254044  0.42327839  1
  O  O510  1  0.41245900  0.35148416  0.67213668  1
  O  O511  1  0.41201555  0.35137845  0.92292386  1
  O  O512  1  0.41156667  0.68559944  0.17231384  1
  O  O513  1  0.41223274  0.68560624  0.42161593  1
  O  O514  1  0.41288688  0.68587322  0.67207616  1
  O  O515  1  0.41116089  0.68696696  0.92305568  1
  O  O516  1  0.91029136  0.01939711  0.17276880  1
  O  O517  1  0.91209604  0.01698437  0.42224971  1
  O  O518  1  0.90940041  0.01798264  0.67227492  1
  O  O519  1  0.90987349  0.01884230  0.92303439  1
  O  O520  1  0.91293493  0.35008404  0.17216770  1
  O  O521  1  0.91462642  0.35209109  0.42211933  1
  O  O522  1  0.91059719  0.35035200  0.67256682  1
  O  O523  1  0.91218228  0.35167783  0.92216083  1
  O  O524  1  0.91365882  0.68550711  0.17292332  1
  O  O525  1  0.91367462  0.68620717  0.42275111  1
  O  O526  1  0.90958081  0.68657908  0.67244029  1
  O  O527  1  0.91195467  0.68400257  0.92148865  1
  O  O528  1  0.16336943  0.01709467  0.20341193  1
  O  O529  1  0.16141014  0.01745247  0.45218265  1
  O  O530  1  0.16255545  0.01698384  0.70262451  1
  O  O531  1  0.16221702  0.01890851  0.95278702  1
  O  O532  1  0.16366941  0.35225974  0.20280041  1
  O  O533  1  0.16372860  0.35127084  0.45185437  1
  O  O534  1  0.16139652  0.35125266  0.70269132  1
  O  O535  1  0.16320094  0.35000851  0.95224964  1
  O  O536  1  0.16208409  0.68542506  0.20412764  1
  O  O537  1  0.16123716  0.68650442  0.45245504  1
  O  O538  1  0.16253435  0.68644134  0.70191791  1
  O  O539  1  0.16436762  0.68580021  0.95200868  1
  O  O540  1  0.66262397  0.01684238  0.20333033  1
  O  O541  1  0.66241103  0.01826605  0.45278292  1
  O  O542  1  0.66274631  0.01812417  0.70238856  1
  O  O543  1  0.66154508  0.01890459  0.95286928  1
  O  O544  1  0.66093328  0.35240326  0.20279780  1
  O  O545  1  0.66174608  0.35042585  0.45224312  1
  O  O546  1  0.66429205  0.35182107  0.70270297  1
  O  O547  1  0.66262758  0.35000442  0.95310226  1
  O  O548  1  0.66207215  0.68512087  0.20297965  1
  O  O549  1  0.66420663  0.68624197  0.45246339  1
  O  O550  1  0.66448830  0.68438136  0.70239837  1
  O  O551  1  0.66231353  0.68616729  0.95227514  1
  O  O552  1  0.33637218  0.31563506  0.04755483  1
  O  O553  1  0.33932829  0.31419477  0.29669304  1
  O  O554  1  0.33735030  0.31545585  0.54727500  1
  O  O555  1  0.33714728  0.31412682  0.79782413  1
  O  O556  1  0.33741949  0.64848571  0.04700494  1
  O  O557  1  0.33690319  0.64791642  0.29882615  1
  O  O558  1  0.33980552  0.64732406  0.54760981  1
  O  O559  1  0.33799525  0.64872521  0.79661674  1
  O  O560  1  0.33739167  0.98156935  0.04749165  1
  O  O561  1  0.33704260  0.98303632  0.29887119  1
  O  O562  1  0.33739947  0.98195141  0.54806966  1
  O  O563  1  0.33795546  0.98243177  0.79803679  1
  O  O564  1  0.83723843  0.31347627  0.04832577  1
  O  O565  1  0.83752012  0.31396918  0.29718616  1
  O  O566  1  0.83689875  0.31391599  0.54740301  1
  O  O567  1  0.83695259  0.31507177  0.79776364  1
  O  O568  1  0.83811627  0.64827057  0.04738817  1
  O  O569  1  0.83555564  0.64855570  0.29742987  1
  O  O570  1  0.83751663  0.64894491  0.54636905  1
  O  O571  1  0.83686463  0.64823290  0.79791339  1
  O  O572  1  0.83524532  0.98299996  0.04747911  1
  O  O573  1  0.83656084  0.98270768  0.29826912  1
  O  O574  1  0.83822173  0.98203581  0.54700543  1
  O  O575  1  0.83610614  0.98210717  0.79699501  1
  O  O576  1  0.41352499  0.14924407  0.17313728  1
  O  O577  1  0.41434293  0.14725592  0.42300437  1
  O  O578  1  0.41561892  0.14710270  0.67284065  1
  O  O579  1  0.41498411  0.14715984  0.92264374  1
  O  O580  1  0.40950825  0.47946604  0.17293417  1
  O  O581  1  0.41286743  0.48265323  0.42242706  1
  O  O582  1  0.41210461  0.48173178  0.67145777  1
  O  O583  1  0.41201963  0.48135504  0.92293230  1
  O  O584  1  0.41149573  0.81570772  0.17230858  1
  O  O585  1  0.41321158  0.81591641  0.42222257  1
  O  O586  1  0.41300603  0.81626870  0.67180542  1
  O  O587  1  0.41270853  0.81715795  0.92276424  1
  O  O588  1  0.91087021  0.14943074  0.17153529  1
  O  O589  1  0.91122809  0.14683859  0.42238234  1
  O  O590  1  0.90921231  0.14811550  0.67214716  1
  O  O591  1  0.90976797  0.14882154  0.92206668  1
  O  O592  1  0.91305648  0.48031738  0.17311723  1
  O  O593  1  0.91512650  0.48209294  0.42214317  1
  O  O594  1  0.91044193  0.48045993  0.67320528  1
  O  O595  1  0.91263989  0.48194486  0.92217581  1
  O  O596  1  0.91329781  0.81566755  0.17275823  1
  O  O597  1  0.91365793  0.81618798  0.42257600  1
  O  O598  1  0.91078850  0.81672547  0.67230909  1
  O  O599  1  0.91175390  0.81441796  0.92242605  1
  O  O600  1  0.08597053  0.18428263  0.07567562  1
  O  O601  1  0.08742029  0.18385015  0.32763030  1
  O  O602  1  0.08386712  0.18443416  0.57730024  1
  O  O603  1  0.08528389  0.18536368  0.82725873  1
  O  O604  1  0.08857765  0.51799084  0.07765578  1
  O  O605  1  0.08908045  0.51854026  0.32744806  1
  O  O606  1  0.08670144  0.51833914  0.57764138  1
  O  O607  1  0.08552861  0.51742958  0.82749755  1
  O  O608  1  0.08906976  0.85245930  0.07682599  1
  O  O609  1  0.08760882  0.85245816  0.32781582  1
  O  O610  1  0.08641534  0.85219829  0.57716137  1
  O  O611  1  0.08848075  0.85191974  0.82690810  1
  O  O612  1  0.58675320  0.18393770  0.07750970  1
  O  O613  1  0.58854661  0.18480385  0.32838591  1
  O  O614  1  0.59013711  0.18385636  0.57810780  1
  O  O615  1  0.58953439  0.18380539  0.82806313  1
  O  O616  1  0.58738416  0.51813617  0.07787701  1
  O  O617  1  0.58540578  0.51742953  0.32688675  1
  O  O618  1  0.58691373  0.51848248  0.57741961  1
  O  O619  1  0.58770668  0.51824840  0.82644143  1
  O  O620  1  0.58950461  0.85356996  0.07731250  1
  O  O621  1  0.58807548  0.85200932  0.32729901  1
  O  O622  1  0.58906137  0.85234318  0.57669606  1
  O  O623  1  0.58825207  0.85234297  0.82694466  1
  O  O624  1  0.33707599  0.18564676  0.04835878  1
  O  O625  1  0.33881160  0.18390546  0.29716153  1
  O  O626  1  0.33747036  0.18526867  0.54774880  1
  O  O627  1  0.33702757  0.18409523  0.79796116  1
  O  O628  1  0.33748058  0.51806318  0.04673454  1
  O  O629  1  0.33697929  0.51794117  0.29841962  1
  O  O630  1  0.33892689  0.51709983  0.54697826  1
  O  O631  1  0.33796639  0.51863795  0.79685650  1
  O  O632  1  0.33684184  0.85144392  0.04703591  1
  O  O633  1  0.33747630  0.85321089  0.29896631  1
  O  O634  1  0.33728979  0.85205762  0.54787557  1
  O  O635  1  0.33848815  0.85264267  0.79767127  1
  O  O636  1  0.83678951  0.18359573  0.04716245  1
  O  O637  1  0.83809772  0.18376888  0.29615197  1
  O  O638  1  0.83601902  0.18383049  0.54753264  1
  O  O639  1  0.83746980  0.18501486  0.79744090  1
  O  O640  1  0.83772193  0.51803481  0.04781266  1
  O  O641  1  0.83520782  0.51851781  0.29800820  1
  O  O642  1  0.83731928  0.51863717  0.54670813  1
  O  O643  1  0.83678903  0.51817749  0.79822827  1
  O  O644  1  0.83519119  0.85299682  0.04818283  1
  O  O645  1  0.83751717  0.85283303  0.29828221  1
  O  O646  1  0.83795843  0.85197011  0.54722665  1
  O  O647  1  0.83656046  0.85206926  0.79681678  1
  O  O648  1  0.16329066  0.14715297  0.20268705  1
  O  O649  1  0.16086838  0.14744142  0.45186136  1
  O  O650  1  0.16198876  0.14710080  0.70205605  1
  O  O651  1  0.16256339  0.14909764  0.95280342  1
  O  O652  1  0.16408788  0.48246688  0.20348024  1
  O  O653  1  0.16372059  0.48120561  0.45210218  1
  O  O654  1  0.16144352  0.48151253  0.70266074  1
  O  O655  1  0.16265940  0.48004985  0.95154700  1
  O  O656  1  0.16175021  0.81598413  0.20415280  1
  O  O657  1  0.16160679  0.81654217  0.45260463  1
  O  O658  1  0.16248440  0.81667542  0.70270608  1
  O  O659  1  0.16425466  0.81591875  0.95231368  1
  O  O660  1  0.66189000  0.14673993  0.20200985  1
  O  O661  1  0.66296615  0.14829720  0.45263271  1
  O  O662  1  0.66207092  0.14819689  0.70305438  1
  O  O663  1  0.66210373  0.14893427  0.95267650  1
  O  O664  1  0.66126966  0.48272623  0.20315825  1
  O  O665  1  0.66109232  0.48049628  0.45149103  1
  O  O666  1  0.66426329  0.48199685  0.70262008  1
  O  O667  1  0.66245786  0.48022878  0.95256599  1
  O  O668  1  0.66193051  0.81544386  0.20351641  1
  O  O669  1  0.66480518  0.81626244  0.45265115  1
  O  O670  1  0.66405037  0.81463963  0.70240605  1
  O  O671  1  0.66264080  0.81640068  0.95272939  1
