# generated using pymatgen
data_Na2MnFe(PO4)2
_symmetry_space_group_name_H-M   'P 1'
_cell_length_a   21.08669567
_cell_length_b   18.93891338
_cell_length_c   20.04538618
_cell_angle_alpha   89.99990223
_cell_angle_beta   90.00161904
_cell_angle_gamma   89.99995482
_symmetry_Int_Tables_number   1
_chemical_formula_structural   Na2MnFe(PO4)2
_chemical_formula_sum   'Na96 Mn48 Fe48 P96 O384'
_cell_volume   8005.30743798
_cell_formula_units_Z   48
loop_
 _symmetry_equiv_pos_site_id
 _symmetry_equiv_pos_as_xyz
  1  'x, y, z'
loop_
 _atom_site_type_symbol
 _atom_site_label
 _atom_site_symmetry_multiplicity
 _atom_site_fract_x
 _atom_site_fract_y
 _atom_site_fract_z
 _atom_site_occupancy
  Na  Na0  1  0.00089988  0.00006007  -0.00074051  1
  Na  Na1  1  0.00052484  -0.00001809  0.24977708  1
  Na  Na2  1  0.00075872  -0.00031976  0.50092972  1
  Na  Na3  1  0.00239660  0.00059278  0.75019089  1
  Na  Na4  1  0.00098443  0.33404989  -0.00014311  1
  Na  Na5  1  0.00126114  0.33403312  0.24914943  1
  Na  Na6  1  0.00177144  0.33431856  0.49987078  1
  Na  Na7  1  0.00008857  0.33334980  0.75072851  1
  Na  Na8  1  0.00129895  0.66662958  -0.00060685  1
  Na  Na9  1  0.00143322  0.66709187  0.24986232  1
  Na  Na10  1  0.00019658  0.66621213  0.50082106  1
  Na  Na11  1  0.00070635  0.66671794  0.75055640  1
  Na  Na12  1  0.50156688  -0.00027859  -0.00021572  1
  Na  Na13  1  0.50141584  0.00027599  0.25053686  1
  Na  Na14  1  0.50120891  -0.00002334  0.50048460  1
  Na  Na15  1  0.50151289  -0.00013897  0.74940464  1
  Na  Na16  1  0.50058863  0.33433110  -0.00117227  1
  Na  Na17  1  0.49833872  0.33372067  0.25089581  1
  Na  Na18  1  0.49816654  0.33329193  0.50034086  1
  Na  Na19  1  0.49872964  0.33316993  0.74951687  1
  Na  Na20  1  0.50069258  0.66667964  -0.00085816  1
  Na  Na21  1  0.49745816  0.66561258  0.24975700  1
  Na  Na22  1  0.49842037  0.66623779  0.50008577  1
  Na  Na23  1  0.50029645  0.66683959  0.75080020  1
  Na  Na24  1  0.24753686  -0.00088075  0.12400173  1
  Na  Na25  1  0.25093076  0.00082773  0.37490500  1
  Na  Na26  1  0.24761815  -0.00140289  0.62563181  1
  Na  Na27  1  0.24916920  0.00012897  0.87538252  1
  Na  Na28  1  0.24892467  0.33401412  0.12547469  1
  Na  Na29  1  0.25139120  0.33430793  0.37550137  1
  Na  Na30  1  0.25240162  0.33434319  0.62510148  1
  Na  Na31  1  0.24846574  0.33324492  0.87450385  1
  Na  Na32  1  0.24771942  0.66585487  0.12459092  1
  Na  Na33  1  0.24978780  0.66692460  0.37486334  1
  Na  Na34  1  0.25005415  0.66661125  0.62481106  1
  Na  Na35  1  0.24945165  0.66671692  0.87609389  1
  Na  Na36  1  0.74867876  -0.00124305  0.12556641  1
  Na  Na37  1  0.75067471  0.00050014  0.37555366  1
  Na  Na38  1  0.74638830  -0.00146519  0.62399194  1
  Na  Na39  1  0.74997373  0.00049502  0.87503269  1
  Na  Na40  1  0.75118665  0.33438142  0.12606709  1
  Na  Na41  1  0.74760640  0.33240964  0.37353443  1
  Na  Na42  1  0.74865603  0.33327692  0.62472177  1
  Na  Na43  1  0.74970485  0.33344211  0.87516905  1
  Na  Na44  1  0.75239883  0.66656062  0.12552417  1
  Na  Na45  1  0.75285240  0.66701947  0.37551533  1
  Na  Na46  1  0.74908251  0.66604333  0.62330685  1
  Na  Na47  1  0.74926900  0.66609094  0.87533055  1
  Na  Na48  1  -0.00107741  0.16705673  -0.00041240  1
  Na  Na49  1  0.00087202  0.16636238  0.24948620  1
  Na  Na50  1  -0.00020415  0.16703123  0.49954200  1
  Na  Na51  1  -0.00041173  0.16690121  0.75109863  1
  Na  Na52  1  0.00143783  0.49986912  0.00043009  1
  Na  Na53  1  0.00126606  0.50013702  0.24879083  1
  Na  Na54  1  0.00128525  0.50012064  0.50117083  1
  Na  Na55  1  0.00299035  0.49898013  0.75029865  1
  Na  Na56  1  0.00342674  0.83148685  -0.00121321  1
  Na  Na57  1  -0.00001124  0.83369296  0.25016048  1
  Na  Na58  1  0.00191368  0.83266100  0.50068770  1
  Na  Na59  1  0.00009737  0.83387545  0.75012227  1
  Na  Na60  1  0.50193120  0.16627092  -0.00064130  1
  Na  Na61  1  0.49887968  0.16737082  0.25115822  1
  Na  Na62  1  0.49829966  0.16765302  0.50053704  1
  Na  Na63  1  0.50180202  0.16598847  0.74931722  1
  Na  Na64  1  0.50095003  0.49964490  -0.00081070  1
  Na  Na65  1  0.49987330  0.49945505  0.24945064  1
  Na  Na66  1  0.49845562  0.50018811  0.50080642  1
  Na  Na67  1  0.49907262  0.50057409  0.74972960  1
  Na  Na68  1  0.50086905  0.83270241  -0.00066975  1
  Na  Na69  1  0.49812201  0.83390601  0.25055107  1
  Na  Na70  1  0.50190754  0.83184384  0.49973706  1
  Na  Na71  1  0.49996578  0.83369141  0.75069787  1
  Na  Na72  1  0.24794033  0.16774993  0.12501574  1
  Na  Na73  1  0.25209298  0.16616063  0.37569053  1
  Na  Na74  1  0.25180799  0.16601072  0.62445596  1
  Na  Na75  1  0.24898820  0.16722523  0.87442980  1
  Na  Na76  1  0.24741298  0.50056869  0.12447948  1
  Na  Na77  1  0.25072464  0.49915800  0.37549726  1
  Na  Na78  1  0.24955514  0.50006925  0.62479760  1
  Na  Na79  1  0.24838640  0.49990594  0.87564567  1
  Na  Na80  1  0.24860892  0.83293985  0.12454414  1
  Na  Na81  1  0.24838832  0.83372276  0.37446709  1
  Na  Na82  1  0.24977272  0.83304570  0.62580462  1
  Na  Na83  1  0.24879768  0.83367432  0.87623352  1
  Na  Na84  1  0.75196794  0.16597540  0.12529981  1
  Na  Na85  1  0.74978367  0.16703727  0.37484484  1
  Na  Na86  1  0.74808736  0.16772148  0.62498180  1
  Na  Na87  1  0.74997777  0.16695846  0.87510094  1
  Na  Na88  1  0.75010859  0.50036495  0.12649872  1
  Na  Na89  1  0.75014655  0.49991331  0.37373915  1
  Na  Na90  1  0.74841951  0.50060527  0.62331017  1
  Na  Na91  1  0.75025933  0.50018421  0.87571153  1
  Na  Na92  1  0.75127281  0.83289295  0.12513997  1
  Na  Na93  1  0.75097354  0.83304772  0.37582427  1
  Na  Na94  1  0.74819967  0.83353208  0.62371145  1
  Na  Na95  1  0.74798030  0.83375097  0.87494426  1
  Mn  Mn96  1  0.35745175  0.08376578  0.00244177  1
  Mn  Mn97  1  0.14268789  0.25046147  0.24798434  1
  Mn  Mn98  1  0.60698704  0.08410589  0.37301704  1
  Mn  Mn99  1  0.64291673  0.91589737  0.24826498  1
  Mn  Mn100  1  0.64146460  0.24981447  0.24708152  1
  Mn  Mn101  1  0.85843759  0.41692561  0.25264219  1
  Mn  Mn102  1  0.64319649  0.25042478  0.99864484  1
  Mn  Mn103  1  0.14316020  0.24940062  0.49820835  1
  Mn  Mn104  1  0.85790109  0.41596656  0.50122226  1
  Mn  Mn105  1  0.89259601  0.25060277  0.37772020  1
  Mn  Mn106  1  0.60817937  0.74950563  0.12351878  1
  Mn  Mn107  1  0.85851786  0.08249006  0.25200277  1
  Mn  Mn108  1  0.35652752  0.41649571  0.00201092  1
  Mn  Mn109  1  0.39163976  0.91662308  0.37766084  1
  Mn  Mn110  1  0.39190251  0.58367957  0.62825759  1
  Mn  Mn111  1  0.39218133  0.24966145  0.87742743  1
  Mn  Mn112  1  0.60754007  0.74860717  0.37182332  1
  Mn  Mn113  1  0.60704632  0.41686747  0.62254442  1
  Mn  Mn114  1  0.85686126  0.08248733  0.75096429  1
  Mn  Mn115  1  0.14250448  0.58372157  0.49731103  1
  Mn  Mn116  1  0.39156603  0.58308371  0.12665149  1
  Mn  Mn117  1  0.10829059  0.08354938  0.37287646  1
  Mn  Mn118  1  0.39186637  0.24990196  0.12645868  1
  Mn  Mn119  1  0.89210156  0.91629291  0.87652525  1
  Mn  Mn120  1  0.35737653  0.75082487  0.50230657  1
  Mn  Mn121  1  0.60857284  0.08342343  0.87272755  1
  Mn  Mn122  1  0.85826677  0.74989579  0.00193440  1
  Mn  Mn123  1  0.39265294  0.91673315  0.62723250  1
  Mn  Mn124  1  0.35789805  0.08333495  0.25124788  1
  Mn  Mn125  1  0.14231639  0.25003620  0.74645116  1
  Mn  Mn126  1  0.85748180  0.08400113  0.50267097  1
  Mn  Mn127  1  0.39226710  0.91701517  0.12651156  1
  Mn  Mn128  1  0.64178745  0.58286887  0.49657643  1
  Mn  Mn129  1  0.85814196  0.75019354  0.50231858  1
  Mn  Mn130  1  0.89257427  0.58326530  0.87659250  1
  Mn  Mn131  1  0.89284984  0.91639005  0.12643849  1
  Mn  Mn132  1  0.60779284  0.74964803  0.87257476  1
  Mn  Mn133  1  0.85771674  0.41757499  0.75166248  1
  Mn  Mn134  1  0.89240767  0.91734617  0.62758466  1
  Mn  Mn135  1  0.89259477  0.58257851  0.62783232  1
  Mn  Mn136  1  0.14161467  0.91641432  0.24749038  1
  Mn  Mn137  1  0.89181152  0.25052211  0.87720625  1
  Mn  Mn138  1  0.64247809  0.58398502  0.24802673  1
  Mn  Mn139  1  0.35782694  0.08258603  0.75235253  1
  Mn  Mn140  1  0.60810372  0.41684103  0.87265195  1
  Mn  Mn141  1  0.35656182  0.74990326  0.00233351  1
  Mn  Mn142  1  0.10745965  0.08343080  0.87250028  1
  Mn  Mn143  1  0.10822665  0.75027996  0.62346243  1
  Fe  Fe144  1  0.10795815  0.41554826  0.62340188  1
  Fe  Fe145  1  0.85796776  0.41681174  0.00221529  1
  Fe  Fe146  1  0.10773829  0.74939807  0.87204976  1
  Fe  Fe147  1  0.39230355  0.25052528  0.37724979  1
  Fe  Fe148  1  0.10715288  0.74954462  0.37307134  1
  Fe  Fe149  1  0.10731575  0.75004908  0.12343847  1
  Fe  Fe150  1  0.60553859  0.41703512  0.37356735  1
  Fe  Fe151  1  0.10716497  0.41683201  0.87301082  1
  Fe  Fe152  1  0.35708955  0.41758744  0.25152106  1
  Fe  Fe153  1  0.14252426  0.58323280  0.24875668  1
  Fe  Fe154  1  0.64273085  0.91616799  0.99871691  1
  Fe  Fe155  1  0.10844563  0.41714844  0.37327453  1
  Fe  Fe156  1  0.35620409  0.74937600  0.25115974  1
  Fe  Fe157  1  0.64174473  0.25022589  0.49816891  1
  Fe  Fe158  1  0.39335768  0.24961552  0.62701879  1
  Fe  Fe159  1  0.35745757  0.74974676  0.75202783  1
  Fe  Fe160  1  0.85941521  0.75006767  0.25195258  1
  Fe  Fe161  1  0.39231421  0.58369284  0.87678033  1
  Fe  Fe162  1  0.89434109  0.58328348  0.37608797  1
  Fe  Fe163  1  0.35741560  0.08295987  0.50245246  1
  Fe  Fe164  1  0.10762414  0.08441228  0.62324924  1
  Fe  Fe165  1  0.35651930  0.41754586  0.75220097  1
  Fe  Fe166  1  0.60729272  0.41649332  0.12338572  1
  Fe  Fe167  1  0.35718768  0.41649993  0.50200319  1
  Fe  Fe168  1  0.14366267  0.58362338  0.74891126  1
  Fe  Fe169  1  0.60732236  0.75007162  0.62383183  1
  Fe  Fe170  1  0.89237087  0.25013479  0.62608560  1
  Fe  Fe171  1  0.14331582  0.91615824  0.74854901  1
  Fe  Fe172  1  0.14137617  0.24986506  0.99828359  1
  Fe  Fe173  1  0.85729488  0.08344656  0.00209676  1
  Fe  Fe174  1  0.14216972  0.91702768  0.99754020  1
  Fe  Fe175  1  0.60720147  0.08327159  0.62271888  1
  Fe  Fe176  1  0.39260532  0.91656454  0.87684753  1
  Fe  Fe177  1  0.60816821  0.08377088  0.12334205  1
  Fe  Fe178  1  0.64269860  0.91684853  0.49755525  1
  Fe  Fe179  1  0.39141127  0.58287259  0.37592871  1
  Fe  Fe180  1  0.14163675  0.58320933  0.99749761  1
  Fe  Fe181  1  0.10723485  0.08355739  0.12249253  1
  Fe  Fe182  1  0.64237204  0.25038577  0.74748091  1
  Fe  Fe183  1  0.64210348  0.58360177  0.74843571  1
  Fe  Fe184  1  0.89347077  0.91616320  0.37717174  1
  Fe  Fe185  1  0.14261918  0.91701622  0.49843958  1
  Fe  Fe186  1  0.64335891  0.58340394  0.99901674  1
  Fe  Fe187  1  0.64196386  0.91613735  0.74800242  1
  Fe  Fe188  1  0.89384962  0.58307915  0.12642305  1
  Fe  Fe189  1  0.89360984  0.25035655  0.12608272  1
  Fe  Fe190  1  0.85631639  0.74994550  0.75097642  1
  Fe  Fe191  1  0.10732720  0.41639268  0.12308134  1
  P  P192  1  0.05322107  0.25010782  0.10961725  1
  P  P193  1  0.05382392  0.25086274  0.35992972  1
  P  P194  1  0.05242238  0.24984321  0.61004339  1
  P  P195  1  0.05434682  0.25089800  0.86086206  1
  P  P196  1  0.05459580  0.58342349  0.11092122  1
  P  P197  1  0.05373865  0.58342066  0.35964307  1
  P  P198  1  0.05551245  0.58267661  0.61182592  1
  P  P199  1  0.05545879  0.58306203  0.86044892  1
  P  P200  1  0.05412403  0.91645070  0.10913259  1
  P  P201  1  0.05369852  0.91597341  0.36145301  1
  P  P202  1  0.05566592  0.91753463  0.61100990  1
  P  P203  1  0.05529870  0.91577103  0.86005523  1
  P  P204  1  0.55304831  0.25062365  0.10991428  1
  P  P205  1  0.55262173  0.25133123  0.36153863  1
  P  P206  1  0.55394445  0.24974885  0.61042409  1
  P  P207  1  0.55439062  0.25035963  0.85909973  1
  P  P208  1  0.55376886  0.58253977  0.10929594  1
  P  P209  1  0.55122663  0.58218138  0.35974278  1
  P  P210  1  0.55431977  0.58443054  0.61111785  1
  P  P211  1  0.55389606  0.58321244  0.86058059  1
  P  P212  1  0.55430754  0.91679871  0.10961468  1
  P  P213  1  0.55416982  0.91646170  0.36104792  1
  P  P214  1  0.55545254  0.91593455  0.61057034  1
  P  P215  1  0.55424158  0.91638968  0.86057129  1
  P  P216  1  0.44862761  0.08336976  0.13976597  1
  P  P217  1  0.44529288  0.08389205  0.39096919  1
  P  P218  1  0.44689013  0.08348321  0.63885160  1
  P  P219  1  0.44682532  0.08217298  0.88990920  1
  P  P220  1  0.44676323  0.41670282  0.14001265  1
  P  P221  1  0.44474445  0.41736868  0.38942976  1
  P  P222  1  0.44426471  0.41604728  0.63968892  1
  P  P223  1  0.44497445  0.41786519  0.88863386  1
  P  P224  1  0.44580902  0.74991421  0.14032467  1
  P  P225  1  0.44465096  0.74878686  0.38870690  1
  P  P226  1  0.44716883  0.75040389  0.64103997  1
  P  P227  1  0.44472034  0.74995395  0.88879276  1
  P  P228  1  0.94694398  0.08378494  0.13829477  1
  P  P229  1  0.94690688  0.08241618  0.39029343  1
  P  P230  1  0.94807239  0.08438155  0.64010384  1
  P  P231  1  0.94526493  0.08297665  0.89025523  1
  P  P232  1  0.94684337  0.41672135  0.13845256  1
  P  P233  1  0.94901916  0.41799252  0.38976894  1
  P  P234  1  0.94816538  0.41562777  0.63995409  1
  P  P235  1  0.94716582  0.41729626  0.89060146  1
  P  P236  1  0.94788862  0.74922899  0.13983174  1
  P  P237  1  0.94729349  0.74962941  0.38909436  1
  P  P238  1  0.94619182  0.75010663  0.64115612  1
  P  P239  1  0.94682969  0.74980152  0.88826557  1
  P  P240  1  0.19610670  0.08350889  0.23408552  1
  P  P241  1  0.19701901  0.08286338  0.48638311  1
  P  P242  1  0.19614693  0.08267809  0.73433782  1
  P  P243  1  0.19483830  0.08382954  0.98587257  1
  P  P244  1  0.19588109  0.41778881  0.23579146  1
  P  P245  1  0.19638912  0.41616029  0.48580648  1
  P  P246  1  0.19614437  0.41763908  0.73562703  1
  P  P247  1  0.19362442  0.41627372  0.98563129  1
  P  P248  1  0.19549005  0.74879227  0.23561343  1
  P  P249  1  0.19575515  0.75102935  0.48447526  1
  P  P250  1  0.19720822  0.74959431  0.73671803  1
  P  P251  1  0.19349810  0.74988402  0.98580340  1
  P  P252  1  0.69622447  0.08316880  0.23467606  1
  P  P253  1  0.69477598  0.08391262  0.48604566  1
  P  P254  1  0.69540350  0.08327011  0.73413506  1
  P  P255  1  0.69685786  0.08301925  0.98652077  1
  P  P256  1  0.69463012  0.41703318  0.23575574  1
  P  P257  1  0.69546558  0.41566564  0.48343467  1
  P  P258  1  0.69640613  0.41727040  0.73472770  1
  P  P259  1  0.69708723  0.41765153  0.98679249  1
  P  P260  1  0.69931953  0.74964415  0.23525108  1
  P  P261  1  0.69513549  0.75034062  0.48560465  1
  P  P262  1  0.69670873  0.74960828  0.73425110  1
  P  P263  1  0.69660305  0.74935475  0.98546552  1
  P  P264  1  0.30103445  0.25030411  0.01491410  1
  P  P265  1  0.30419203  0.25123976  0.26547377  1
  P  P266  1  0.30594810  0.25010517  0.51459471  1
  P  P267  1  0.30465491  0.25054915  0.76366865  1
  P  P268  1  0.30202953  0.58310945  0.01377330  1
  P  P269  1  0.30218076  0.58311396  0.26488388  1
  P  P270  1  0.30452209  0.58280436  0.51394517  1
  P  P271  1  0.30282598  0.58339175  0.76587016  1
  P  P272  1  0.30260124  0.91669601  0.01379413  1
  P  P273  1  0.30297839  0.91594025  0.26447609  1
  P  P274  1  0.30194298  0.91729124  0.51545302  1
  P  P275  1  0.30299536  0.91572964  0.76581382  1
  P  P276  1  0.80460266  0.25050312  0.01577886  1
  P  P277  1  0.80477465  0.24993496  0.26385690  1
  P  P278  1  0.80209301  0.25042547  0.51539504  1
  P  P279  1  0.80306967  0.25008842  0.76344518  1
  P  P280  1  0.80375033  0.58251693  0.01573289  1
  P  P281  1  0.80638926  0.58410853  0.26451563  1
  P  P282  1  0.80509088  0.58263034  0.51332272  1
  P  P283  1  0.80177187  0.58425317  0.76454341  1
  P  P284  1  0.80231831  0.91710488  0.01463790  1
  P  P285  1  0.80509599  0.91557761  0.26592886  1
  P  P286  1  0.80368208  0.91687736  0.51399243  1
  P  P287  1  0.80143877  0.91567657  0.76431078  1
  O  O288  1  0.05675275  0.25008633  0.18631594  1
  O  O289  1  0.05715404  0.25029917  0.43666747  1
  O  O290  1  0.05576568  0.24976885  0.68679113  1
  O  O291  1  0.05801594  0.25004404  0.93756878  1
  O  O292  1  0.05884765  0.58344945  0.18760998  1
  O  O293  1  0.05678638  0.58331545  0.43641510  1
  O  O294  1  0.05984747  0.58353521  0.68853022  1
  O  O295  1  0.05850822  0.58335006  0.93731268  1
  O  O296  1  0.05638119  0.91664007  0.18601130  1
  O  O297  1  0.05838300  0.91672622  0.43812449  1
  O  O298  1  0.05995396  0.91641781  0.68776697  1
  O  O299  1  0.05903635  0.91645832  0.93682929  1
  O  O300  1  0.55499224  0.25063093  0.18675580  1
  O  O301  1  0.55719825  0.25059334  0.43818022  1
  O  O302  1  0.55873104  0.25045993  0.68712198  1
  O  O303  1  0.55822833  0.25066271  0.93585032  1
  O  O304  1  0.55669946  0.58356257  0.18607073  1
  O  O305  1  0.55506347  0.58313678  0.43644802  1
  O  O306  1  0.55858750  0.58379492  0.68786885  1
  O  O307  1  0.55924428  0.58308935  0.93716790  1
  O  O308  1  0.55706580  0.91600216  0.18643704  1
  O  O309  1  0.55864361  0.91620925  0.43781541  1
  O  O310  1  0.55893537  0.91597829  0.68745799  1
  O  O311  1  0.55954122  0.91626404  0.93721840  1
  O  O312  1  0.44438332  0.08334843  0.06307184  1
  O  O313  1  0.44255791  0.08293933  0.31414706  1
  O  O314  1  0.44171916  0.08255819  0.56224889  1
  O  O315  1  0.44370097  0.08261383  0.81311706  1
  O  O316  1  0.44268383  0.41692804  0.06328412  1
  O  O317  1  0.44066432  0.41755480  0.31269078  1
  O  O318  1  0.44052930  0.41700337  0.56289419  1
  O  O319  1  0.44062384  0.41757567  0.81190949  1
  O  O320  1  0.44261899  0.74974051  0.06349693  1
  O  O321  1  0.43987040  0.74958869  0.31199950  1
  O  O322  1  0.44305899  0.75028468  0.56432068  1
  O  O323  1  0.44069492  0.74996898  0.81204982  1
  O  O324  1  0.94178433  0.08289975  0.06164360  1
  O  O325  1  0.94409375  0.08281748  0.31347661  1
  O  O326  1  0.94414747  0.08356576  0.56341425  1
  O  O327  1  0.94186524  0.08280528  0.81347617  1
  O  O328  1  0.94228535  0.41696550  0.06181503  1
  O  O329  1  0.94518807  0.41724613  0.31307352  1
  O  O330  1  0.94416598  0.41653677  0.56332012  1
  O  O331  1  0.94309295  0.41731610  0.81387717  1
  O  O332  1  0.94434627  0.74962894  0.06307880  1
  O  O333  1  0.94340870  0.75013277  0.31236995  1
  O  O334  1  0.94316827  0.75007684  0.56432740  1
  O  O335  1  0.94084826  0.75006239  0.81174610  1
  O  O336  1  0.19084954  0.08387650  0.06264907  1
  O  O337  1  0.19353486  0.08362952  0.31094482  1
  O  O338  1  0.19196726  0.08384103  0.56298965  1
  O  O339  1  0.19294836  0.08400798  0.81111154  1
  O  O340  1  0.18998573  0.41639062  0.06252759  1
  O  O341  1  0.19160431  0.41702545  0.31254540  1
  O  O342  1  0.19148647  0.41599955  0.56249590  1
  O  O343  1  0.19142523  0.41645690  0.81229571  1
  O  O344  1  0.18987054  0.74965355  0.06266656  1
  O  O345  1  0.19093994  0.74969391  0.31230395  1
  O  O346  1  0.19315598  0.74990609  0.56134440  1
  O  O347  1  0.19280185  0.74967586  0.81338651  1
  O  O348  1  0.69214209  0.08352352  0.06318164  1
  O  O349  1  0.69264181  0.08383465  0.31145824  1
  O  O350  1  0.69067841  0.08391616  0.56279739  1
  O  O351  1  0.69361405  0.08353752  0.81103266  1
  O  O352  1  0.69225908  0.41699970  0.06341590  1
  O  O353  1  0.68949233  0.41689634  0.31238095  1
  O  O354  1  0.69229681  0.41669925  0.56023133  1
  O  O355  1  0.69406819  0.41709326  0.81155786  1
  O  O356  1  0.69404975  0.74939403  0.06217374  1
  O  O357  1  0.69480335  0.74906140  0.31191882  1
  O  O358  1  0.69083397  0.74946634  0.56228604  1
  O  O359  1  0.69351034  0.74951388  0.81103602  1
  O  O360  1  0.30650282  0.25063924  0.18864125  1
  O  O361  1  0.30924054  0.25028970  0.43774330  1
  O  O362  1  0.30916357  0.24956674  0.68693851  1
  O  O363  1  0.30541639  0.25016700  0.93822718  1
  O  O364  1  0.30520301  0.58296443  0.18814252  1
  O  O365  1  0.30807782  0.58312671  0.43720770  1
  O  O366  1  0.30601330  0.58358760  0.68901675  1
  O  O367  1  0.30752056  0.58308622  0.93723999  1
  O  O368  1  0.30593513  0.91636552  0.18770071  1
  O  O369  1  0.30560591  0.91691311  0.43875633  1
  O  O370  1  0.30688473  0.91621423  0.68910568  1
  O  O371  1  0.30791354  0.91691239  0.93720646  1
  O  O372  1  0.81006839  0.25036583  0.18719135  1
  O  O373  1  0.80651290  0.25042500  0.43866263  1
  O  O374  1  0.80837587  0.25033604  0.68680889  1
  O  O375  1  0.80659750  0.25067248  0.93887307  1
  O  O376  1  0.81090683  0.58318974  0.18776311  1
  O  O377  1  0.81037524  0.58253613  0.43665282  1
  O  O378  1  0.80570930  0.58326038  0.68784592  1
  O  O379  1  0.80722450  0.58296559  0.93898528  1
  O  O380  1  0.80807659  0.91619161  0.18910153  1
  O  O381  1  0.80937274  0.91668632  0.43739777  1
  O  O382  1  0.80541738  0.91641833  0.68763932  1
  O  O383  1  0.80591869  0.91666570  0.93795029  1
  O  O384  1  0.23100038  0.25063513  0.03919735  1
  O  O385  1  0.23464866  0.25040981  0.29117082  1
  O  O386  1  0.23600728  0.25009080  0.53927245  1
  O  O387  1  0.23450859  0.25032010  0.78748341  1
  O  O388  1  0.23152334  0.58315660  0.03685281  1
  O  O389  1  0.23226667  0.58292629  0.29004689  1
  O  O390  1  0.23463183  0.58342621  0.53856798  1
  O  O391  1  0.23281072  0.58331686  0.79054736  1
  O  O392  1  0.23213950  0.91620207  0.03701604  1
  O  O393  1  0.23328968  0.91684706  0.28971509  1
  O  O394  1  0.23200102  0.91634952  0.54017715  1
  O  O395  1  0.23274375  0.91663863  0.78988113  1
  O  O396  1  0.73509304  0.25043359  0.04154766  1
  O  O397  1  0.73445851  0.24982321  0.28711742  1
  O  O398  1  0.73183595  0.25043750  0.53909744  1
  O  O399  1  0.73266855  0.25003779  0.78700424  1
  O  O400  1  0.73375456  0.58342781  0.04046463  1
  O  O401  1  0.73617599  0.58352744  0.28829327  1
  O  O402  1  0.73474056  0.58291728  0.53633423  1
  O  O403  1  0.73179529  0.58370051  0.78927680  1
  O  O404  1  0.73236679  0.91595719  0.03950215  1
  O  O405  1  0.73537195  0.91652092  0.29100371  1
  O  O406  1  0.73312066  0.91664517  0.53676242  1
  O  O407  1  0.73134055  0.91652265  0.78878565  1
  O  O408  1  0.26572366  0.08335838  0.20869231  1
  O  O409  1  0.26731690  0.08340015  0.46267236  1
  O  O410  1  0.26600409  0.08248218  0.70968031  1
  O  O411  1  0.26467498  0.08365193  0.96109701  1
  O  O412  1  0.26617410  0.41740512  0.21182510  1
  O  O413  1  0.26684196  0.41620341  0.46259070  1
  O  O414  1  0.26654254  0.41740355  0.71202549  1
  O  O415  1  0.26359652  0.41651217  0.96123261  1
  O  O416  1  0.26573976  0.74914613  0.21152245  1
  O  O417  1  0.26542010  0.75052596  0.45939628  1
  O  O418  1  0.26738158  0.74959134  0.71228714  1
  O  O419  1  0.26358976  0.75003526  0.96175241  1
  O  O420  1  0.76612687  0.08247718  0.21029780  1
  O  O421  1  0.76473772  0.08402629  0.46160691  1
  O  O422  1  0.76486986  0.08285834  0.70808218  1
  O  O423  1  0.76709331  0.08390778  0.96240639  1
  O  O424  1  0.76506751  0.41728040  0.21279324  1
  O  O425  1  0.76521841  0.41608606  0.45838096  1
  O  O426  1  0.76585894  0.41738929  0.70874972  1
  O  O427  1  0.76737332  0.41688870  0.96277314  1
  O  O428  1  0.76940723  0.74967872  0.21104707  1
  O  O429  1  0.76532367  0.75018433  0.46182144  1
  O  O430  1  0.76656773  0.74972112  0.70896375  1
  O  O431  1  0.76617250  0.74968179  0.95977197  1
  O  O432  1  0.01733432  0.08337561  0.16196458  1
  O  O433  1  0.01656708  0.08308461  0.41554617  1
  O  O434  1  0.01802397  0.08401220  0.66489161  1
  O  O435  1  0.01522887  0.08334912  0.91446906  1
  O  O436  1  0.01731489  0.41678697  0.16215045  1
  O  O437  1  0.01906189  0.41770957  0.41438361  1
  O  O438  1  0.01825947  0.41583629  0.66448318  1
  O  O439  1  0.01736553  0.41724788  0.91447225  1
  O  O440  1  0.01807293  0.75015900  0.16422003  1
  O  O441  1  0.01740682  0.74920994  0.41372512  1
  O  O442  1  0.01612244  0.75031369  0.66567022  1
  O  O443  1  0.01735097  0.74908405  0.91115387  1
  O  O444  1  0.51857219  0.08368974  0.16447045  1
  O  O445  1  0.51504054  0.08376248  0.41596275  1
  O  O446  1  0.51734165  0.08305709  0.66219824  1
  O  O447  1  0.51660884  0.08277915  0.91473282  1
  O  O448  1  0.51686573  0.41664012  0.16427173  1
  O  O449  1  0.51489732  0.41705358  0.41396427  1
  O  O450  1  0.51436123  0.41684395  0.66371306  1
  O  O451  1  0.51506308  0.41717607  0.91263396  1
  O  O452  1  0.51556482  0.74968121  0.16534873  1
  O  O453  1  0.51470456  0.74882930  0.41272879  1
  O  O454  1  0.51726552  0.75046851  0.66523394  1
  O  O455  1  0.51479459  0.74967036  0.91295191  1
  O  O456  1  0.48377168  0.25056316  0.08340269  1
  O  O457  1  0.48224403  0.25081425  0.33783927  1
  O  O458  1  0.48347125  0.25029541  0.58711673  1
  O  O459  1  0.48448420  0.24976685  0.83476020  1
  O  O460  1  0.48403649  0.58313139  0.08412015  1
  O  O461  1  0.48125251  0.58235297  0.33512853  1
  O  O462  1  0.48416682  0.58347591  0.58720282  1
  O  O463  1  0.48344240  0.58378940  0.83725133  1
  O  O464  1  0.48464215  0.91609298  0.08418670  1
  O  O465  1  0.48411316  0.91705378  0.33718090  1
  O  O466  1  0.48544682  0.91608340  0.58603316  1
  O  O467  1  0.48382274  0.91632731  0.83719286  1
  O  O468  1  0.98315903  0.25051577  0.08493629  1
  O  O469  1  0.98422177  0.25046073  0.33460204  1
  O  O470  1  0.98261921  0.25031389  0.58476176  1
  O  O471  1  0.98435976  0.25040204  0.83649197  1
  O  O472  1  0.98425043  0.58309299  0.08676280  1
  O  O473  1  0.98390478  0.58351089  0.33449106  1
  O  O474  1  0.98550691  0.58308232  0.58760455  1
  O  O475  1  0.98561122  0.58299614  0.83560416  1
  O  O476  1  0.98456979  0.91587620  0.08339163  1
  O  O477  1  0.98354087  0.91628081  0.33722583  1
  O  O478  1  0.98553343  0.91646662  0.58708030  1
  O  O479  1  0.98528817  0.91690121  0.83576069  1
  O  O480  1  0.08733658  0.31511728  0.07710265  1
  O  O481  1  0.08778794  0.31610490  0.32774275  1
  O  O482  1  0.08703868  0.31472803  0.57784634  1
  O  O483  1  0.08767513  0.31628815  0.82820201  1
  O  O484  1  0.08770254  0.64857319  0.07760506  1
  O  O485  1  0.08786155  0.64848693  0.32718182  1
  O  O486  1  0.08901152  0.64770157  0.57845030  1
  O  O487  1  0.08955798  0.64792571  0.82749878  1
  O  O488  1  0.08827445  0.98159788  0.07688259  1
  O  O489  1  0.08725704  0.98081672  0.32795100  1
  O  O490  1  0.08866868  0.98302587  0.57816547  1
  O  O491  1  0.08967964  0.98041096  0.82709139  1
  O  O492  1  0.58745019  0.31586651  0.07797307  1
  O  O493  1  0.58560453  0.31652282  0.32831701  1
  O  O494  1  0.58727280  0.31465513  0.57673540  1
  O  O495  1  0.58806818  0.31547655  0.82621174  1
  O  O496  1  0.58843329  0.64728145  0.07665444  1
  O  O497  1  0.58526586  0.64696260  0.32647119  1
  O  O498  1  0.58710239  0.64985441  0.57812904  1
  O  O499  1  0.58754347  0.64807797  0.82710627  1
  O  O500  1  0.58825321  0.98213471  0.07748766  1
  O  O501  1  0.58797287  0.98147674  0.32835645  1
  O  O502  1  0.58936318  0.98097822  0.57777023  1
  O  O503  1  0.58768151  0.98127947  0.82713467  1
  O  O504  1  0.41492578  0.01823178  0.17251238  1
  O  O505  1  0.41099877  0.01904516  0.42390835  1
  O  O506  1  0.41373376  0.01855826  0.67262570  1
  O  O507  1  0.41303388  0.01693696  0.92225851  1
  O  O508  1  0.41262973  0.35187795  0.17276817  1
  O  O509  1  0.41108104  0.35230619  0.42250416  1
  O  O510  1  0.41100979  0.35071973  0.67227393  1
  O  O511  1  0.41132147  0.35284505  0.92179069  1
  O  O512  1  0.41129787  0.68491757  0.17257512  1
  O  O513  1  0.41121801  0.68352072  0.42142682  1
  O  O514  1  0.41316974  0.68543678  0.67397022  1
  O  O515  1  0.41110123  0.68479495  0.92175620  1
  O  O516  1  0.91376545  0.01870845  0.17183237  1
  O  O517  1  0.91308622  0.01728586  0.42274635  1
  O  O518  1  0.91417314  0.01930623  0.67299858  1
  O  O519  1  0.91150876  0.01790636  0.92303905  1
  O  O520  1  0.91373595  0.35164574  0.17184837  1
  O  O521  1  0.91503571  0.35299196  0.42263875  1
  O  O522  1  0.91434158  0.35048552  0.67237603  1
  O  O523  1  0.91321229  0.35236543  0.92340911  1
  O  O524  1  0.91457687  0.68401206  0.17259358  1
  O  O525  1  0.91367257  0.68437736  0.42170339  1
  O  O526  1  0.91219096  0.68506169  0.67366460  1
  O  O527  1  0.91361385  0.68488789  0.92194486  1
  O  O528  1  0.16144439  0.01866006  0.20193798  1
  O  O529  1  0.16392642  0.01756092  0.45329408  1
  O  O530  1  0.16192358  0.01749341  0.70264404  1
  O  O531  1  0.16112508  0.01861993  0.95317109  1
  O  O532  1  0.16211541  0.35297506  0.20230442  1
  O  O533  1  0.16317592  0.35128031  0.45221689  1
  O  O534  1  0.16277121  0.35283151  0.70156290  1
  O  O535  1  0.16007338  0.35120896  0.95264117  1
  O  O536  1  0.16218092  0.68349462  0.20281994  1
  O  O537  1  0.16129163  0.68622833  0.45170831  1
  O  O538  1  0.16381948  0.68454749  0.70350456  1
  O  O539  1  0.16004576  0.68476400  0.95266429  1
  O  O540  1  0.66189275  0.01822951  0.20241197  1
  O  O541  1  0.66129849  0.01866816  0.45324133  1
  O  O542  1  0.66063409  0.01823668  0.70245920  1
  O  O543  1  0.66382913  0.01772452  0.95339735  1
  O  O544  1  0.66143861  0.35205510  0.20204555  1
  O  O545  1  0.66133841  0.35032275  0.45161001  1
  O  O546  1  0.66209823  0.35217182  0.70251887  1
  O  O547  1  0.66330712  0.35293149  0.95317589  1
  O  O548  1  0.66537961  0.68485081  0.20218362  1
  O  O549  1  0.66187719  0.68531112  0.45192918  1
  O  O550  1  0.66250800  0.68461835  0.70171869  1
  O  O551  1  0.66262273  0.68402320  0.95321532  1
  O  O552  1  0.33487928  0.31528836  0.04767750  1
  O  O553  1  0.33803428  0.31672163  0.29736842  1
  O  O554  1  0.33972308  0.31516835  0.54738031  1
  O  O555  1  0.33777179  0.31589996  0.79651005  1
  O  O556  1  0.33506716  0.64809102  0.04739643  1
  O  O557  1  0.33624773  0.64813517  0.29741938  1
  O  O558  1  0.33838469  0.64772815  0.54702765  1
  O  O559  1  0.33687730  0.64831883  0.79853733  1
  O  O560  1  0.33550719  0.98178200  0.04748378  1
  O  O561  1  0.33746755  0.98085048  0.29680558  1
  O  O562  1  0.33553274  0.98240327  0.54829256  1
  O  O563  1  0.33718998  0.98055386  0.79876117  1
  O  O564  1  0.83906348  0.31553487  0.04792213  1
  O  O565  1  0.83778849  0.31507419  0.29748283  1
  O  O566  1  0.83592717  0.31542523  0.54826052  1
  O  O567  1  0.83626858  0.31513802  0.79704087  1
  O  O568  1  0.83843268  0.64733454  0.04823077  1
  O  O569  1  0.83982545  0.64933243  0.29731862  1
  O  O570  1  0.83844424  0.64756769  0.54678721  1
  O  O571  1  0.83539985  0.64953059  0.79702635  1
  O  O572  1  0.83566782  0.98232106  0.04747916  1
  O  O573  1  0.83975327  0.98032780  0.29846323  1
  O  O574  1  0.83633861  0.98205562  0.54777819  1
  O  O575  1  0.83561211  0.98050042  0.79711700  1
  O  O576  1  0.41443778  0.14834221  0.17225695  1
  O  O577  1  0.41122017  0.14913341  0.42290887  1
  O  O578  1  0.41392321  0.14870831  0.67202151  1
  O  O579  1  0.41267771  0.14723537  0.92246153  1
  O  O580  1  0.41288377  0.48174882  0.17293181  1
  O  O581  1  0.41119825  0.48239779  0.42262819  1
  O  O582  1  0.41019802  0.48076968  0.67308854  1
  O  O583  1  0.41179959  0.48312835  0.92176488  1
  O  O584  1  0.41155418  0.81488091  0.17268453  1
  O  O585  1  0.41149694  0.81389855  0.42242901  1
  O  O586  1  0.41311925  0.81529975  0.67379323  1
  O  O587  1  0.41147714  0.81525209  0.92178382  1
  O  O588  1  0.91397707  0.14901425  0.17144889  1
  O  O589  1  0.91246262  0.14750500  0.42246486  1
  O  O590  1  0.91416733  0.14958333  0.67229136  1
  O  O591  1  0.91110666  0.14794941  0.92275960  1
  O  O592  1  0.91375777  0.48177021  0.17190956  1
  O  O593  1  0.91536146  0.48309340  0.42231639  1
  O  O594  1  0.91452231  0.48063282  0.67326481  1
  O  O595  1  0.91348449  0.48231196  0.92353720  1
  O  O596  1  0.91361907  0.81400340  0.17268437  1
  O  O597  1  0.91389844  0.81465204  0.42250686  1
  O  O598  1  0.91191339  0.81503100  0.67358955  1
  O  O599  1  0.91431985  0.81498986  0.92222705  1
  O  O600  1  0.08687856  0.18508131  0.07664080  1
  O  O601  1  0.08803580  0.18583421  0.32748434  1
  O  O602  1  0.08635583  0.18468276  0.57745476  1
  O  O603  1  0.08820775  0.18616750  0.82755143  1
  O  O604  1  0.08825954  0.51843121  0.07780535  1
  O  O605  1  0.08797924  0.51854576  0.32698618  1
  O  O606  1  0.08891403  0.51742461  0.57905395  1
  O  O607  1  0.08941899  0.51786744  0.82807902  1
  O  O608  1  0.08878499  0.85144686  0.07734220  1
  O  O609  1  0.08688827  0.85068212  0.32840413  1
  O  O610  1  0.08978083  0.85285218  0.57763060  1
  O  O611  1  0.08857528  0.85040135  0.82722561  1
  O  O612  1  0.58775843  0.18558007  0.07811459  1
  O  O613  1  0.58612922  0.18651428  0.32788457  1
  O  O614  1  0.58696058  0.18460097  0.57712475  1
  O  O615  1  0.58872791  0.18543735  0.82667184  1
  O  O616  1  0.58769168  0.51713809  0.07723971  1
  O  O617  1  0.58515071  0.51704885  0.32754137  1
  O  O618  1  0.58805382  0.51956251  0.57780095  1
  O  O619  1  0.58697140  0.51824557  0.82680512  1
  O  O620  1  0.58888302  0.85191425  0.07709285  1
  O  O621  1  0.58729683  0.85134138  0.32761861  1
  O  O622  1  0.58903732  0.85071450  0.57785962  1
  O  O623  1  0.58759015  0.85139059  0.82704288  1
  O  O624  1  0.33476393  0.18528515  0.04786103  1
  O  O625  1  0.33911630  0.18648792  0.29767731  1
  O  O626  1  0.33985809  0.18501860  0.54734203  1
  O  O627  1  0.33799221  0.18550985  0.79711089  1
  O  O628  1  0.33498264  0.51811937  0.04750770  1
  O  O629  1  0.33647611  0.51819416  0.29754026  1
  O  O630  1  0.33782126  0.51757221  0.54684146  1
  O  O631  1  0.33676787  0.51830501  0.79838061  1
  O  O632  1  0.33585821  0.85172336  0.04718831  1
  O  O633  1  0.33643072  0.85055414  0.29689208  1
  O  O634  1  0.33614843  0.85238747  0.54815092  1
  O  O635  1  0.33635752  0.85054501  0.79866966  1
  O  O636  1  0.83914561  0.18541266  0.04769808  1
  O  O637  1  0.83795995  0.18481227  0.29702574  1
  O  O638  1  0.83591654  0.18554664  0.54857061  1
  O  O639  1  0.83624517  0.18493462  0.79668415  1
  O  O640  1  0.83745886  0.51737344  0.04846241  1
  O  O641  1  0.84016884  0.51928693  0.29802398  1
  O  O642  1  0.83792939  0.51742081  0.54692662  1
  O  O643  1  0.83594434  0.51944276  0.79754449  1
  O  O644  1  0.83680561  0.85225497  0.04715054  1
  O  O645  1  0.83895892  0.85019372  0.29809378  1
  O  O646  1  0.83684983  0.85199175  0.54765521  1
  O  O647  1  0.83479664  0.85034559  0.79702601  1
  O  O648  1  0.16178236  0.14857213  0.20192063  1
  O  O649  1  0.16373218  0.14776521  0.45264752  1
  O  O650  1  0.16222829  0.14757944  0.70104273  1
  O  O651  1  0.16129178  0.14900647  0.95297471  1
  O  O652  1  0.16232786  0.48283775  0.20284570  1
  O  O653  1  0.16316798  0.48120222  0.45229379  1
  O  O654  1  0.16299677  0.48292461  0.70281688  1
  O  O655  1  0.15981867  0.48135563  0.95280377  1
  O  O656  1  0.16173057  0.81355662  0.20205191  1
  O  O657  1  0.16166664  0.81626297  0.45256707  1
  O  O658  1  0.16372418  0.81468745  0.70365184  1
  O  O659  1  0.15982152  0.81487588  0.95283113  1
  O  O660  1  0.66248098  0.14817812  0.20162915  1
  O  O661  1  0.66126170  0.14918589  0.45314545  1
  O  O662  1  0.66104325  0.14837474  0.70200305  1
  O  O663  1  0.66315813  0.14792823  0.95316797  1
  O  O664  1  0.66132807  0.48201044  0.20231142  1
  O  O665  1  0.66088074  0.48040667  0.45063604  1
  O  O666  1  0.66196235  0.48234096  0.70272387  1
  O  O667  1  0.66401699  0.48301090  0.95366152  1
  O  O668  1  0.66554684  0.81478387  0.20274996  1
  O  O669  1  0.66172506  0.81555410  0.45284730  1
  O  O670  1  0.66246767  0.81470213  0.70196547  1
  O  O671  1  0.66204661  0.81421401  0.95310326  1
