# generated using pymatgen
data_Na2MnFe(PO4)2
_symmetry_space_group_name_H-M   'P 1'
_cell_length_a   21.08204018
_cell_length_b   18.93479467
_cell_length_c   20.04138051
_cell_angle_alpha   90.00023336
_cell_angle_beta   89.99964372
_cell_angle_gamma   90.00119582
_symmetry_Int_Tables_number   1
_chemical_formula_structural   Na2MnFe(PO4)2
_chemical_formula_sum   'Na96 Mn48 Fe48 P96 O384'
_cell_volume   8000.20047929
_cell_formula_units_Z   48
loop_
 _symmetry_equiv_pos_site_id
 _symmetry_equiv_pos_as_xyz
  1  'x, y, z'
loop_
 _atom_site_type_symbol
 _atom_site_label
 _atom_site_symmetry_multiplicity
 _atom_site_fract_x
 _atom_site_fract_y
 _atom_site_fract_z
 _atom_site_occupancy
  Na  Na0  1  0.00082533  0.00005951  0.00020951  1
  Na  Na1  1  0.00210707  0.00134398  0.24969920  1
  Na  Na2  1  -0.00007627  0.00045706  0.49980495  1
  Na  Na3  1  0.00039996  0.00025581  0.75067462  1
  Na  Na4  1  0.00266081  0.33426200  -0.00069346  1
  Na  Na5  1  0.00129522  0.33345253  0.24998328  1
  Na  Na6  1  -0.00039458  0.33328310  0.50058726  1
  Na  Na7  1  -0.00104429  0.33318277  0.75036012  1
  Na  Na8  1  0.00076750  0.66659138  0.00017308  1
  Na  Na9  1  0.00091176  0.66687949  0.24909561  1
  Na  Na10  1  -0.00178237  0.66603210  0.49973630  1
  Na  Na11  1  0.00034542  0.66697550  0.75108633  1
  Na  Na12  1  0.50103699  -0.00014018  0.00007672  1
  Na  Na13  1  0.50140297  0.00014232  0.24956894  1
  Na  Na14  1  0.50142703  -0.00040064  0.50054880  1
  Na  Na15  1  0.50284031  0.00101088  0.75037410  1
  Na  Na16  1  0.49645879  0.33290411  -0.00029021  1
  Na  Na17  1  0.49743253  0.33321956  0.25049869  1
  Na  Na18  1  0.49875229  0.33353011  0.49913492  1
  Na  Na19  1  0.49774580  0.33298635  0.74998575  1
  Na  Na20  1  0.49878562  0.66611320  -0.00032550  1
  Na  Na21  1  0.49976554  0.66723269  0.24898621  1
  Na  Na22  1  0.50098565  0.66661239  0.50121435  1
  Na  Na23  1  0.50136553  0.66679658  0.75007574  1
  Na  Na24  1  0.25090823  0.00009281  0.12632465  1
  Na  Na25  1  0.24907973  -0.00041104  0.37497260  1
  Na  Na26  1  0.24826997  -0.00052416  0.62363521  1
  Na  Na27  1  0.25013878  0.00008453  0.87562297  1
  Na  Na28  1  0.25177502  0.33359587  0.12428793  1
  Na  Na29  1  0.25287968  0.33374834  0.37438268  1
  Na  Na30  1  0.25124360  0.33281239  0.62522334  1
  Na  Na31  1  0.25142499  0.33357875  0.87505625  1
  Na  Na32  1  0.24996226  0.66653198  0.12498279  1
  Na  Na33  1  0.25024585  0.66628534  0.37445242  1
  Na  Na34  1  0.25012767  0.66668195  0.62467083  1
  Na  Na35  1  0.24917518  0.66690023  0.87528555  1
  Na  Na36  1  0.74696198  -0.00011989  0.12524328  1
  Na  Na37  1  0.74751713  -0.00013717  0.37422755  1
  Na  Na38  1  0.74935424  0.00021370  0.62606569  1
  Na  Na39  1  0.74804973  -0.00017104  0.87500591  1
  Na  Na40  1  0.74907867  0.33314887  0.12462221  1
  Na  Na41  1  0.74973952  0.33364222  0.37460525  1
  Na  Na42  1  0.74948457  0.33337525  0.62485761  1
  Na  Na43  1  0.75188644  0.33509128  0.87598754  1
  Na  Na44  1  0.75069989  0.66711291  0.12588549  1
  Na  Na45  1  0.74909433  0.66640345  0.37339667  1
  Na  Na46  1  0.75001409  0.66616794  0.62484740  1
  Na  Na47  1  0.75076666  0.66656492  0.87579495  1
  Na  Na48  1  0.00106681  0.16640107  0.00031540  1
  Na  Na49  1  0.00199131  0.16608248  0.24971653  1
  Na  Na50  1  0.00166908  0.16587805  0.50011969  1
  Na  Na51  1  0.00134027  0.16622326  0.75019944  1
  Na  Na52  1  0.00109832  0.49944256  -0.00069025  1
  Na  Na53  1  0.00063154  0.49926642  0.24949240  1
  Na  Na54  1  -0.00323236  0.50017449  0.50058948  1
  Na  Na55  1  -0.00163931  0.50003660  0.75082035  1
  Na  Na56  1  0.00300940  0.83232161  0.00025885  1
  Na  Na57  1  0.00149211  0.83322017  0.24942483  1
  Na  Na58  1  -0.00037317  0.83372526  0.49955202  1
  Na  Na59  1  -0.00074112  0.83429557  0.75067915  1
  Na  Na60  1  0.49874082  0.16667557  0.00051053  1
  Na  Na61  1  0.49957163  0.16668708  0.24982359  1
  Na  Na62  1  0.50020967  0.16676056  0.50002416  1
  Na  Na63  1  0.49844611  0.16754055  0.74973951  1
  Na  Na64  1  0.49834163  0.49968031  -0.00094196  1
  Na  Na65  1  0.49702583  0.50045126  0.24962145  1
  Na  Na66  1  0.49814506  0.50010949  0.50034127  1
  Na  Na67  1  0.50064191  0.49892960  0.74959858  1
  Na  Na68  1  0.50000508  0.83374893  0.00020953  1
  Na  Na69  1  0.50119052  0.83320742  0.24947211  1
  Na  Na70  1  0.50238795  0.83352609  0.50048956  1
  Na  Na71  1  0.50116559  0.83418441  0.75075225  1
  Na  Na72  1  0.24993230  0.16718916  0.12547197  1
  Na  Na73  1  0.24885795  0.16727633  0.37484734  1
  Na  Na74  1  0.24947750  0.16704487  0.62409026  1
  Na  Na75  1  0.25127699  0.16603294  0.87468683  1
  Na  Na76  1  0.25120912  0.49986161  0.12493813  1
  Na  Na77  1  0.25275698  0.49928588  0.37467671  1
  Na  Na78  1  0.25213387  0.49863087  0.62467440  1
  Na  Na79  1  0.25004395  0.49940989  0.87565032  1
  Na  Na80  1  0.25064595  0.83346553  0.12530638  1
  Na  Na81  1  0.25053692  0.83381378  0.37442190  1
  Na  Na82  1  0.24877519  0.83409276  0.62475407  1
  Na  Na83  1  0.24963490  0.83319539  0.87557667  1
  Na  Na84  1  0.74917098  0.16606132  0.12538821  1
  Na  Na85  1  0.74833689  0.16675245  0.37389654  1
  Na  Na86  1  0.74955345  0.16634588  0.62602333  1
  Na  Na87  1  0.74994836  0.16658052  0.87591916  1
  Na  Na88  1  0.75087902  0.49927948  0.12468799  1
  Na  Na89  1  0.75070589  0.49921890  0.37444727  1
  Na  Na90  1  0.75057297  0.49920468  0.62456929  1
  Na  Na91  1  0.75028623  0.49980412  0.87572255  1
  Na  Na92  1  0.74737987  0.83386956  0.12546016  1
  Na  Na93  1  0.74700910  0.83440094  0.37422134  1
  Na  Na94  1  0.74949134  0.83397957  0.62495825  1
  Na  Na95  1  0.74927121  0.83387500  0.87538848  1
  Mn  Mn96  1  0.64154243  0.25012176  0.99782046  1
  Mn  Mn97  1  0.35840438  0.75018366  0.50219349  1
  Mn  Mn98  1  0.89153351  0.91723315  0.37675971  1
  Mn  Mn99  1  0.89176544  0.58322599  0.37655814  1
  Mn  Mn100  1  0.39260765  0.58331920  0.62785024  1
  Mn  Mn101  1  0.35844078  0.08345304  0.25269766  1
  Mn  Mn102  1  0.14289597  0.91646467  0.24772385  1
  Mn  Mn103  1  0.89258980  0.24985752  0.87776746  1
  Mn  Mn104  1  0.64073600  0.25027733  0.24733961  1
  Mn  Mn105  1  0.35783263  0.74990161  0.75240190  1
  Mn  Mn106  1  0.89202389  0.24956969  0.37735298  1
  Mn  Mn107  1  0.14310267  0.25000558  0.74777263  1
  Mn  Mn108  1  0.60661748  0.41704244  0.37278550  1
  Mn  Mn109  1  0.10705820  0.75024937  0.62214962  1
  Mn  Mn110  1  0.39251846  0.91709976  0.62705047  1
  Mn  Mn111  1  0.89180525  0.24972925  0.62696374  1
  Mn  Mn112  1  0.85772413  0.08392792  0.75251568  1
  Mn  Mn113  1  0.64252181  0.58344471  0.99859580  1
  Mn  Mn114  1  0.14296321  0.58288571  0.24771136  1
  Mn  Mn115  1  0.89262677  0.91655904  0.12691076  1
  Mn  Mn116  1  0.60728927  0.41585299  0.87315893  1
  Mn  Mn117  1  0.14209584  0.58281701  0.74716334  1
  Mn  Mn118  1  0.64237098  0.58311901  0.49704677  1
  Mn  Mn119  1  0.64146941  0.25093121  0.74823940  1
  Mn  Mn120  1  0.85800844  0.41615264  0.25119558  1
  Mn  Mn121  1  0.89264055  0.58355089  0.87788151  1
  Mn  Mn122  1  0.35741571  0.08321563  0.50174859  1
  Mn  Mn123  1  0.60815484  0.74987591  0.87330242  1
  Mn  Mn124  1  0.14199736  0.58266396  0.49790813  1
  Mn  Mn125  1  0.10864278  0.08330521  0.87349226  1
  Mn  Mn126  1  0.85714194  0.08318327  0.25163859  1
  Mn  Mn127  1  0.39268166  0.91714148  0.87735167  1
  Mn  Mn128  1  0.64099021  0.58300988  0.24694746  1
  Mn  Mn129  1  0.85715865  0.75063213  0.25142165  1
  Mn  Mn130  1  0.89210013  0.91662596  0.87821561  1
  Mn  Mn131  1  0.85699425  0.75064220  0.50196097  1
  Mn  Mn132  1  0.60833282  0.08480578  0.62232707  1
  Mn  Mn133  1  0.35871495  0.74976911  0.25233404  1
  Mn  Mn134  1  0.85779969  0.74958093  0.75254733  1
  Mn  Mn135  1  0.60885527  0.74941937  0.62276969  1
  Mn  Mn136  1  0.35789134  0.08292242  0.75182133  1
  Mn  Mn137  1  0.10739061  0.41656781  0.62267495  1
  Mn  Mn138  1  0.39202223  0.58340821  0.87707387  1
  Mn  Mn139  1  0.89347219  0.25022225  0.12674073  1
  Mn  Mn140  1  0.14317801  0.25066967  0.24790909  1
  Mn  Mn141  1  0.14168186  0.91678994  0.74752711  1
  Mn  Mn142  1  0.10793073  0.74999299  0.37296248  1
  Mn  Mn143  1  0.10820351  0.41648125  0.37341876  1
  Fe  Fe144  1  0.35761054  0.41643444  0.50199770  1
  Fe  Fe145  1  0.85673683  0.41655580  0.75159527  1
  Fe  Fe146  1  0.35769908  0.41682489  0.25134599  1
  Fe  Fe147  1  0.14174537  0.91691466  0.49769144  1
  Fe  Fe148  1  0.35767127  0.41684708  0.75183085  1
  Fe  Fe149  1  0.14309176  0.25018702  0.49824354  1
  Fe  Fe150  1  0.10815865  0.74988981  0.12245418  1
  Fe  Fe151  1  0.85831401  0.41663089  0.00274286  1
  Fe  Fe152  1  0.64115300  0.91661581  0.24778340  1
  Fe  Fe153  1  0.60713920  0.41617654  0.62332706  1
  Fe  Fe154  1  0.64219645  0.24977218  0.49834663  1
  Fe  Fe155  1  0.89403661  0.58325330  0.12588468  1
  Fe  Fe156  1  0.85688935  0.08367202  0.50123814  1
  Fe  Fe157  1  0.64251793  0.91647694  0.99879772  1
  Fe  Fe158  1  0.10778574  0.41692643  0.87298546  1
  Fe  Fe159  1  0.85668296  0.41565549  0.50200473  1
  Fe  Fe160  1  0.39193851  0.58370787  0.12592420  1
  Fe  Fe161  1  0.60557709  0.41683201  0.12328639  1
  Fe  Fe162  1  0.39405992  0.91657156  0.37695079  1
  Fe  Fe163  1  0.35690873  0.75023256  0.00169127  1
  Fe  Fe164  1  0.10883281  0.41672306  0.12261453  1
  Fe  Fe165  1  0.39268428  0.24975881  0.62595066  1
  Fe  Fe166  1  0.10709227  0.08318719  0.62284003  1
  Fe  Fe167  1  0.89156911  0.58380013  0.62705385  1
  Fe  Fe168  1  0.89225873  0.91684425  0.62602682  1
  Fe  Fe169  1  0.64286578  0.91747045  0.49824985  1
  Fe  Fe170  1  0.10839341  0.08333902  0.12239107  1
  Fe  Fe171  1  0.64313044  0.91607514  0.74827914  1
  Fe  Fe172  1  0.35785065  0.08271990  0.00204549  1
  Fe  Fe173  1  0.35651982  0.41713332  0.00187279  1
  Fe  Fe174  1  0.14382275  0.91681663  0.99918320  1
  Fe  Fe175  1  0.60684438  0.08423461  0.87416799  1
  Fe  Fe176  1  0.64310996  0.58302656  0.74864306  1
  Fe  Fe177  1  0.85792443  0.75051940  0.00268387  1
  Fe  Fe178  1  0.60626261  0.08398762  0.12255671  1
  Fe  Fe179  1  0.60705068  0.74991707  0.37333125  1
  Fe  Fe180  1  0.60724962  0.08329289  0.37398481  1
  Fe  Fe181  1  0.14307793  0.58336122  0.99885298  1
  Fe  Fe182  1  0.60645509  0.74933684  0.12228577  1
  Fe  Fe183  1  0.39292868  0.24922275  0.37764756  1
  Fe  Fe184  1  0.39278959  0.58428326  0.37731868  1
  Fe  Fe185  1  0.10712994  0.08342472  0.37368065  1
  Fe  Fe186  1  0.39200419  0.24923168  0.87695932  1
  Fe  Fe187  1  0.14419928  0.24994076  0.99835393  1
  Fe  Fe188  1  0.39224545  0.24962627  0.12642990  1
  Fe  Fe189  1  0.10776044  0.74968532  0.87362409  1
  Fe  Fe190  1  0.85669697  0.08315831  0.00222927  1
  Fe  Fe191  1  0.39340966  0.91655996  0.12623708  1
  P  P192  1  0.05543176  0.25015963  0.10926174  1
  P  P193  1  0.05477468  0.24947902  0.36119741  1
  P  P194  1  0.05409971  0.24956355  0.60965241  1
  P  P195  1  0.05550302  0.25071506  0.86132380  1
  P  P196  1  0.05401017  0.58304531  0.10932301  1
  P  P197  1  0.05325124  0.58278358  0.35957998  1
  P  P198  1  0.05118407  0.58298082  0.61010640  1
  P  P199  1  0.05542895  0.58318666  0.86163506  1
  P  P200  1  0.05481720  0.91684931  0.10947369  1
  P  P201  1  0.05430457  0.91765135  0.36062377  1
  P  P202  1  0.05232569  0.91752842  0.60938603  1
  P  P203  1  0.05504450  0.91603852  0.86179038  1
  P  P204  1  0.55123357  0.25081535  0.11001956  1
  P  P205  1  0.55293727  0.24955632  0.36134820  1
  P  P206  1  0.55263284  0.25152174  0.60930698  1
  P  P207  1  0.55130165  0.24940707  0.86039481  1
  P  P208  1  0.55121045  0.58271147  0.10962635  1
  P  P209  1  0.55161000  0.58368751  0.35989725  1
  P  P210  1  0.55504695  0.58174155  0.61121929  1
  P  P211  1  0.55403851  0.58285388  0.85945725  1
  P  P212  1  0.55400544  0.91660220  0.11047065  1
  P  P213  1  0.55446278  0.91687410  0.36080467  1
  P  P214  1  0.55576944  0.91687179  0.61060785  1
  P  P215  1  0.55575723  0.91764942  0.86119530  1
  P  P216  1  0.44619850  0.08285535  0.13862199  1
  P  P217  1  0.44806338  0.08263438  0.39002315  1
  P  P218  1  0.44695205  0.08401462  0.63964609  1
  P  P219  1  0.44694657  0.08365986  0.89068694  1
  P  P220  1  0.44469048  0.41682724  0.13870925  1
  P  P221  1  0.44415659  0.41686496  0.38921991  1
  P  P222  1  0.44573725  0.41554670  0.63928031  1
  P  P223  1  0.44417062  0.41589032  0.88938827  1
  P  P224  1  0.44606669  0.75028056  0.13804005  1
  P  P225  1  0.44831293  0.75051617  0.39004344  1
  P  P226  1  0.44753480  0.75048623  0.64056512  1
  P  P227  1  0.44623558  0.75027471  0.89097142  1
  P  P228  1  0.94726288  0.08326193  0.13877523  1
  P  P229  1  0.94693976  0.08351464  0.39040975  1
  P  P230  1  0.94635486  0.08270112  0.63881476  1
  P  P231  1  0.94620794  0.08332467  0.89129822  1
  P  P232  1  0.94795002  0.41718161  0.13840929  1
  P  P233  1  0.94593698  0.41612534  0.39066626  1
  P  P234  1  0.94422816  0.41695351  0.63989084  1
  P  P235  1  0.94617496  0.41664196  0.88961549  1
  P  P236  1  0.94720031  0.74951519  0.13851380  1
  P  P237  1  0.94635500  0.75039433  0.38959957  1
  P  P238  1  0.94596197  0.75052182  0.64003514  1
  P  P239  1  0.94740925  0.75013023  0.89122307  1
  P  P240  1  0.19542986  0.08354097  0.23566622  1
  P  P241  1  0.19450879  0.08358131  0.48540117  1
  P  P242  1  0.19620329  0.08334070  0.73377294  1
  P  P243  1  0.19764462  0.08330158  0.98668555  1
  P  P244  1  0.19803910  0.41653315  0.23429420  1
  P  P245  1  0.19836279  0.41560858  0.48506783  1
  P  P246  1  0.19719310  0.41633830  0.73573462  1
  P  P247  1  0.19621326  0.41654333  0.98581184  1
  P  P248  1  0.19655438  0.74987375  0.23415768  1
  P  P249  1  0.19684374  0.75050094  0.48466564  1
  P  P250  1  0.19549669  0.74990332  0.73556923  1
  P  P251  1  0.19621156  0.75019916  0.98616210  1
  P  P252  1  0.69339801  0.08276326  0.23527030  1
  P  P253  1  0.69697243  0.08373381  0.48454231  1
  P  P254  1  0.69495965  0.08337854  0.73685420  1
  P  P255  1  0.69515050  0.08288565  0.98597745  1
  P  P256  1  0.69517588  0.41666335  0.23367502  1
  P  P257  1  0.69628941  0.41556075  0.48587528  1
  P  P258  1  0.69672151  0.41735221  0.73476961  1
  P  P259  1  0.69653385  0.41690784  0.98660189  1
  P  P260  1  0.69347540  0.75053623  0.23514697  1
  P  P261  1  0.69601716  0.75077428  0.48390163  1
  P  P262  1  0.69681034  0.74955280  0.73551416  1
  P  P263  1  0.69683058  0.75023078  0.98672912  1
  P  P264  1  0.30452901  0.24960005  0.01410951  1
  P  P265  1  0.30612267  0.25049575  0.26435990  1
  P  P266  1  0.30431117  0.25012253  0.51413408  1
  P  P267  1  0.30570413  0.25036005  0.76424680  1
  P  P268  1  0.30267270  0.58362853  0.01502020  1
  P  P269  1  0.30579721  0.58275435  0.26418754  1
  P  P270  1  0.30479847  0.58290935  0.51403620  1
  P  P271  1  0.30315855  0.58256191  0.76525012  1
  P  P272  1  0.30347516  0.91670902  0.01568483  1
  P  P273  1  0.30614731  0.91672116  0.26478584  1
  P  P274  1  0.30324363  0.91685169  0.51352400  1
  P  P275  1  0.30299246  0.91682850  0.76527108  1
  P  P276  1  0.80341342  0.24969649  0.01538332  1
  P  P277  1  0.80289949  0.24986868  0.26458206  1
  P  P278  1  0.80161866  0.24907562  0.51469233  1
  P  P279  1  0.80301225  0.25104743  0.76551098  1
  P  P280  1  0.80473992  0.58352221  0.01595119  1
  P  P281  1  0.80420232  0.58316824  0.26309080  1
  P  P282  1  0.80368253  0.58266201  0.51507057  1
  P  P283  1  0.80344211  0.58229917  0.76434345  1
  P  P284  1  0.80200645  0.91708206  0.01538341  1
  P  P285  1  0.80121336  0.91683252  0.26444403  1
  P  P286  1  0.80224327  0.91823822  0.51503617  1
  P  P287  1  0.80359041  0.91680119  0.76428436  1
  O  O288  1  0.05781929  0.25037060  0.18610943  1
  O  O289  1  0.05888218  0.25060213  0.43791925  1
  O  O290  1  0.05717334  0.25049721  0.68646950  1
  O  O291  1  0.06024754  0.25000091  0.93802474  1
  O  O292  1  0.05719443  0.58284144  0.18605058  1
  O  O293  1  0.05611569  0.58253740  0.43638924  1
  O  O294  1  0.05538205  0.58263551  0.68683973  1
  O  O295  1  0.05986407  0.58300853  0.93837047  1
  O  O296  1  0.05736025  0.91696076  0.18628309  1
  O  O297  1  0.05811340  0.91680685  0.43740142  1
  O  O298  1  0.05575843  0.91700878  0.68617402  1
  O  O299  1  0.05997654  0.91682392  0.93845322  1
  O  O300  1  0.55453291  0.25084791  0.18673021  1
  O  O301  1  0.55804358  0.25011715  0.43798562  1
  O  O302  1  0.55610567  0.25096484  0.68604091  1
  O  O303  1  0.55519137  0.25026474  0.93707200  1
  O  O304  1  0.55455236  0.58282932  0.18630173  1
  O  O305  1  0.55563925  0.58280647  0.43661823  1
  O  O306  1  0.55938950  0.58240286  0.68794946  1
  O  O307  1  0.55712950  0.58283469  0.93626309  1
  O  O308  1  0.55761379  0.91649590  0.18724123  1
  O  O309  1  0.55894607  0.91713890  0.43754454  1
  O  O310  1  0.55996033  0.91673192  0.68742213  1
  O  O311  1  0.55948969  0.91634526  0.93802985  1
  O  O312  1  0.44151974  0.08262055  0.06193994  1
  O  O313  1  0.44480505  0.08286185  0.31330170  1
  O  O314  1  0.44355751  0.08294282  0.56291759  1
  O  O315  1  0.44362772  0.08278862  0.81398194  1
  O  O316  1  0.44020349  0.41701023  0.06192658  1
  O  O317  1  0.44096637  0.41670113  0.31237751  1
  O  O318  1  0.44124505  0.41640932  0.56252835  1
  O  O319  1  0.44082604  0.41703612  0.81258567  1
  O  O320  1  0.44096888  0.75025557  0.06140809  1
  O  O321  1  0.44495658  0.75044836  0.31330078  1
  O  O322  1  0.44425076  0.75047982  0.56375111  1
  O  O323  1  0.44338721  0.75037249  0.81418242  1
  O  O324  1  0.94135778  0.08298111  0.06220889  1
  O  O325  1  0.94299107  0.08366300  0.31365677  1
  O  O326  1  0.94127067  0.08355359  0.56218533  1
  O  O327  1  0.94283868  0.08336896  0.81445286  1
  O  O328  1  0.94285624  0.41628750  0.06173522  1
  O  O329  1  0.94316626  0.41573045  0.31380151  1
  O  O330  1  0.93971846  0.41582515  0.56310514  1
  O  O331  1  0.94086909  0.41654658  0.81296981  1
  O  O332  1  0.94208381  0.75063070  0.06185988  1
  O  O333  1  0.94329810  0.75064705  0.31276701  1
  O  O334  1  0.94295646  0.75034752  0.56325657  1
  O  O335  1  0.94307664  0.75039859  0.81449884  1
  O  O336  1  0.19327294  0.08343772  0.06338802  1
  O  O337  1  0.19105007  0.08342509  0.31239008  1
  O  O338  1  0.19080165  0.08329131  0.56219502  1
  O  O339  1  0.19344229  0.08328365  0.81063577  1
  O  O340  1  0.19212373  0.41677187  0.06257022  1
  O  O341  1  0.19411577  0.41649353  0.31097270  1
  O  O342  1  0.19424196  0.41612501  0.56176368  1
  O  O343  1  0.19223215  0.41647389  0.81242280  1
  O  O344  1  0.19192890  0.74995353  0.06291799  1
  O  O345  1  0.19325094  0.74996424  0.31092006  1
  O  O346  1  0.19351079  0.75009010  0.56150227  1
  O  O347  1  0.19132270  0.74994421  0.81239389  1
  O  O348  1  0.68994118  0.08410867  0.06272246  1
  O  O349  1  0.68937464  0.08372713  0.31206518  1
  O  O350  1  0.69398838  0.08395560  0.56133679  1
  O  O351  1  0.69086546  0.08450955  0.81358472  1
  O  O352  1  0.69019404  0.41660113  0.06312191  1
  O  O353  1  0.69169476  0.41688925  0.31048839  1
  O  O354  1  0.69150348  0.41608808  0.56249745  1
  O  O355  1  0.69321084  0.41655374  0.81154347  1
  O  O356  1  0.69117852  0.74929874  0.06338703  1
  O  O357  1  0.68934897  0.74946774  0.31194908  1
  O  O358  1  0.69375957  0.74961121  0.56073738  1
  O  O359  1  0.69425496  0.74955905  0.81231375  1
  O  O360  1  0.30995656  0.24933005  0.18748488  1
  O  O361  1  0.30910769  0.24899571  0.43736927  1
  O  O362  1  0.30937169  0.24955155  0.68745505  1
  O  O363  1  0.30843860  0.24903821  0.93734675  1
  O  O364  1  0.30958880  0.58396336  0.18735431  1
  O  O365  1  0.30900216  0.58414565  0.43722214  1
  O  O366  1  0.30641875  0.58311954  0.68844779  1
  O  O367  1  0.30602073  0.58372792  0.93836129  1
  O  O368  1  0.31069071  0.91676339  0.18803057  1
  O  O369  1  0.30925083  0.91687159  0.43690608  1
  O  O370  1  0.30623587  0.91695476  0.68847003  1
  O  O371  1  0.30677178  0.91691528  0.93896892  1
  O  O372  1  0.80696493  0.24974014  0.18786447  1
  O  O373  1  0.80509447  0.24929382  0.43800734  1
  O  O374  1  0.80598504  0.24993693  0.68873279  1
  O  O375  1  0.80657909  0.25006147  0.93862625  1
  O  O376  1  0.80953599  0.58316739  0.18642473  1
  O  O377  1  0.80629858  0.58337728  0.43822297  1
  O  O378  1  0.80785161  0.58322656  0.68761834  1
  O  O379  1  0.80718821  0.58340468  0.93916162  1
  O  O380  1  0.80585458  0.91685897  0.18780817  1
  O  O381  1  0.80550322  0.91752123  0.43829086  1
  O  O382  1  0.80853997  0.91699221  0.68762101  1
  O  O383  1  0.80553000  0.91696678  0.93864874  1
  O  O384  1  0.23423646  0.25030545  0.03827182  1
  O  O385  1  0.23607807  0.25016148  0.28841440  1
  O  O386  1  0.23394486  0.24972668  0.53771824  1
  O  O387  1  0.23576330  0.24978726  0.78877499  1
  O  O388  1  0.23249429  0.58331387  0.03958904  1
  O  O389  1  0.23579034  0.58309280  0.28846299  1
  O  O390  1  0.23490715  0.58265101  0.53864806  1
  O  O391  1  0.23359981  0.58269365  0.79052481  1
  O  O392  1  0.23340075  0.91676278  0.04044046  1
  O  O393  1  0.23588531  0.91660847  0.28811163  1
  O  O394  1  0.23263909  0.91713665  0.53632534  1
  O  O395  1  0.23336773  0.91687153  0.79041620  1
  O  O396  1  0.73359294  0.24964290  0.04034704  1
  O  O397  1  0.73296606  0.25026857  0.28887732  1
  O  O398  1  0.73170657  0.24926678  0.53990484  1
  O  O399  1  0.73342606  0.25119834  0.79100883  1
  O  O400  1  0.73498334  0.58331435  0.04126645  1
  O  O401  1  0.73398169  0.58291393  0.28668979  1
  O  O402  1  0.73390960  0.58293283  0.54010581  1
  O  O403  1  0.73333055  0.58276199  0.78877925  1
  O  O404  1  0.73192206  0.91698409  0.04004576  1
  O  O405  1  0.73096347  0.91691994  0.28818866  1
  O  O406  1  0.73217519  0.91764597  0.53973151  1
  O  O407  1  0.73321113  0.91666668  0.78791315  1
  O  O408  1  0.26567743  0.08366962  0.21211844  1
  O  O409  1  0.26453298  0.08355541  0.46083115  1
  O  O410  1  0.26583643  0.08325688  0.70856117  1
  O  O411  1  0.26790873  0.08305737  0.96243539  1
  O  O412  1  0.26820948  0.41654434  0.21012968  1
  O  O413  1  0.26844225  0.41601711  0.46063298  1
  O  O414  1  0.26750915  0.41601644  0.71209672  1
  O  O415  1  0.26676683  0.41648322  0.96227937  1
  O  O416  1  0.26647843  0.74999283  0.20976630  1
  O  O417  1  0.26650795  0.75040027  0.45940346  1
  O  O418  1  0.26539927  0.75011071  0.71114501  1
  O  O419  1  0.26666922  0.75019511  0.96233376  1
  O  O420  1  0.76352376  0.08308387  0.21123152  1
  O  O421  1  0.76679519  0.08346644  0.45919283  1
  O  O422  1  0.76490349  0.08342519  0.71237761  1
  O  O423  1  0.76559583  0.08330873  0.96260653  1
  O  O424  1  0.76510978  0.41625898  0.20928822  1
  O  O425  1  0.76663467  0.41600391  0.46199728  1
  O  O426  1  0.76675125  0.41639589  0.71019597  1
  O  O427  1  0.76723658  0.41726160  0.96411747  1
  O  O428  1  0.76363300  0.75040342  0.21124731  1
  O  O429  1  0.76553275  0.75031792  0.45816496  1
  O  O430  1  0.76627018  0.74982067  0.70967100  1
  O  O431  1  0.76726521  0.75016554  0.96328726  1
  O  O432  1  0.01787885  0.08349973  0.16153896  1
  O  O433  1  0.01708407  0.08329216  0.41451268  1
  O  O434  1  0.01669286  0.08329559  0.66269388  1
  O  O435  1  0.01619771  0.08324072  0.91549838  1
  O  O436  1  0.01839287  0.41668246  0.16195822  1
  O  O437  1  0.01563501  0.41658886  0.41588433  1
  O  O438  1  0.01440254  0.41629340  0.66380324  1
  O  O439  1  0.01679686  0.41693150  0.91257621  1
  O  O440  1  0.01770103  0.75000206  0.16184228  1
  O  O441  1  0.01592473  0.74998638  0.41496014  1
  O  O442  1  0.01553320  0.75053562  0.66566231  1
  O  O443  1  0.01772760  0.74941969  0.91487187  1
  O  O444  1  0.51657412  0.08333827  0.16237479  1
  O  O445  1  0.51800665  0.08287286  0.41507178  1
  O  O446  1  0.51664396  0.08448940  0.66464360  1
  O  O447  1  0.51696382  0.08342679  0.91545249  1
  O  O448  1  0.51494633  0.41679318  0.16295296  1
  O  O449  1  0.51409078  0.41680036  0.41397086  1
  O  O450  1  0.51602208  0.41586431  0.66321256  1
  O  O451  1  0.51414526  0.41623233  0.91391187  1
  O  O452  1  0.51650964  0.75018588  0.16159172  1
  O  O453  1  0.51827398  0.75033301  0.41503861  1
  O  O454  1  0.51724429  0.75039594  0.66549202  1
  O  O455  1  0.51604096  0.74999077  0.91583302  1
  O  O456  1  0.48113368  0.25018070  0.08536019  1
  O  O457  1  0.48248944  0.24987739  0.33783657  1
  O  O458  1  0.48259478  0.25056302  0.58471869  1
  O  O459  1  0.48131300  0.24974926  0.83581949  1
  O  O460  1  0.48117887  0.58300204  0.08475107  1
  O  O461  1  0.48153550  0.58367253  0.33542451  1
  O  O462  1  0.48501384  0.58259458  0.58712054  1
  O  O463  1  0.48426679  0.58306646  0.83460880  1
  O  O464  1  0.48371260  0.91663383  0.08621561  1
  O  O465  1  0.48417359  0.91677884  0.33660021  1
  O  O466  1  0.48570984  0.91671056  0.58656870  1
  O  O467  1  0.48573406  0.91720359  0.83687690  1
  O  O468  1  0.98578280  0.25024474  0.08380881  1
  O  O469  1  0.98493159  0.24956318  0.33641336  1
  O  O470  1  0.98423611  0.24975927  0.58489989  1
  O  O471  1  0.98544819  0.24991729  0.83725379  1
  O  O472  1  0.98402200  0.58308684  0.08433310  1
  O  O473  1  0.98376519  0.58295382  0.33397995  1
  O  O474  1  0.98104048  0.58317155  0.58602025  1
  O  O475  1  0.98532268  0.58340191  0.83762208  1
  O  O476  1  0.98511158  0.91646813  0.08415662  1
  O  O477  1  0.98449224  0.91760068  0.33568039  1
  O  O478  1  0.98224882  0.91698119  0.58473289  1
  O  O479  1  0.98491097  0.91690744  0.83789912  1
  O  O480  1  0.08991015  0.31510320  0.07696003  1
  O  O481  1  0.08857691  0.31439827  0.32783041  1
  O  O482  1  0.08840831  0.31439934  0.57670479  1
  O  O483  1  0.08847468  0.31621782  0.82834858  1
  O  O484  1  0.08807571  0.64817638  0.07680471  1
  O  O485  1  0.08766732  0.64778886  0.32739966  1
  O  O486  1  0.08504416  0.64798242  0.57741300  1
  O  O487  1  0.08879503  0.64846069  0.82879788  1
  O  O488  1  0.08909433  0.98192023  0.07705365  1
  O  O489  1  0.08817983  0.98289676  0.32827168  1
  O  O490  1  0.08623217  0.98265246  0.57689158  1
  O  O491  1  0.08868661  0.98091268  0.82830829  1
  O  O492  1  0.58457097  0.31601767  0.07709056  1
  O  O493  1  0.58596729  0.31456985  0.32760354  1
  O  O494  1  0.58629201  0.31664451  0.57656820  1
  O  O495  1  0.58513202  0.31437910  0.82735914  1
  O  O496  1  0.58536616  0.64768770  0.07701176  1
  O  O497  1  0.58543973  0.64874871  0.32741267  1
  O  O498  1  0.58893127  0.64657083  0.57794673  1
  O  O499  1  0.58847256  0.64782573  0.82718187  1
  O  O500  1  0.58757982  0.98171497  0.07754632  1
  O  O501  1  0.58778802  0.98197073  0.32750922  1
  O  O502  1  0.58927469  0.98202134  0.57750443  1
  O  O503  1  0.58915788  0.98311950  0.82894828  1
  O  O504  1  0.41339470  0.01768159  0.17214164  1
  O  O505  1  0.41431674  0.01748706  0.42261070  1
  O  O506  1  0.41335953  0.01897326  0.67276518  1
  O  O507  1  0.41291314  0.01881498  0.92387941  1
  O  O508  1  0.41126066  0.35169715  0.17180428  1
  O  O509  1  0.41036011  0.35174880  0.42208842  1
  O  O510  1  0.41225579  0.35027872  0.67190495  1
  O  O511  1  0.41036841  0.35068608  0.92178950  1
  O  O512  1  0.41291490  0.68517080  0.17142079  1
  O  O513  1  0.41430195  0.68548733  0.42260022  1
  O  O514  1  0.41354177  0.68529233  0.67289048  1
  O  O515  1  0.41173271  0.68535513  0.92330157  1
  O  O516  1  0.91435545  0.01816408  0.17262423  1
  O  O517  1  0.91280261  0.01863657  0.42318309  1
  O  O518  1  0.91330983  0.01734310  0.67190568  1
  O  O519  1  0.91201053  0.01843690  0.92401684  1
  O  O520  1  0.91455612  0.35232106  0.17213872  1
  O  O521  1  0.91185215  0.35107365  0.42337459  1
  O  O522  1  0.91035780  0.35210898  0.67328808  1
  O  O523  1  0.91317544  0.35166076  0.92345871  1
  O  O524  1  0.91426588  0.68406378  0.17134370  1
  O  O525  1  0.91191397  0.68546411  0.42175438  1
  O  O526  1  0.91189889  0.68531557  0.67252599  1
  O  O527  1  0.91326648  0.68529083  0.92389295  1
  O  O528  1  0.16202217  0.01857434  0.20224298  1
  O  O529  1  0.16064948  0.01864773  0.45232867  1
  O  O530  1  0.16161385  0.01850293  0.70138531  1
  O  O531  1  0.16414534  0.01820500  0.95365145  1
  O  O532  1  0.16432359  0.35158034  0.20126011  1
  O  O533  1  0.16493678  0.35035753  0.45229210  1
  O  O534  1  0.16379205  0.35138596  0.70241690  1
  O  O535  1  0.16309022  0.35142215  0.95243910  1
  O  O536  1  0.16250070  0.68485494  0.20156909  1
  O  O537  1  0.16290582  0.68516968  0.45242965  1
  O  O538  1  0.16197345  0.68480403  0.70251749  1
  O  O539  1  0.16281308  0.68514891  0.95287280  1
  O  O540  1  0.65986525  0.01752097  0.20261472  1
  O  O541  1  0.66258285  0.01866329  0.45225892  1
  O  O542  1  0.66143250  0.01818392  0.70422533  1
  O  O543  1  0.66201711  0.01756832  0.95321032  1
  O  O544  1  0.66076828  0.35177628  0.20116468  1
  O  O545  1  0.66308368  0.35035225  0.45274101  1
  O  O546  1  0.66213139  0.35267762  0.70181796  1
  O  O547  1  0.66382235  0.35179427  0.95253053  1
  O  O548  1  0.65974584  0.68572089  0.20151839  1
  O  O549  1  0.66118052  0.68610689  0.45123140  1
  O  O550  1  0.66279179  0.68428650  0.70331125  1
  O  O551  1  0.66369251  0.68524411  0.95302486  1
  O  O552  1  0.33823676  0.31478098  0.04684065  1
  O  O553  1  0.33956176  0.31586042  0.29665081  1
  O  O554  1  0.33765898  0.31528870  0.54713159  1
  O  O555  1  0.33921752  0.31554671  0.79702511  1
  O  O556  1  0.33651600  0.64858877  0.04799541  1
  O  O557  1  0.33970180  0.64753770  0.29769727  1
  O  O558  1  0.33842718  0.64781660  0.54742450  1
  O  O559  1  0.33727161  0.64758162  0.79784698  1
  O  O560  1  0.33761594  0.98159140  0.04858337  1
  O  O561  1  0.33944810  0.98173061  0.29823888  1
  O  O562  1  0.33629095  0.98191370  0.54721690  1
  O  O563  1  0.33708301  0.98195719  0.79771590  1
  O  O564  1  0.83753554  0.31483597  0.04781626  1
  O  O565  1  0.83695473  0.31483895  0.29717142  1
  O  O566  1  0.83580937  0.31396575  0.54739989  1
  O  O567  1  0.83735806  0.31625834  0.79733841  1
  O  O568  1  0.83894503  0.64870246  0.04818117  1
  O  O569  1  0.83720998  0.64843402  0.29636661  1
  O  O570  1  0.83792407  0.64766025  0.54778489  1
  O  O571  1  0.83727817  0.64708105  0.79779433  1
  O  O572  1  0.83565293  0.98230427  0.04806398  1
  O  O573  1  0.83483311  0.98184697  0.29745107  1
  O  O574  1  0.83595644  0.98348270  0.54759426  1
  O  O575  1  0.83674148  0.98177735  0.79787937  1
  O  O576  1  0.41276993  0.14791620  0.17176399  1
  O  O577  1  0.41384908  0.14756669  0.42255242  1
  O  O578  1  0.41274451  0.14929830  0.67139296  1
  O  O579  1  0.41283081  0.14871522  0.92310056  1
  O  O580  1  0.41120167  0.48191248  0.17177402  1
  O  O581  1  0.41046817  0.48200298  0.42197332  1
  O  O582  1  0.41202376  0.48027149  0.67304826  1
  O  O583  1  0.41014773  0.48065237  0.92277220  1
  O  O584  1  0.41324379  0.81540126  0.17173074  1
  O  O585  1  0.41466437  0.81574594  0.42267542  1
  O  O586  1  0.41351554  0.81556148  0.67291951  1
  O  O587  1  0.41211812  0.81526555  0.92355453  1
  O  O588  1  0.91426651  0.14834072  0.17241779  1
  O  O589  1  0.91327408  0.14845964  0.42365594  1
  O  O590  1  0.91290221  0.14763333  0.67251382  1
  O  O591  1  0.91221738  0.14831064  0.92394268  1
  O  O592  1  0.91484226  0.48249100  0.17135851  1
  O  O593  1  0.91119080  0.48098845  0.42266529  1
  O  O594  1  0.91094818  0.48229200  0.67274849  1
  O  O595  1  0.91284935  0.48155633  0.92317506  1
  O  O596  1  0.91372380  0.81434763  0.17230329  1
  O  O597  1  0.91241715  0.81558938  0.42201622  1
  O  O598  1  0.91195346  0.81593807  0.67207366  1
  O  O599  1  0.91402805  0.81522554  0.92447171  1
  O  O600  1  0.08980089  0.18499961  0.07709538  1
  O  O601  1  0.08849187  0.18419457  0.32871237  1
  O  O602  1  0.08819584  0.18441059  0.57751350  1
  O  O603  1  0.08926292  0.18577744  0.82817365  1
  O  O604  1  0.08820920  0.51814091  0.07655968  1
  O  O605  1  0.08750907  0.51767109  0.32728534  1
  O  O606  1  0.08487081  0.51791329  0.57711468  1
  O  O607  1  0.08853816  0.51787750  0.82832394  1
  O  O608  1  0.08939744  0.85187869  0.07731614  1
  O  O609  1  0.08822718  0.85273111  0.32754142  1
  O  O610  1  0.08665640  0.85275666  0.57647267  1
  O  O611  1  0.08779398  0.85042539  0.82887063  1
  O  O612  1  0.58535124  0.18585139  0.07749123  1
  O  O613  1  0.58591452  0.18433665  0.32817784  1
  O  O614  1  0.58714423  0.18678278  0.57645445  1
  O  O615  1  0.58501074  0.18424482  0.82795726  1
  O  O616  1  0.58486967  0.51753041  0.07701169  1
  O  O617  1  0.58514255  0.51861914  0.32674611  1
  O  O618  1  0.58785254  0.51628456  0.57806484  1
  O  O619  1  0.58809215  0.51778152  0.82700461  1
  O  O620  1  0.58770549  0.85167424  0.07725700  1
  O  O621  1  0.58781101  0.85175237  0.32757580  1
  O  O622  1  0.58971340  0.85215306  0.57738349  1
  O  O623  1  0.58981013  0.85289964  0.82784398  1
  O  O624  1  0.33779033  0.18465333  0.04778819  1
  O  O625  1  0.33990506  0.18575161  0.29802653  1
  O  O626  1  0.33792139  0.18535787  0.54779999  1
  O  O627  1  0.33964926  0.18550413  0.79759225  1
  O  O628  1  0.33666276  0.51856112  0.04763988  1
  O  O629  1  0.33923997  0.51736941  0.29648744  1
  O  O630  1  0.33860366  0.51755528  0.54631045  1
  O  O631  1  0.33729972  0.51736589  0.79730303  1
  O  O632  1  0.33736417  0.85153861  0.04826954  1
  O  O633  1  0.33969278  0.85173676  0.29802558  1
  O  O634  1  0.33616545  0.85187757  0.54737376  1
  O  O635  1  0.33719265  0.85192728  0.79783114  1
  O  O636  1  0.83727408  0.18436383  0.04764298  1
  O  O637  1  0.83642113  0.18464769  0.29737934  1
  O  O638  1  0.83544604  0.18381942  0.54728340  1
  O  O639  1  0.83722126  0.18606573  0.79810539  1
  O  O640  1  0.83935212  0.51854786  0.04817764  1
  O  O641  1  0.83757007  0.51808954  0.29630582  1
  O  O642  1  0.83771720  0.51748288  0.54723517  1
  O  O643  1  0.83674770  0.51697555  0.79712280  1
  O  O644  1  0.83591334  0.85202290  0.04810588  1
  O  O645  1  0.83470815  0.85179642  0.29747821  1
  O  O646  1  0.83649689  0.85338701  0.54794750  1
  O  O647  1  0.83680328  0.85170510  0.79773287  1
  O  O648  1  0.16193263  0.14849249  0.20237918  1
  O  O649  1  0.16095714  0.14888125  0.45265520  1
  O  O650  1  0.16190722  0.14834964  0.70149486  1
  O  O651  1  0.16446573  0.14840564  0.95326358  1
  O  O652  1  0.16416025  0.48144816  0.20132017  1
  O  O653  1  0.16457967  0.48061695  0.45209537  1
  O  O654  1  0.16398085  0.48128158  0.70206903  1
  O  O655  1  0.16292562  0.48160129  0.95250027  1
  O  O656  1  0.16242992  0.81481211  0.20152556  1
  O  O657  1  0.16269289  0.81563530  0.45247041  1
  O  O658  1  0.16170048  0.81491789  0.70267025  1
  O  O659  1  0.16297527  0.81542166  0.95307481  1
  O  O660  1  0.65952349  0.14758381  0.20179528  1
  O  O661  1  0.66257587  0.14868709  0.45202871  1
  O  O662  1  0.66152383  0.14843836  0.70338033  1
  O  O663  1  0.66148566  0.14764858  0.95216048  1
  O  O664  1  0.66116659  0.48161062  0.20082624  1
  O  O665  1  0.66293534  0.48051357  0.45215807  1
  O  O666  1  0.66325309  0.48261330  0.70213522  1
  O  O667  1  0.66348242  0.48187245  0.95292904  1
  O  O668  1  0.65994555  0.81582351  0.20256948  1
  O  O669  1  0.66191166  0.81629600  0.45246877  1
  O  O670  1  0.66250249  0.81466377  0.70340159  1
  O  O671  1  0.66356880  0.81541933  0.95372012  1
