# generated using pymatgen
data_Na2MnFe(PO4)2
_symmetry_space_group_name_H-M   'P 1'
_cell_length_a   21.08636079
_cell_length_b   18.93901005
_cell_length_c   20.04489349
_cell_angle_alpha   89.99971681
_cell_angle_beta   89.99685449
_cell_angle_gamma   89.99873414
_symmetry_Int_Tables_number   1
_chemical_formula_structural   Na2MnFe(PO4)2
_chemical_formula_sum   'Na96 Mn48 Fe48 P96 O384'
_cell_volume   8005.02439817
_cell_formula_units_Z   48
loop_
 _symmetry_equiv_pos_site_id
 _symmetry_equiv_pos_as_xyz
  1  'x, y, z'
loop_
 _atom_site_type_symbol
 _atom_site_label
 _atom_site_symmetry_multiplicity
 _atom_site_fract_x
 _atom_site_fract_y
 _atom_site_fract_z
 _atom_site_occupancy
  Na  Na0  1  -0.00233038  -0.00014120  0.00148298  1
  Na  Na1  1  -0.00350555  -0.00111426  0.25004510  1
  Na  Na2  1  -0.00057204  -0.00015664  0.49873741  1
  Na  Na3  1  -0.00192113  -0.00063452  0.74988071  1
  Na  Na4  1  0.00046105  0.33336970  0.00026089  1
  Na  Na5  1  0.00086226  0.33371672  0.24952690  1
  Na  Na6  1  0.00179480  0.33457872  0.49934518  1
  Na  Na7  1  -0.00021321  0.33309118  0.75109303  1
  Na  Na8  1  0.00110430  0.66738462  -0.00081738  1
  Na  Na9  1  0.00100227  0.66690263  0.24993206  1
  Na  Na10  1  0.00161905  0.66715357  0.50000216  1
  Na  Na11  1  0.00069985  0.66639769  0.75085818  1
  Na  Na12  1  0.50092188  -0.00034775  -0.00018786  1
  Na  Na13  1  0.50028698  -0.00098853  0.25044071  1
  Na  Na14  1  0.50280161  0.00051275  0.49992497  1
  Na  Na15  1  0.50189591  -0.00001407  0.74985153  1
  Na  Na16  1  0.50119765  0.33375753  0.00024156  1
  Na  Na17  1  0.50159382  0.33365935  0.24872349  1
  Na  Na18  1  0.49901279  0.33337951  0.50004040  1
  Na  Na19  1  0.49842222  0.33364791  0.75158460  1
  Na  Na20  1  0.49959897  0.66736564  0.00070022  1
  Na  Na21  1  0.49698044  0.66604698  0.25054951  1
  Na  Na22  1  0.49961571  0.66710512  0.49939859  1
  Na  Na23  1  0.50173161  0.66801793  0.74922316  1
  Na  Na24  1  0.25144818  0.00055626  0.12502667  1
  Na  Na25  1  0.25062038  -0.00053797  0.37421589  1
  Na  Na26  1  0.24928350  -0.00060125  0.62516624  1
  Na  Na27  1  0.24859491  -0.00066089  0.87496431  1
  Na  Na28  1  0.25004403  0.33270940  0.12524668  1
  Na  Na29  1  0.24969831  0.33300508  0.37630991  1
  Na  Na30  1  0.25081401  0.33347864  0.62368493  1
  Na  Na31  1  0.25266296  0.33385213  0.87418785  1
  Na  Na32  1  0.25027581  0.66745074  0.12559322  1
  Na  Na33  1  0.24987909  0.66761036  0.37547998  1
  Na  Na34  1  0.24712572  0.66620345  0.62365501  1
  Na  Na35  1  0.24812567  0.66632501  0.87504230  1
  Na  Na36  1  0.75236993  0.00059207  0.12530785  1
  Na  Na37  1  0.75111547  -0.00015522  0.37411168  1
  Na  Na38  1  0.74994943  -0.00080030  0.62539782  1
  Na  Na39  1  0.75070105  -0.00017029  0.87464440  1
  Na  Na40  1  0.74713972  0.33314597  0.12514950  1
  Na  Na41  1  0.74764554  0.33391732  0.37559970  1
  Na  Na42  1  0.74927484  0.33429686  0.62515381  1
  Na  Na43  1  0.74832299  0.33379140  0.87542571  1
  Na  Na44  1  0.75132506  0.66732459  0.12490236  1
  Na  Na45  1  0.75029570  0.66668626  0.37577030  1
  Na  Na46  1  0.75014570  0.66654694  0.62561048  1
  Na  Na47  1  0.75165949  0.66749980  0.87348441  1
  Na  Na48  1  0.00087693  0.16675955  0.00113046  1
  Na  Na49  1  0.00034166  0.16658846  0.24881132  1
  Na  Na50  1  -0.00010907  0.16680475  0.49890377  1
  Na  Na51  1  0.00131367  0.16610340  0.75044512  1
  Na  Na52  1  0.00107283  0.49953661  -0.00048124  1
  Na  Na53  1  -0.00030318  0.50016502  0.25072930  1
  Na  Na54  1  0.00175344  0.49927370  0.49995489  1
  Na  Na55  1  -0.00008303  0.50048971  0.75111639  1
  Na  Na56  1  -0.00304249  0.83387130  -0.00021413  1
  Na  Na57  1  -0.00112864  0.83316606  0.25011390  1
  Na  Na58  1  0.00057595  0.83275205  0.49909514  1
  Na  Na59  1  -0.00209594  0.83378260  0.75041053  1
  Na  Na60  1  0.50279374  0.16593688  0.00093984  1
  Na  Na61  1  0.50272293  0.16566242  0.24944300  1
  Na  Na62  1  0.49897239  0.16740557  0.50019319  1
  Na  Na63  1  0.49870473  0.16801447  0.75076869  1
  Na  Na64  1  0.50027642  0.49951455  -0.00048663  1
  Na  Na65  1  0.50088752  0.49954687  0.24960732  1
  Na  Na66  1  0.50278297  0.49902659  0.50004034  1
  Na  Na67  1  0.50049225  0.50014635  0.75021522  1
  Na  Na68  1  0.49884060  0.83316772  0.00061788  1
  Na  Na69  1  0.49697776  0.83398187  0.25074902  1
  Na  Na70  1  0.49917619  0.83308416  0.49917281  1
  Na  Na71  1  0.50145544  0.83222311  0.74927654  1
  Na  Na72  1  0.24853886  0.16796430  0.12388068  1
  Na  Na73  1  0.25050205  0.16697321  0.37564790  1
  Na  Na74  1  0.25129178  0.16667507  0.62531554  1
  Na  Na75  1  0.24934937  0.16744111  0.87383356  1
  Na  Na76  1  0.24967903  0.49978100  0.12605824  1
  Na  Na77  1  0.24885483  0.50013552  0.37553079  1
  Na  Na78  1  0.24810311  0.50096193  0.62328248  1
  Na  Na79  1  0.24944074  0.50003443  0.87455836  1
  Na  Na80  1  0.25222604  0.83275870  0.12604773  1
  Na  Na81  1  0.25078100  0.83298830  0.37483513  1
  Na  Na82  1  0.24789829  0.83356787  0.62414648  1
  Na  Na83  1  0.25135125  0.83217328  0.87579980  1
  Na  Na84  1  0.74813315  0.16656946  0.12566140  1
  Na  Na85  1  0.74771980  0.16704941  0.37478571  1
  Na  Na86  1  0.75006289  0.16617379  0.62565084  1
  Na  Na87  1  0.74943019  0.16649997  0.87515893  1
  Na  Na88  1  0.74957923  0.49952055  0.12522254  1
  Na  Na89  1  0.74888446  0.49982297  0.37559721  1
  Na  Na90  1  0.74911609  0.49980494  0.62539146  1
  Na  Na91  1  0.74887652  0.50008507  0.87444947  1
  Na  Na92  1  0.75299905  0.83245329  0.12425775  1
  Na  Na93  1  0.75112633  0.83327915  0.37532026  1
  Na  Na94  1  0.75070929  0.83312937  0.62503755  1
  Na  Na95  1  0.75209611  0.83283640  0.87405655  1
  Mn  Mn96  1  0.85744989  0.41670768  0.50249172  1
  Mn  Mn97  1  0.39171121  0.58372299  0.87679593  1
  Mn  Mn98  1  0.39230559  0.58317448  0.62687422  1
  Mn  Mn99  1  0.64303356  0.91616499  0.99807853  1
  Mn  Mn100  1  0.85800492  0.74938076  0.50269145  1
  Mn  Mn101  1  0.89214391  0.25068494  0.62732021  1
  Mn  Mn102  1  0.64162326  0.25025720  0.74798504  1
  Mn  Mn103  1  0.10809917  0.41723907  0.12258360  1
  Mn  Mn104  1  0.35848693  0.08222802  0.50205896  1
  Mn  Mn105  1  0.85712221  0.08373605  0.50192952  1
  Mn  Mn106  1  0.14263343  0.91751165  0.24740560  1
  Mn  Mn107  1  0.14204987  0.91691158  0.99829013  1
  Mn  Mn108  1  0.64189347  0.58403155  0.99733176  1
  Mn  Mn109  1  0.10774145  0.08337288  0.37196044  1
  Mn  Mn110  1  0.35819798  0.41663800  0.25260581  1
  Mn  Mn111  1  0.35771550  0.41761845  0.50209511  1
  Mn  Mn112  1  0.85840253  0.08399476  0.75278683  1
  Mn  Mn113  1  0.89245896  0.58333710  0.12702324  1
  Mn  Mn114  1  0.39170206  0.58346320  0.12724364  1
  Mn  Mn115  1  0.64203867  0.58402168  0.24799634  1
  Mn  Mn116  1  0.10768330  0.08301709  0.62221494  1
  Mn  Mn117  1  0.64249224  0.58354281  0.74776594  1
  Mn  Mn118  1  0.60680586  0.74989912  0.37249676  1
  Mn  Mn119  1  0.39256649  0.91692364  0.87692379  1
  Mn  Mn120  1  0.89270531  0.58325949  0.87747625  1
  Mn  Mn121  1  0.14251888  0.24958601  0.49766500  1
  Mn  Mn122  1  0.60786968  0.08350104  0.62245673  1
  Mn  Mn123  1  0.85681389  0.41635310  0.00238753  1
  Mn  Mn124  1  0.39321101  0.24904683  0.12697366  1
  Mn  Mn125  1  0.35823042  0.08328045  0.00190876  1
  Mn  Mn126  1  0.39249484  0.91674333  0.62697497  1
  Mn  Mn127  1  0.35884228  0.08372770  0.25212353  1
  Mn  Mn128  1  0.89254233  0.58323986  0.37759294  1
  Mn  Mn129  1  0.10718919  0.08252995  0.12274765  1
  Mn  Mn130  1  0.35749128  0.74932398  0.75134367  1
  Mn  Mn131  1  0.89158195  0.25034447  0.12759255  1
  Mn  Mn132  1  0.35803968  0.08301885  0.75281782  1
  Mn  Mn133  1  0.89214680  0.24944488  0.87789921  1
  Mn  Mn134  1  0.10893758  0.41584421  0.87239835  1
  Mn  Mn135  1  0.89163741  0.25014073  0.37675109  1
  Mn  Mn136  1  0.64089026  0.24984840  0.49764219  1
  Mn  Mn137  1  0.14259526  0.58317140  0.24779137  1
  Mn  Mn138  1  0.60769818  0.75018976  0.12328896  1
  Mn  Mn139  1  0.64314619  0.91622564  0.74801842  1
  Mn  Mn140  1  0.10763952  0.75134974  0.87310102  1
  Mn  Mn141  1  0.14094256  0.91608307  0.74781553  1
  Mn  Mn142  1  0.64293061  0.91605840  0.24789326  1
  Mn  Mn143  1  0.14303476  0.25095802  0.74739531  1
  Fe  Fe144  1  0.14317859  0.25042445  0.99797571  1
  Fe  Fe145  1  0.85634527  0.41641395  0.25185553  1
  Fe  Fe146  1  0.39265714  0.25036178  0.62665009  1
  Fe  Fe147  1  0.14298706  0.24979228  0.24869488  1
  Fe  Fe148  1  0.85790525  0.74907566  0.75109362  1
  Fe  Fe149  1  0.60804645  0.75000919  0.87378620  1
  Fe  Fe150  1  0.10648807  0.74997113  0.62346663  1
  Fe  Fe151  1  0.85624292  0.08424860  0.25204544  1
  Fe  Fe152  1  0.60726169  0.08328826  0.37327552  1
  Fe  Fe153  1  0.35750196  0.41770166  0.75098237  1
  Fe  Fe154  1  0.14218559  0.58294890  0.74777451  1
  Fe  Fe155  1  0.64208127  0.25013972  0.24879835  1
  Fe  Fe156  1  0.10683961  0.08295250  0.87416317  1
  Fe  Fe157  1  0.85766347  0.74965994  0.00184014  1
  Fe  Fe158  1  0.85836502  0.74923413  0.25204664  1
  Fe  Fe159  1  0.60818566  0.74972309  0.62233791  1
  Fe  Fe160  1  0.89288119  0.91633370  0.37696349  1
  Fe  Fe161  1  0.85737406  0.41675786  0.75150750  1
  Fe  Fe162  1  0.60699245  0.41713681  0.62390406  1
  Fe  Fe163  1  0.39291000  0.91704079  0.37768177  1
  Fe  Fe164  1  0.89271887  0.91614531  0.62578579  1
  Fe  Fe165  1  0.39254482  0.58298021  0.37744686  1
  Fe  Fe166  1  0.89330026  0.58318599  0.62646991  1
  Fe  Fe167  1  0.35677986  0.74986249  0.25229083  1
  Fe  Fe168  1  0.85697569  0.08375379  0.00185200  1
  Fe  Fe169  1  0.89235131  0.91745559  0.87719652  1
  Fe  Fe170  1  0.60751947  0.41690873  0.12281493  1
  Fe  Fe171  1  0.64302256  0.91589347  0.49808763  1
  Fe  Fe172  1  0.35585572  0.75012250  0.50183721  1
  Fe  Fe173  1  0.10737966  0.41640409  0.37269069  1
  Fe  Fe174  1  0.35759606  0.74955451  0.00177375  1
  Fe  Fe175  1  0.39328645  0.24989489  0.37560944  1
  Fe  Fe176  1  0.39348910  0.24976997  0.87735714  1
  Fe  Fe177  1  0.14196307  0.58396832  0.49794107  1
  Fe  Fe178  1  0.64254817  0.58404574  0.49840669  1
  Fe  Fe179  1  0.10743297  0.41695305  0.62396649  1
  Fe  Fe180  1  0.64259596  0.24964842  0.99790845  1
  Fe  Fe181  1  0.89235671  0.91622839  0.12701983  1
  Fe  Fe182  1  0.60633621  0.41717290  0.87298630  1
  Fe  Fe183  1  0.60835168  0.08240671  0.12295227  1
  Fe  Fe184  1  0.60794451  0.08285649  0.87368516  1
  Fe  Fe185  1  0.10721752  0.75027693  0.37271109  1
  Fe  Fe186  1  0.39280998  0.91724527  0.12632958  1
  Fe  Fe187  1  0.60675543  0.41653283  0.37322360  1
  Fe  Fe188  1  0.10720604  0.75035662  0.12324738  1
  Fe  Fe189  1  0.14332432  0.58303551  0.99890752  1
  Fe  Fe190  1  0.14189887  0.91642717  0.49779732  1
  Fe  Fe191  1  0.35748432  0.41703512  0.00139279  1
  P  P192  1  0.05508997  0.25017891  0.11044852  1
  P  P193  1  0.05385258  0.25058678  0.35893501  1
  P  P194  1  0.05328734  0.25098623  0.60986957  1
  P  P195  1  0.05497241  0.24891838  0.86140166  1
  P  P196  1  0.05427442  0.58433058  0.10934446  1
  P  P197  1  0.05498687  0.58353698  0.36126821  1
  P  P198  1  0.05408884  0.58326477  0.61098994  1
  P  P199  1  0.05606479  0.58333689  0.86081818  1
  P  P200  1  0.05173579  0.91561344  0.11041303  1
  P  P201  1  0.05344627  0.91596300  0.36050782  1
  P  P202  1  0.05220096  0.91559822  0.60921751  1
  P  P203  1  0.05154692  0.91782551  0.86072095  1
  P  P204  1  0.55626703  0.24971933  0.11078776  1
  P  P205  1  0.55277803  0.25013822  0.35905220  1
  P  P206  1  0.55173662  0.25127933  0.61077118  1
  P  P207  1  0.55387295  0.25014767  0.86183237  1
  P  P208  1  0.55308682  0.58323189  0.11005104  1
  P  P209  1  0.55288491  0.58303771  0.36118115  1
  P  P210  1  0.55423286  0.58360852  0.60969236  1
  P  P211  1  0.55328595  0.58407331  0.85995985  1
  P  P212  1  0.55270184  0.91663148  0.11038375  1
  P  P213  1  0.55353782  0.91669867  0.36120634  1
  P  P214  1  0.55467436  0.91542387  0.60913607  1
  P  P215  1  0.55413326  0.91583590  0.86026475  1
  P  P216  1  0.44874571  0.08259307  0.13976740  1
  P  P217  1  0.44817359  0.08346741  0.38962463  1
  P  P218  1  0.44694069  0.08358217  0.64027307  1
  P  P219  1  0.44854823  0.08382941  0.89017899  1
  P  P220  1  0.44673298  0.41635553  0.13856073  1
  P  P221  1  0.44761597  0.41654513  0.38951780  1
  P  P222  1  0.44724249  0.41685724  0.64064864  1
  P  P223  1  0.44560050  0.41660259  0.88932030  1
  P  P224  1  0.44444511  0.75089134  0.13990240  1
  P  P225  1  0.44374429  0.74989391  0.38946910  1
  P  P226  1  0.44691168  0.74986029  0.63830007  1
  P  P227  1  0.44735553  0.74990465  0.89022777  1
  P  P228  1  0.94396497  0.08306000  0.13960685  1
  P  P229  1  0.94486401  0.08313995  0.38831154  1
  P  P230  1  0.94653230  0.08278150  0.63955334  1
  P  P231  1  0.94697805  0.08314257  0.89131434  1
  P  P232  1  0.94590013  0.41683087  0.14085601  1
  P  P233  1  0.94643982  0.41649058  0.38891823  1
  P  P234  1  0.94759516  0.41780758  0.64055076  1
  P  P235  1  0.94599296  0.41640325  0.88946803  1
  P  P236  1  0.94612979  0.75007309  0.13938419  1
  P  P237  1  0.94660967  0.75021377  0.38900052  1
  P  P238  1  0.94725698  0.74946636  0.64003373  1
  P  P239  1  0.94474341  0.75058370  0.88926338  1
  P  P240  1  0.19728166  0.08433469  0.23458381  1
  P  P241  1  0.19684570  0.08230969  0.48461078  1
  P  P242  1  0.19549573  0.08329419  0.73595279  1
  P  P243  1  0.19618992  0.08395932  0.98431678  1
  P  P244  1  0.19589779  0.41555581  0.23633876  1
  P  P245  1  0.19430241  0.41749335  0.48562953  1
  P  P246  1  0.19781453  0.41726298  0.73371549  1
  P  P247  1  0.19813036  0.41650226  0.98510778  1
  P  P248  1  0.19590661  0.75043873  0.23565774  1
  P  P249  1  0.19444322  0.75037578  0.48546893  1
  P  P250  1  0.19548694  0.74930077  0.73415421  1
  P  P251  1  0.19665792  0.74979873  0.98673963  1
  P  P252  1  0.69554884  0.08332912  0.23595861  1
  P  P253  1  0.69566637  0.08199316  0.48422771  1
  P  P254  1  0.69578574  0.08322083  0.73615664  1
  P  P255  1  0.69634408  0.08326798  0.98569366  1
  P  P256  1  0.69505237  0.41651093  0.23596025  1
  P  P257  1  0.69408256  0.41789780  0.48598321  1
  P  P258  1  0.69562176  0.41687053  0.73566359  1
  P  P259  1  0.69415928  0.41630939  0.98529663  1
  P  P260  1  0.69862373  0.75024737  0.23516023  1
  P  P261  1  0.69561677  0.74979565  0.48597461  1
  P  P262  1  0.69658685  0.74984155  0.73529591  1
  P  P263  1  0.69802317  0.75032273  0.98418458  1
  P  P264  1  0.30414861  0.25059053  0.01353867  1
  P  P265  1  0.30318266  0.24999203  0.26565054  1
  P  P266  1  0.30588021  0.24989245  0.51421790  1
  P  P267  1  0.30625211  0.25133229  0.76410907  1
  P  P268  1  0.30236348  0.58304515  0.01484167  1
  P  P269  1  0.30404792  0.58388205  0.26612190  1
  P  P270  1  0.30290185  0.58444759  0.51346507  1
  P  P271  1  0.30164467  0.58287395  0.76417754  1
  P  P272  1  0.30411198  0.91609062  0.01564140  1
  P  P273  1  0.30569926  0.91630854  0.26450697  1
  P  P274  1  0.30293867  0.91567001  0.51382114  1
  P  P275  1  0.30264635  0.91595563  0.76504736  1
  P  P276  1  0.80150074  0.24935262  0.01523203  1
  P  P277  1  0.80126332  0.25055741  0.26500889  1
  P  P278  1  0.80218794  0.25022360  0.51511001  1
  P  P279  1  0.80320828  0.25137201  0.76539971  1
  P  P280  1  0.80312871  0.58382269  0.01478492  1
  P  P281  1  0.80349428  0.58288193  0.26527345  1
  P  P282  1  0.80273725  0.58300598  0.51600158  1
  P  P283  1  0.80528826  0.58279721  0.76339573  1
  P  P284  1  0.80564386  0.91684708  0.01415041  1
  P  P285  1  0.80587352  0.91629632  0.26433207  1
  P  P286  1  0.80387698  0.91648593  0.51430749  1
  P  P287  1  0.80619125  0.91557566  0.76404925  1
  O  O288  1  0.05949291  0.25017670  0.18713825  1
  O  O289  1  0.05696375  0.24979433  0.43569671  1
  O  O290  1  0.05649444  0.25034531  0.68668448  1
  O  O291  1  0.05936328  0.25043690  0.93814872  1
  O  O292  1  0.05709255  0.58335464  0.18617785  1
  O  O293  1  0.05846262  0.58366907  0.43804997  1
  O  O294  1  0.05817522  0.58303590  0.68778115  1
  O  O295  1  0.06063844  0.58295167  0.93755903  1
  O  O296  1  0.05580851  0.91626994  0.18706701  1
  O  O297  1  0.05821581  0.91660824  0.43717241  1
  O  O298  1  0.05538684  0.91629080  0.68598022  1
  O  O299  1  0.05543849  0.91692177  0.93736771  1
  O  O300  1  0.55983889  0.24985122  0.18755669  1
  O  O301  1  0.55552710  0.25020510  0.43657006  1
  O  O302  1  0.55528965  0.25091520  0.68722498  1
  O  O303  1  0.55838367  0.24986513  0.93855883  1
  O  O304  1  0.55610991  0.58392701  0.18684621  1
  O  O305  1  0.55790929  0.58403844  0.43780204  1
  O  O306  1  0.55706472  0.58396579  0.68614486  1
  O  O307  1  0.55580493  0.58403651  0.93682705  1
  O  O308  1  0.55643622  0.91578904  0.18706403  1
  O  O309  1  0.55868526  0.91583562  0.43778669  1
  O  O310  1  0.55782467  0.91567723  0.68591614  1
  O  O311  1  0.55683402  0.91574210  0.93704166  1
  O  O312  1  0.44466216  0.08330400  0.06312288  1
  O  O313  1  0.44500911  0.08303373  0.31296275  1
  O  O314  1  0.44404638  0.08260628  0.56343139  1
  O  O315  1  0.44450880  0.08340344  0.81353117  1
  O  O316  1  0.44148114  0.41668378  0.06189576  1
  O  O317  1  0.44448447  0.41690422  0.31292103  1
  O  O318  1  0.44356137  0.41773423  0.56359760  1
  O  O319  1  0.44098724  0.41780155  0.81271611  1
  O  O320  1  0.44052334  0.74966715  0.06307240  1
  O  O321  1  0.44009784  0.74978478  0.31266451  1
  O  O322  1  0.44092432  0.74981876  0.56173649  1
  O  O323  1  0.44349268  0.74962624  0.81352604  1
  O  O324  1  0.94001345  0.08458423  0.06285257  1
  O  O325  1  0.94025612  0.08431664  0.31155840  1
  O  O326  1  0.94347549  0.08352267  0.56278915  1
  O  O327  1  0.94373364  0.08415585  0.81451930  1
  O  O328  1  0.94245940  0.41649955  0.06406104  1
  O  O329  1  0.94073887  0.41639495  0.31231304  1
  O  O330  1  0.94393778  0.41724829  0.56381981  1
  O  O331  1  0.94131910  0.41641951  0.81277000  1
  O  O332  1  0.94151495  0.74922865  0.06267728  1
  O  O333  1  0.94197613  0.74927611  0.31230701  1
  O  O334  1  0.94414015  0.74921906  0.56329841  1
  O  O335  1  0.94112478  0.74925603  0.81247192  1
  O  O336  1  0.19304363  0.08308413  0.06112018  1
  O  O337  1  0.19401846  0.08325064  0.31133323  1
  O  O338  1  0.19375203  0.08287926  0.56143280  1
  O  O339  1  0.19083644  0.08291357  0.81263532  1
  O  O340  1  0.19462297  0.41621204  0.06179609  1
  O  O341  1  0.19176886  0.41615593  0.31308677  1
  O  O342  1  0.19039613  0.41682239  0.56229031  1
  O  O343  1  0.19453382  0.41621841  0.81049421  1
  O  O344  1  0.19195108  0.75094399  0.06342869  1
  O  O345  1  0.19103234  0.75070375  0.31235254  1
  O  O346  1  0.18976325  0.75046214  0.56215519  1
  O  O347  1  0.19296279  0.75056256  0.81092828  1
  O  O348  1  0.69197020  0.08222894  0.06246548  1
  O  O349  1  0.69053030  0.08250675  0.31264501  1
  O  O350  1  0.69317695  0.08292724  0.56104434  1
  O  O351  1  0.69115844  0.08326696  0.81292425  1
  O  O352  1  0.69046188  0.41734192  0.06214981  1
  O  O353  1  0.69019528  0.41716263  0.31271382  1
  O  O354  1  0.68996728  0.41674292  0.56269482  1
  O  O355  1  0.69034921  0.41690655  0.81235452  1
  O  O356  1  0.69363503  0.75032331  0.06086832  1
  O  O357  1  0.69369854  0.75041449  0.31178883  1
  O  O358  1  0.69205837  0.74986797  0.56276838  1
  O  O359  1  0.69185962  0.74999994  0.81197848  1
  O  O360  1  0.30730882  0.24993643  0.18891253  1
  O  O361  1  0.31056411  0.24997395  0.43748977  1
  O  O362  1  0.31014195  0.25031757  0.68724013  1
  O  O363  1  0.30937828  0.24963570  0.93687277  1
  O  O364  1  0.30681169  0.58294662  0.18928949  1
  O  O365  1  0.30822522  0.58320325  0.43691292  1
  O  O366  1  0.30545907  0.58362029  0.68748338  1
  O  O367  1  0.30549571  0.58325974  0.93812785  1
  O  O368  1  0.30984196  0.91753965  0.18775622  1
  O  O369  1  0.30836212  0.91683801  0.43716604  1
  O  O370  1  0.30608937  0.91631339  0.68825465  1
  O  O371  1  0.30699185  0.91673015  0.93884272  1
  O  O372  1  0.80485917  0.25048723  0.18828135  1
  O  O373  1  0.80533397  0.25049445  0.43856151  1
  O  O374  1  0.80629067  0.25073769  0.68859909  1
  O  O375  1  0.80547059  0.24990851  0.93857754  1
  O  O376  1  0.80639166  0.58303968  0.18853091  1
  O  O377  1  0.80690906  0.58300995  0.43930402  1
  O  O378  1  0.80933781  0.58277997  0.68657161  1
  O  O379  1  0.80628050  0.58315835  0.93803206  1
  O  O380  1  0.80941201  0.91595745  0.18745528  1
  O  O381  1  0.80885135  0.91622753  0.43761075  1
  O  O382  1  0.80998747  0.91632093  0.68722985  1
  O  O383  1  0.80885898  0.91722420  0.93729201  1
  O  O384  1  0.23374779  0.25038577  0.03703419  1
  O  O385  1  0.23311700  0.24990609  0.28999923  1
  O  O386  1  0.23569714  0.24996938  0.53778164  1
  O  O387  1  0.23611952  0.25074021  0.78800171  1
  O  O388  1  0.23257065  0.58332088  0.04036931  1
  O  O389  1  0.23428759  0.58368166  0.29099327  1
  O  O390  1  0.23243367  0.58415527  0.53658537  1
  O  O391  1  0.23169068  0.58304358  0.78893176  1
  O  O392  1  0.23441789  0.91677165  0.04093126  1
  O  O393  1  0.23551251  0.91663094  0.28835201  1
  O  O394  1  0.23249922  0.91577520  0.53716056  1
  O  O395  1  0.23293941  0.91550491  0.79004778  1
  O  O396  1  0.73143120  0.24969318  0.03966595  1
  O  O397  1  0.73116579  0.25044513  0.28964571  1
  O  O398  1  0.73222931  0.25011752  0.54032221  1
  O  O399  1  0.73357348  0.25075762  0.79058896  1
  O  O400  1  0.73352927  0.58371921  0.04010453  1
  O  O401  1  0.73387574  0.58329602  0.29077454  1
  O  O402  1  0.73258118  0.58336965  0.53999728  1
  O  O403  1  0.73547948  0.58321822  0.78782577  1
  O  O404  1  0.73579229  0.91652869  0.03914166  1
  O  O405  1  0.73583144  0.91640617  0.28870798  1
  O  O406  1  0.73354334  0.91609714  0.53787241  1
  O  O407  1  0.73615709  0.91643996  0.78830748  1
  O  O408  1  0.26694911  0.08436054  0.20941044  1
  O  O409  1  0.26654413  0.08270356  0.45950932  1
  O  O410  1  0.26558013  0.08352862  0.71195536  1
  O  O411  1  0.26596743  0.08335645  0.95931121  1
  O  O412  1  0.26584724  0.41633349  0.21193851  1
  O  O413  1  0.26465336  0.41695915  0.46169694  1
  O  O414  1  0.26769785  0.41719580  0.70870633  1
  O  O415  1  0.26804387  0.41665661  0.95999865  1
  O  O416  1  0.26645511  0.75006228  0.21266250  1
  O  O417  1  0.26485362  0.75017351  0.46182125  1
  O  O418  1  0.26503227  0.74974478  0.70847717  1
  O  O419  1  0.26695661  0.74958931  0.96269580  1
  O  O420  1  0.76610775  0.08320554  0.21274175  1
  O  O421  1  0.76511851  0.08318834  0.45867898  1
  O  O422  1  0.76584991  0.08283548  0.71229264  1
  O  O423  1  0.76667212  0.08299231  0.96180331  1
  O  O424  1  0.76545274  0.41669957  0.21229206  1
  O  O425  1  0.76410315  0.41710978  0.46187166  1
  O  O426  1  0.76606453  0.41712521  0.71228255  1
  O  O427  1  0.76416542  0.41699352  0.96102930  1
  O  O428  1  0.76887118  0.75000756  0.21145448  1
  O  O429  1  0.76556147  0.74965667  0.46149201  1
  O  O430  1  0.76707248  0.74947753  0.71177275  1
  O  O431  1  0.76824274  0.75036025  0.96030698  1
  O  O432  1  0.01409931  0.08282536  0.16362424  1
  O  O433  1  0.01494439  0.08332803  0.41221356  1
  O  O434  1  0.01614256  0.08271397  0.66493267  1
  O  O435  1  0.01681417  0.08322739  0.91635705  1
  O  O436  1  0.01582367  0.41711140  0.16516102  1
  O  O437  1  0.01692994  0.41671429  0.41194936  1
  O  O438  1  0.01768931  0.41721772  0.66519549  1
  O  O439  1  0.01618072  0.41630674  0.91314898  1
  O  O440  1  0.01644287  0.74989980  0.16326639  1
  O  O441  1  0.01687338  0.74998430  0.41275466  1
  O  O442  1  0.01722667  0.74967029  0.66504348  1
  O  O443  1  0.01475022  0.75053258  0.91357876  1
  O  O444  1  0.51882633  0.08261692  0.16416412  1
  O  O445  1  0.51812765  0.08383814  0.41476221  1
  O  O446  1  0.51658658  0.08369958  0.66554263  1
  O  O447  1  0.51865263  0.08317626  0.91461301  1
  O  O448  1  0.51717820  0.41625695  0.16184321  1
  O  O449  1  0.51755700  0.41625625  0.41462162  1
  O  O450  1  0.51728946  0.41734093  0.66497064  1
  O  O451  1  0.51607382  0.41681545  0.91283824  1
  O  O452  1  0.51442084  0.75006380  0.16444636  1
  O  O453  1  0.51390931  0.75016685  0.41338410  1
  O  O454  1  0.51746838  0.74976865  0.66115666  1
  O  O455  1  0.51746648  0.75011252  0.91473244  1
  O  O456  1  0.48624685  0.24974550  0.08630822  1
  O  O457  1  0.48298007  0.25000372  0.33412931  1
  O  O458  1  0.48185154  0.25071722  0.58569380  1
  O  O459  1  0.48356543  0.25056745  0.83796872  1
  O  O460  1  0.48343826  0.58334849  0.08481526  1
  O  O461  1  0.48253821  0.58316280  0.33749159  1
  O  O462  1  0.48445492  0.58328088  0.58424220  1
  O  O463  1  0.48380161  0.58414808  0.83415345  1
  O  O464  1  0.48276364  0.91674798  0.08560410  1
  O  O465  1  0.48305094  0.91626421  0.33796554  1
  O  O466  1  0.48489654  0.91639080  0.58419744  1
  O  O467  1  0.48467706  0.91603559  0.83435185  1
  O  O468  1  0.98480715  0.25027172  0.08684455  1
  O  O469  1  0.98410556  0.25004571  0.33391655  1
  O  O470  1  0.98370429  0.25087695  0.58440183  1
  O  O471  1  0.98496599  0.24943386  0.83727161  1
  O  O472  1  0.98467676  0.58346416  0.08402032  1
  O  O473  1  0.98515124  0.58353309  0.33646376  1
  O  O474  1  0.98381924  0.58343716  0.58662533  1
  O  O475  1  0.98581969  0.58353983  0.83743900  1
  O  O476  1  0.98159168  0.91631438  0.08624018  1
  O  O477  1  0.98312348  0.91617188  0.33683998  1
  O  O478  1  0.98212917  0.91599487  0.58444071  1
  O  O479  1  0.98152883  0.91717420  0.83613545  1
  O  O480  1  0.08867324  0.31514448  0.07707090  1
  O  O481  1  0.08787334  0.31587067  0.32682407  1
  O  O482  1  0.08743666  0.31619790  0.57798734  1
  O  O483  1  0.08882207  0.31359871  0.82765972  1
  O  O484  1  0.08816548  0.64976784  0.07750692  1
  O  O485  1  0.08862063  0.64869450  0.32842921  1
  O  O486  1  0.08760542  0.64846626  0.57798291  1
  O  O487  1  0.08947626  0.64837863  0.82773237  1
  O  O488  1  0.08562512  0.98052664  0.07749456  1
  O  O489  1  0.08670723  0.98090742  0.32683780  1
  O  O490  1  0.08651421  0.98028653  0.57619905  1
  O  O491  1  0.08498943  0.98304887  0.82808876  1
  O  O492  1  0.58989924  0.31474368  0.07773531  1
  O  O493  1  0.58688817  0.31519239  0.32713794  1
  O  O494  1  0.58537279  0.31639978  0.57800067  1
  O  O495  1  0.58709004  0.31535783  0.82867613  1
  O  O496  1  0.58717693  0.64834392  0.07761563  1
  O  O497  1  0.58605430  0.64797595  0.32728509  1
  O  O498  1  0.58847541  0.64850088  0.57671792  1
  O  O499  1  0.58781420  0.64910672  0.82802986  1
  O  O500  1  0.58689214  0.98162107  0.07801537  1
  O  O501  1  0.58652408  0.98195778  0.32808672  1
  O  O502  1  0.58937766  0.98028370  0.57682923  1
  O  O503  1  0.58855632  0.98100124  0.82833036  1
  O  O504  1  0.41477281  0.01767588  0.17232373  1
  O  O505  1  0.41444982  0.01837496  0.42264005  1
  O  O506  1  0.41304991  0.01841752  0.67284390  1
  O  O507  1  0.41458229  0.01879350  0.92280618  1
  O  O508  1  0.41370159  0.35122525  0.17192363  1
  O  O509  1  0.41358336  0.35140914  0.42175384  1
  O  O510  1  0.41340838  0.35186298  0.67288745  1
  O  O511  1  0.41244728  0.35143003  0.92258200  1
  O  O512  1  0.41005183  0.68628587  0.17311904  1
  O  O513  1  0.41027503  0.68480477  0.42263519  1
  O  O514  1  0.41395045  0.68478419  0.67205997  1
  O  O515  1  0.41340589  0.68487915  0.92315895  1
  O  O516  1  0.91022371  0.01781542  0.17185515  1
  O  O517  1  0.91164634  0.01764020  0.42090646  1
  O  O518  1  0.91241782  0.01752517  0.67143461  1
  O  O519  1  0.91259613  0.01803893  0.92319772  1
  O  O520  1  0.91184655  0.35185710  0.17368685  1
  O  O521  1  0.91345940  0.35148760  0.42260561  1
  O  O522  1  0.91317816  0.35310043  0.67348571  1
  O  O523  1  0.91249256  0.35147636  0.92284250  1
  O  O524  1  0.91272424  0.68514608  0.17310811  1
  O  O525  1  0.91325582  0.68539872  0.42275240  1
  O  O526  1  0.91331547  0.68442834  0.67280556  1
  O  O527  1  0.91111408  0.68577562  0.92291871  1
  O  O528  1  0.16326180  0.01920980  0.20186667  1
  O  O529  1  0.16279969  0.01717762  0.45233764  1
  O  O530  1  0.16210681  0.01817222  0.70270843  1
  O  O531  1  0.16156423  0.01904263  0.95184845  1
  O  O532  1  0.16269327  0.35038493  0.20336950  1
  O  O533  1  0.16065771  0.35265705  0.45220065  1
  O  O534  1  0.16361773  0.35244436  0.70082346  1
  O  O535  1  0.16435394  0.35152917  0.95203888  1
  O  O536  1  0.16251079  0.68547818  0.20235490  1
  O  O537  1  0.16098299  0.68531948  0.45224338  1
  O  O538  1  0.16137697  0.68390143  0.70234833  1
  O  O539  1  0.16308769  0.68477286  0.95394045  1
  O  O540  1  0.66264808  0.01830252  0.20194545  1
  O  O541  1  0.66197261  0.01663329  0.45207651  1
  O  O542  1  0.66220825  0.01832712  0.70305268  1
  O  O543  1  0.66284024  0.01841350  0.95212591  1
  O  O544  1  0.66170568  0.35139299  0.20301158  1
  O  O545  1  0.65987509  0.35312298  0.45243958  1
  O  O546  1  0.66234194  0.35183191  0.70220567  1
  O  O547  1  0.66086009  0.35082302  0.95286082  1
  O  O548  1  0.66486130  0.68527626  0.20226141  1
  O  O549  1  0.66192308  0.68457716  0.45320855  1
  O  O550  1  0.66293480  0.68509288  0.70201450  1
  O  O551  1  0.66420859  0.68546481  0.95100430  1
  O  O552  1  0.33731195  0.31571556  0.04671430  1
  O  O553  1  0.33709869  0.31491859  0.29859372  1
  O  O554  1  0.33931192  0.31515050  0.54740948  1
  O  O555  1  0.33942029  0.31689645  0.79647476  1
  O  O556  1  0.33656727  0.64798657  0.04734068  1
  O  O557  1  0.33802232  0.64912387  0.29806546  1
  O  O558  1  0.33577815  0.64962285  0.54682224  1
  O  O559  1  0.33544880  0.64779575  0.79728496  1
  O  O560  1  0.33881239  0.98095397  0.04814070  1
  O  O561  1  0.33956191  0.98105346  0.29807455  1
  O  O562  1  0.33624117  0.98051245  0.54759766  1
  O  O563  1  0.33651763  0.98105940  0.79776753  1
  O  O564  1  0.83525491  0.31435710  0.04821450  1
  O  O565  1  0.83494202  0.31565577  0.29776648  1
  O  O566  1  0.83609840  0.31525225  0.54774772  1
  O  O567  1  0.83706465  0.31664295  0.79755008  1
  O  O568  1  0.83728764  0.64905157  0.04685389  1
  O  O569  1  0.83790960  0.64789755  0.29760922  1
  O  O570  1  0.83695760  0.64787255  0.54875002  1
  O  O571  1  0.83912283  0.64795427  0.79606184  1
  O  O572  1  0.83932349  0.98185383  0.04712506  1
  O  O573  1  0.83947709  0.98156795  0.29693149  1
  O  O574  1  0.83706774  0.98157363  0.54758654  1
  O  O575  1  0.84023430  0.98025474  0.79757440  1
  O  O576  1  0.41522964  0.14774771  0.17281369  1
  O  O577  1  0.41408117  0.14860108  0.42165383  1
  O  O578  1  0.41274437  0.14872790  0.67206971  1
  O  O579  1  0.41512009  0.14894300  0.92314863  1
  O  O580  1  0.41356261  0.48128622  0.17219315  1
  O  O581  1  0.41375719  0.48151496  0.42269822  1
  O  O582  1  0.41315957  0.48176339  0.67343214  1
  O  O583  1  0.41216199  0.48151779  0.92302334  1
  O  O584  1  0.41114044  0.81640163  0.17219201  1
  O  O585  1  0.40996660  0.81495544  0.42241308  1
  O  O586  1  0.41399292  0.81484776  0.67205371  1
  O  O587  1  0.41313593  0.81475435  0.92294174  1
  O  O588  1  0.91038501  0.14796693  0.17324987  1
  O  O589  1  0.91136288  0.14794355  0.42188026  1
  O  O590  1  0.91252810  0.14779660  0.67239194  1
  O  O591  1  0.91269868  0.14792498  0.92436528  1
  O  O592  1  0.91177740  0.48180799  0.17335961  1
  O  O593  1  0.91346505  0.48152103  0.42271599  1
  O  O594  1  0.91395010  0.48306888  0.67310449  1
  O  O595  1  0.91272638  0.48153431  0.92265890  1
  O  O596  1  0.91260462  0.81515439  0.17233220  1
  O  O597  1  0.91330454  0.81541586  0.42191639  1
  O  O598  1  0.91294738  0.81450980  0.67218092  1
  O  O599  1  0.91099295  0.81577137  0.92163303  1
  O  O600  1  0.08863461  0.18514868  0.07733912  1
  O  O601  1  0.08840509  0.18584744  0.32615343  1
  O  O602  1  0.08745576  0.18595692  0.57724941  1
  O  O603  1  0.08815615  0.18340387  0.82903017  1
  O  O604  1  0.08912964  0.51965663  0.07675114  1
  O  O605  1  0.08870526  0.51838418  0.32853892  1
  O  O606  1  0.08773922  0.51836123  0.57781929  1
  O  O607  1  0.08939230  0.51838008  0.82715518  1
  O  O608  1  0.08510149  0.85046777  0.07750374  1
  O  O609  1  0.08664756  0.85077513  0.32744060  1
  O  O610  1  0.08593667  0.85029440  0.57692744  1
  O  O611  1  0.08543244  0.85292472  0.82762541  1
  O  O612  1  0.58998847  0.18445649  0.07812857  1
  O  O613  1  0.58724133  0.18522801  0.32729913  1
  O  O614  1  0.58586454  0.18630040  0.57783654  1
  O  O615  1  0.58705467  0.18506661  0.82853253  1
  O  O616  1  0.58716525  0.51812724  0.07795339  1
  O  O617  1  0.58617651  0.51780897  0.32833678  1
  O  O618  1  0.58855247  0.51840611  0.57754544  1
  O  O619  1  0.58747378  0.51884573  0.82793899  1
  O  O620  1  0.58644002  0.85161560  0.07739092  1
  O  O621  1  0.58673355  0.85186197  0.32718031  1
  O  O622  1  0.58846814  0.85031565  0.57644953  1
  O  O623  1  0.58827713  0.85059551  0.82805704  1
  O  O624  1  0.33728424  0.18555088  0.04732883  1
  O  O625  1  0.33729765  0.18509859  0.29843703  1
  O  O626  1  0.33939501  0.18502345  0.54756828  1
  O  O627  1  0.34022450  0.18673470  0.79784582  1
  O  O628  1  0.33617091  0.51777074  0.04728077  1
  O  O629  1  0.33838758  0.51899850  0.29885481  1
  O  O630  1  0.33611280  0.51945957  0.54730865  1
  O  O631  1  0.33555109  0.51773450  0.79660559  1
  O  O632  1  0.33812172  0.85087373  0.04772272  1
  O  O633  1  0.33886315  0.85092560  0.29724856  1
  O  O634  1  0.33598908  0.85036321  0.54692404  1
  O  O635  1  0.33699851  0.85093409  0.79712029  1
  O  O636  1  0.83509845  0.18423310  0.04789104  1
  O  O637  1  0.83498577  0.18545242  0.29765475  1
  O  O638  1  0.83612792  0.18514425  0.54750448  1
  O  O639  1  0.83747932  0.18631869  0.79788380  1
  O  O640  1  0.83723323  0.51890136  0.04747303  1
  O  O641  1  0.83723053  0.51751253  0.29765514  1
  O  O642  1  0.83653323  0.51801484  0.54885900  1
  O  O643  1  0.83865895  0.51762710  0.79655411  1
  O  O644  1  0.83973316  0.85166603  0.04658843  1
  O  O645  1  0.83963106  0.85133484  0.29746102  1
  O  O646  1  0.83759633  0.85165987  0.54775524  1
  O  O647  1  0.83930698  0.85005926  0.79652996  1
  O  O648  1  0.16297732  0.14939675  0.20270362  1
  O  O649  1  0.16264809  0.14736237  0.45224015  1
  O  O650  1  0.16212020  0.14842648  0.70280198  1
  O  O651  1  0.16232517  0.14918228  0.95212164  1
  O  O652  1  0.16208427  0.48055377  0.20326557  1
  O  O653  1  0.16102942  0.48272318  0.45275468  1
  O  O654  1  0.16339925  0.48232074  0.70171056  1
  O  O655  1  0.16414499  0.48166455  0.95281237  1
  O  O656  1  0.16285607  0.81539504  0.20189693  1
  O  O657  1  0.16128155  0.81541535  0.45180912  1
  O  O658  1  0.16054846  0.81387116  0.70144810  1
  O  O659  1  0.16348432  0.81483003  0.95293799  1
  O  O660  1  0.66232088  0.14843979  0.20301301  1
  O  O661  1  0.66047773  0.14684997  0.45198006  1
  O  O662  1  0.66258028  0.14845750  0.70304886  1
  O  O663  1  0.66286356  0.14847039  0.95286807  1
  O  O664  1  0.66163433  0.48144023  0.20233044  1
  O  O665  1  0.66088038  0.48329987  0.45322139  1
  O  O666  1  0.66210109  0.48163090  0.70224622  1
  O  O667  1  0.66001669  0.48091609  0.95190057  1
  O  O668  1  0.66533311  0.81525850  0.20178081  1
  O  O669  1  0.66209786  0.81482949  0.45282481  1
  O  O670  1  0.66349760  0.81490106  0.70178863  1
  O  O671  1  0.66436613  0.81533301  0.95114615  1
