# generated using pymatgen
data_Na2MnFe(PO4)2
_symmetry_space_group_name_H-M   'P 1'
_cell_length_a   21.08054990
_cell_length_b   18.93243355
_cell_length_c   20.04026237
_cell_angle_alpha   90.00009242
_cell_angle_beta   90.00381697
_cell_angle_gamma   90.00156748
_symmetry_Int_Tables_number   1
_chemical_formula_structural   Na2MnFe(PO4)2
_chemical_formula_sum   'Na96 Mn48 Fe48 P96 O384'
_cell_volume   7998.19114438
_cell_formula_units_Z   48
loop_
 _symmetry_equiv_pos_site_id
 _symmetry_equiv_pos_as_xyz
  1  'x, y, z'
loop_
 _atom_site_type_symbol
 _atom_site_label
 _atom_site_symmetry_multiplicity
 _atom_site_fract_x
 _atom_site_fract_y
 _atom_site_fract_z
 _atom_site_occupancy
  Na  Na0  1  -0.00017255  0.00020602  -0.00114190  1
  Na  Na1  1  -0.00050058  -0.00013815  0.25044961  1
  Na  Na2  1  -0.00031959  -0.00059120  0.50055323  1
  Na  Na3  1  -0.00067361  -0.00036109  0.75080001  1
  Na  Na4  1  -0.00102059  0.33333223  -0.00021184  1
  Na  Na5  1  -0.00107222  0.33329717  0.25103103  1
  Na  Na6  1  0.00050202  0.33428630  0.49964277  1
  Na  Na7  1  -0.00231803  0.33283188  0.74898053  1
  Na  Na8  1  0.00110061  0.66683002  -0.00097541  1
  Na  Na9  1  -0.00036032  0.66629417  0.25031796  1
  Na  Na10  1  -0.00019630  0.66683228  0.49914988  1
  Na  Na11  1  0.00072669  0.66686571  0.75139567  1
  Na  Na12  1  0.49794186  -0.00020012  -0.00016118  1
  Na  Na13  1  0.49811494  -0.00067683  0.24977471  1
  Na  Na14  1  0.50199261  0.00088577  0.49933902  1
  Na  Na15  1  0.49921766  -0.00020442  0.75021144  1
  Na  Na16  1  0.50040521  0.33356686  0.00012885  1
  Na  Na17  1  0.50160013  0.33418659  0.25023954  1
  Na  Na18  1  0.50030774  0.33297243  0.50116183  1
  Na  Na19  1  0.50090433  0.33360056  0.74899504  1
  Na  Na20  1  0.49865719  0.66635805  -0.00017146  1
  Na  Na21  1  0.49974488  0.66658186  0.24930998  1
  Na  Na22  1  0.49873870  0.66593084  0.50116539  1
  Na  Na23  1  0.49836392  0.66663526  0.75029422  1
  Na  Na24  1  0.25063668  0.00015537  0.12483964  1
  Na  Na25  1  0.25036796  0.00050713  0.37442437  1
  Na  Na26  1  0.24952457  -0.00051854  0.62496437  1
  Na  Na27  1  0.25041666  -0.00001871  0.87499268  1
  Na  Na28  1  0.25170853  0.33403198  0.12582443  1
  Na  Na29  1  0.24942845  0.33287304  0.37395526  1
  Na  Na30  1  0.25033674  0.33308711  0.62509582  1
  Na  Na31  1  0.25180217  0.33391866  0.87416705  1
  Na  Na32  1  0.25145030  0.66711417  0.12631291  1
  Na  Na33  1  0.24979519  0.66624509  0.37564766  1
  Na  Na34  1  0.25088291  0.66713527  0.62426472  1
  Na  Na35  1  0.24995767  0.66662938  0.87438394  1
  Na  Na36  1  0.75235669  0.00041266  0.12523307  1
  Na  Na37  1  0.74959259  -0.00017400  0.37576266  1
  Na  Na38  1  0.74963571  -0.00006784  0.62456708  1
  Na  Na39  1  0.75319368  0.00081626  0.87484666  1
  Na  Na40  1  0.74969147  0.33385090  0.12472438  1
  Na  Na41  1  0.74915388  0.33410076  0.37404404  1
  Na  Na42  1  0.74910873  0.33362646  0.62592777  1
  Na  Na43  1  0.74899023  0.33309355  0.87596234  1
  Na  Na44  1  0.75011717  0.66712303  0.12453053  1
  Na  Na45  1  0.74926720  0.66613022  0.37461725  1
  Na  Na46  1  0.75140661  0.66729600  0.62485817  1
  Na  Na47  1  0.74956940  0.66617206  0.87568679  1
  Na  Na48  1  -0.00130380  0.16645289  -0.00084488  1
  Na  Na49  1  -0.00000616  0.16663534  0.25092498  1
  Na  Na50  1  0.00067870  0.16619160  0.49913762  1
  Na  Na51  1  -0.00209969  0.16705960  0.74991337  1
  Na  Na52  1  -0.00064978  0.49993414  -0.00098937  1
  Na  Na53  1  -0.00094826  0.49993312  0.25045525  1
  Na  Na54  1  -0.00212851  0.49983043  0.50019029  1
  Na  Na55  1  -0.00178316  0.50021918  0.75073470  1
  Na  Na56  1  0.00230206  0.83284527  -0.00053270  1
  Na  Na57  1  -0.00106409  0.83397234  0.25034205  1
  Na  Na58  1  0.00279684  0.83206600  0.50035882  1
  Na  Na59  1  0.00090260  0.83390665  0.75043591  1
  Na  Na60  1  0.49735179  0.16703112  -0.00023571  1
  Na  Na61  1  0.49822073  0.16696275  0.25027549  1
  Na  Na62  1  0.50226906  0.16583286  0.50010638  1
  Na  Na63  1  0.50020922  0.16637988  0.75034765  1
  Na  Na64  1  0.50099582  0.50012908  0.00060144  1
  Na  Na65  1  0.50059934  0.49990662  0.24926881  1
  Na  Na66  1  0.49856579  0.50127190  0.50135365  1
  Na  Na67  1  0.50107461  0.49944806  0.74894570  1
  Na  Na68  1  0.49873306  0.83297871  -0.00063083  1
  Na  Na69  1  0.50069924  0.83301964  0.24986500  1
  Na  Na70  1  0.49988764  0.83362754  0.50011465  1
  Na  Na71  1  0.49744451  0.83410195  0.75032299  1
  Na  Na72  1  0.25232715  0.16593378  0.12455326  1
  Na  Na73  1  0.24940750  0.16738467  0.37463424  1
  Na  Na74  1  0.25116315  0.16638103  0.62502172  1
  Na  Na75  1  0.25260174  0.16604739  0.87559308  1
  Na  Na76  1  0.25166908  0.49982014  0.12626469  1
  Na  Na77  1  0.25090029  0.49985804  0.37464673  1
  Na  Na78  1  0.25223844  0.49900828  0.62402653  1
  Na  Na79  1  0.24975809  0.50107492  0.87411755  1
  Na  Na80  1  0.24985466  0.83293971  0.12607931  1
  Na  Na81  1  0.24813559  0.83407994  0.37505830  1
  Na  Na82  1  0.24829168  0.83354757  0.62493229  1
  Na  Na83  1  0.24897336  0.83341729  0.87406668  1
  Na  Na84  1  0.75174541  0.16546215  0.12513523  1
  Na  Na85  1  0.74791461  0.16672609  0.37551305  1
  Na  Na86  1  0.74777586  0.16705785  0.62459433  1
  Na  Na87  1  0.75107661  0.16594835  0.87489076  1
  Na  Na88  1  0.74932743  0.49993457  0.12524699  1
  Na  Na89  1  0.74940907  0.50040183  0.37407138  1
  Na  Na90  1  0.75195185  0.49913778  0.62612362  1
  Na  Na91  1  0.74994179  0.49983545  0.87541703  1
  Na  Na92  1  0.75073111  0.83352625  0.12423901  1
  Na  Na93  1  0.75100035  0.83264592  0.37462003  1
  Na  Na94  1  0.74965359  0.83411806  0.62496251  1
  Na  Na95  1  0.75196689  0.83261532  0.87579981  1
  Mn  Mn96  1  0.35708996  0.75006248  0.50229180  1
  Mn  Mn97  1  0.64233266  0.24993948  0.24717633  1
  Mn  Mn98  1  0.64274394  0.91631652  0.74820331  1
  Mn  Mn99  1  0.89115606  0.25023318  0.62673621  1
  Mn  Mn100  1  0.14212872  0.58326462  0.74662614  1
  Mn  Mn101  1  0.39304908  0.25084719  0.37803293  1
  Mn  Mn102  1  0.10799593  0.41606258  0.87315563  1
  Mn  Mn103  1  0.10781784  0.74995030  0.12251071  1
  Mn  Mn104  1  0.64165054  0.58369776  0.99798197  1
  Mn  Mn105  1  0.64185589  0.24887514  0.99816167  1
  Mn  Mn106  1  0.89180274  0.24976844  0.37777182  1
  Mn  Mn107  1  0.85815445  0.74967824  0.50284642  1
  Mn  Mn108  1  0.14198491  0.91743374  0.24780749  1
  Mn  Mn109  1  0.64214514  0.58335985  0.49811936  1
  Mn  Mn110  1  0.89228622  0.25049635  0.12783805  1
  Mn  Mn111  1  0.89243332  0.58378987  0.87745815  1
  Mn  Mn112  1  0.60725106  0.08280588  0.12283200  1
  Mn  Mn113  1  0.10776387  0.41641568  0.12234100  1
  Mn  Mn114  1  0.39257730  0.91618698  0.37785145  1
  Mn  Mn115  1  0.60795776  0.41661876  0.62242953  1
  Mn  Mn116  1  0.60746977  0.75095840  0.62379565  1
  Mn  Mn117  1  0.39218133  0.58275334  0.87727330  1
  Mn  Mn118  1  0.14236165  0.58249753  0.49794287  1
  Mn  Mn119  1  0.14304058  0.25052889  0.99744138  1
  Mn  Mn120  1  0.10779368  0.08389596  0.87275827  1
  Mn  Mn121  1  0.35828258  0.08374930  0.50247113  1
  Mn  Mn122  1  0.10700881  0.41711327  0.62240935  1
  Mn  Mn123  1  0.35900849  0.41617993  0.25306867  1
  Mn  Mn124  1  0.89247195  0.91591351  0.62718058  1
  Mn  Mn125  1  0.35840033  0.75057558  0.25276457  1
  Mn  Mn126  1  0.35841638  0.41665792  0.75235537  1
  Mn  Mn127  1  0.14236443  0.58306277  0.24774532  1
  Mn  Mn128  1  0.10778500  0.08325034  0.37276883  1
  Mn  Mn129  1  0.85862937  0.75008940  0.00246324  1
  Mn  Mn130  1  0.14243214  0.24965173  0.24731615  1
  Mn  Mn131  1  0.89151506  0.58380218  0.37703472  1
  Mn  Mn132  1  0.10794569  0.08342958  0.62314393  1
  Mn  Mn133  1  0.64222922  0.91724138  0.99800805  1
  Mn  Mn134  1  0.89319650  0.91608256  0.12724118  1
  Mn  Mn135  1  0.64290086  0.91614635  0.24715226  1
  Mn  Mn136  1  0.60735277  0.74981555  0.87220361  1
  Mn  Mn137  1  0.60778445  0.08337714  0.87294160  1
  Mn  Mn138  1  0.85636643  0.08410803  0.50238696  1
  Mn  Mn139  1  0.39270235  0.25075896  0.87691739  1
  Mn  Mn140  1  0.60809329  0.74951001  0.37247324  1
  Mn  Mn141  1  0.39082071  0.91644990  0.87749635  1
  Mn  Mn142  1  0.85730462  0.41641284  0.00255384  1
  Mn  Mn143  1  0.14200385  0.24955056  0.74772082  1
  Fe  Fe144  1  0.64297167  0.24985121  0.74864598  1
  Fe  Fe145  1  0.89220709  0.58391578  0.62710362  1
  Fe  Fe146  1  0.35733395  0.08325206  0.25146873  1
  Fe  Fe147  1  0.89275633  0.91645631  0.37699866  1
  Fe  Fe148  1  0.35665504  0.74982602  0.00173100  1
  Fe  Fe149  1  0.60731795  0.08333994  0.37229489  1
  Fe  Fe150  1  0.39209118  0.91697239  0.62616885  1
  Fe  Fe151  1  0.89250903  0.58327856  0.12662925  1
  Fe  Fe152  1  0.85805718  0.08335472  0.00220546  1
  Fe  Fe153  1  0.64352821  0.58373338  0.74854826  1
  Fe  Fe154  1  0.85631217  0.41629794  0.75211102  1
  Fe  Fe155  1  0.39340105  0.58313553  0.37642908  1
  Fe  Fe156  1  0.60729193  0.08263316  0.62443062  1
  Fe  Fe157  1  0.39292381  0.58345553  0.12664898  1
  Fe  Fe158  1  0.10710897  0.41712836  0.37377060  1
  Fe  Fe159  1  0.85697476  0.08328090  0.75113194  1
  Fe  Fe160  1  0.89133180  0.24953793  0.87638836  1
  Fe  Fe161  1  0.35629112  0.75061461  0.75118606  1
  Fe  Fe162  1  0.35761490  0.41613530  0.50089974  1
  Fe  Fe163  1  0.39190145  0.91633970  0.12647775  1
  Fe  Fe164  1  0.64188889  0.25036320  0.49825565  1
  Fe  Fe165  1  0.60686067  0.41684502  0.12345066  1
  Fe  Fe166  1  0.35794459  0.08266788  0.75087851  1
  Fe  Fe167  1  0.14339174  0.91644871  0.99850148  1
  Fe  Fe168  1  0.85801153  0.08303263  0.25219661  1
  Fe  Fe169  1  0.35713904  0.08307318  0.00240112  1
  Fe  Fe170  1  0.14286494  0.91712623  0.74824727  1
  Fe  Fe171  1  0.60757803  0.41703333  0.37384584  1
  Fe  Fe172  1  0.89376606  0.91685601  0.87651661  1
  Fe  Fe173  1  0.60687266  0.75025499  0.12319279  1
  Fe  Fe174  1  0.35839431  0.41735752  0.00172281  1
  Fe  Fe175  1  0.10833031  0.75001846  0.87314921  1
  Fe  Fe176  1  0.64198268  0.91659083  0.49831968  1
  Fe  Fe177  1  0.60757872  0.41681938  0.87336404  1
  Fe  Fe178  1  0.85713007  0.74988850  0.25134142  1
  Fe  Fe179  1  0.39262992  0.25022859  0.12653086  1
  Fe  Fe180  1  0.10675190  0.74929348  0.37331496  1
  Fe  Fe181  1  0.10719209  0.74927679  0.62358334  1
  Fe  Fe182  1  0.85639701  0.41699263  0.25176664  1
  Fe  Fe183  1  0.39312650  0.24938035  0.62650971  1
  Fe  Fe184  1  0.14255877  0.91749704  0.49820820  1
  Fe  Fe185  1  0.14332094  0.58332745  0.99951979  1
  Fe  Fe186  1  0.14296067  0.25003848  0.49902515  1
  Fe  Fe187  1  0.39252321  0.58383238  0.62711094  1
  Fe  Fe188  1  0.85682869  0.41632180  0.50115322  1
  Fe  Fe189  1  0.85828950  0.75006857  0.75184824  1
  Fe  Fe190  1  0.64235243  0.58382432  0.24810070  1
  Fe  Fe191  1  0.10752000  0.08376007  0.12299278  1
  P  P192  1  0.05325593  0.24919786  0.10963363  1
  P  P193  1  0.05488256  0.25106770  0.36142045  1
  P  P194  1  0.05317710  0.24998724  0.60899900  1
  P  P195  1  0.05149075  0.24997529  0.85968717  1
  P  P196  1  0.05241587  0.58297878  0.10930053  1
  P  P197  1  0.05340934  0.58279734  0.36035306  1
  P  P198  1  0.05146675  0.58392173  0.60996497  1
  P  P199  1  0.05553544  0.58360428  0.86140602  1
  P  P200  1  0.05438778  0.91783578  0.10911247  1
  P  P201  1  0.05351774  0.91608860  0.36125141  1
  P  P202  1  0.05535305  0.91590368  0.61096477  1
  P  P203  1  0.05530346  0.91637592  0.86084688  1
  P  P204  1  0.55197891  0.24995592  0.11025865  1
  P  P205  1  0.55507397  0.25046495  0.36124719  1
  P  P206  1  0.55445205  0.24889283  0.61122776  1
  P  P207  1  0.55413383  0.25069453  0.85938097  1
  P  P208  1  0.55352993  0.58392352  0.11139264  1
  P  P209  1  0.55312457  0.58244912  0.35956133  1
  P  P210  1  0.55357131  0.58403679  0.61180385  1
  P  P211  1  0.55395367  0.58262740  0.85910659  1
  P  P212  1  0.55161313  0.91608160  0.10985277  1
  P  P213  1  0.55478988  0.91716519  0.36056805  1
  P  P214  1  0.55241380  0.91734153  0.61004557  1
  P  P215  1  0.55262993  0.91674940  0.85987939  1
  P  P216  1  0.44438243  0.08305572  0.13932252  1
  P  P217  1  0.44705086  0.08348842  0.38907672  1
  P  P218  1  0.44738661  0.08313655  0.64014756  1
  P  P219  1  0.44452938  0.08324235  0.88956667  1
  P  P220  1  0.44646601  0.41683654  0.13878624  1
  P  P221  1  0.44820175  0.41766640  0.39097935  1
  P  P222  1  0.44525752  0.41624755  0.63839102  1
  P  P223  1  0.44795972  0.41694364  0.89059654  1
  P  P224  1  0.44595832  0.75010232  0.13852006  1
  P  P225  1  0.44712084  0.74895983  0.39039890  1
  P  P226  1  0.44536856  0.75067455  0.64057669  1
  P  P227  1  0.44420802  0.74977484  0.88955603  1
  P  P228  1  0.94672137  0.08328759  0.13982175  1
  P  P229  1  0.94514797  0.08230982  0.38944779  1
  P  P230  1  0.94584443  0.08324691  0.64045095  1
  P  P231  1  0.94435069  0.08326165  0.88875423  1
  P  P232  1  0.94582091  0.41765108  0.14088491  1
  P  P233  1  0.94538423  0.41682117  0.38958349  1
  P  P234  1  0.94393108  0.41750975  0.63936294  1
  P  P235  1  0.94470309  0.41563187  0.88873704  1
  P  P236  1  0.94653462  0.74895442  0.14064480  1
  P  P237  1  0.94615937  0.75083074  0.38882925  1
  P  P238  1  0.94762091  0.74927973  0.64088765  1
  P  P239  1  0.94732164  0.75106006  0.88881568  1
  P  P240  1  0.19722947  0.08350492  0.23389218  1
  P  P241  1  0.19682447  0.08359297  0.48510765  1
  P  P242  1  0.19807771  0.08282900  0.73523197  1
  P  P243  1  0.19699878  0.08289122  0.98623866  1
  P  P244  1  0.19599251  0.41671913  0.23600039  1
  P  P245  1  0.19743894  0.41581871  0.48440203  1
  P  P246  1  0.19682851  0.41651190  0.73439543  1
  P  P247  1  0.19893096  0.41762105  0.98518980  1
  P  P248  1  0.19547439  0.74988055  0.23642703  1
  P  P249  1  0.19427437  0.75045549  0.48570024  1
  P  P250  1  0.19565638  0.75072768  0.73525714  1
  P  P251  1  0.19726957  0.74968545  0.98494230  1
  P  P252  1  0.69728431  0.08290700  0.23580314  1
  P  P253  1  0.69347800  0.08313373  0.48600880  1
  P  P254  1  0.69727091  0.08354626  0.73487486  1
  P  P255  1  0.69821624  0.08293554  0.98496388  1
  P  P256  1  0.69534321  0.41777381  0.23548966  1
  P  P257  1  0.69707345  0.41657225  0.48456916  1
  P  P258  1  0.69607400  0.41694244  0.73676508  1
  P  P259  1  0.69421496  0.41656263  0.98575618  1
  P  P260  1  0.69714795  0.74931186  0.23406256  1
  P  P261  1  0.69666475  0.75057086  0.48518953  1
  P  P262  1  0.69856525  0.74941120  0.73533965  1
  P  P263  1  0.69548631  0.75037792  0.98591062  1
  P  P264  1  0.30459340  0.25078032  0.01545565  1
  P  P265  1  0.30529172  0.24899634  0.26402983  1
  P  P266  1  0.30317410  0.25091495  0.51523957  1
  P  P267  1  0.30496875  0.24886156  0.76365075  1
  P  P268  1  0.30307219  0.58360183  0.01556600  1
  P  P269  1  0.30579257  0.58340322  0.26509575  1
  P  P270  1  0.30535230  0.58227584  0.51404779  1
  P  P271  1  0.30456956  0.58433246  0.76348426  1
  P  P272  1  0.30245411  0.91586373  0.01544088  1
  P  P273  1  0.30465853  0.91752963  0.26424355  1
  P  P274  1  0.30239004  0.91667400  0.51545328  1
  P  P275  1  0.30348559  0.91668615  0.76328424  1
  P  P276  1  0.80429333  0.24906961  0.01429357  1
  P  P277  1  0.80344566  0.25018095  0.26502470  1
  P  P278  1  0.80098175  0.25097670  0.51474347  1
  P  P279  1  0.80234467  0.24992102  0.76514361  1
  P  P280  1  0.80382784  0.58329156  0.01596983  1
  P  P281  1  0.80314029  0.58359295  0.26323280  1
  P  P282  1  0.80381834  0.58226266  0.51564675  1
  P  P283  1  0.80389852  0.58367152  0.76415041  1
  P  P284  1  0.80526330  0.91740940  0.01390834  1
  P  P285  1  0.80470093  0.91630750  0.26549471  1
  P  P286  1  0.80298436  0.91679194  0.51391230  1
  P  P287  1  0.80463367  0.91630177  0.76545072  1
  O  O288  1  0.05631924  0.24974494  0.18645500  1
  O  O289  1  0.05940677  0.25039198  0.43814296  1
  O  O290  1  0.05620268  0.24984389  0.68581830  1
  O  O291  1  0.05627285  0.25008201  0.93636690  1
  O  O292  1  0.05636414  0.58291326  0.18602913  1
  O  O293  1  0.05634303  0.58258165  0.43711792  1
  O  O294  1  0.05521421  0.58305836  0.68670808  1
  O  O295  1  0.06011069  0.58296264  0.93812254  1
  O  O296  1  0.05679625  0.91724073  0.18596189  1
  O  O297  1  0.05819039  0.91706868  0.43795866  1
  O  O298  1  0.05921397  0.91732526  0.68778085  1
  O  O299  1  0.06021759  0.91693789  0.93756095  1
  O  O300  1  0.55585083  0.24926451  0.18700089  1
  O  O301  1  0.55860247  0.25047898  0.43810467  1
  O  O302  1  0.55941358  0.24986600  0.68791168  1
  O  O303  1  0.55654598  0.24945913  0.93621284  1
  O  O304  1  0.55811617  0.58404733  0.18807785  1
  O  O305  1  0.55637448  0.58332446  0.43635131  1
  O  O306  1  0.55927757  0.58392740  0.68836003  1
  O  O307  1  0.55651601  0.58377976  0.93595716  1
  O  O308  1  0.55585863  0.91671475  0.18656319  1
  O  O309  1  0.55876822  0.91645962  0.43735862  1
  O  O310  1  0.55625394  0.91646142  0.68676088  1
  O  O311  1  0.55617150  0.91675854  0.93662060  1
  O  O312  1  0.44043150  0.08289449  0.06242451  1
  O  O313  1  0.44182470  0.08332527  0.31247311  1
  O  O314  1  0.44433445  0.08330889  0.56336548  1
  O  O315  1  0.44063817  0.08274019  0.81277708  1
  O  O316  1  0.44205422  0.41710627  0.06210491  1
  O  O317  1  0.44500657  0.41649853  0.31414686  1
  O  O318  1  0.44138275  0.41617516  0.56169691  1
  O  O319  1  0.44405190  0.41699186  0.81386777  1
  O  O320  1  0.44113276  0.75001187  0.06183785  1
  O  O321  1  0.44440093  0.75008072  0.31360019  1
  O  O322  1  0.44277009  0.75053717  0.56376130  1
  O  O323  1  0.43961015  0.75030503  0.81285190  1
  O  O324  1  0.94216596  0.08335065  0.06306807  1
  O  O325  1  0.94116029  0.08325699  0.31263589  1
  O  O326  1  0.94250063  0.08331451  0.56364218  1
  O  O327  1  0.94015141  0.08349479  0.81197577  1
  O  O328  1  0.94289763  0.41676686  0.06405505  1
  O  O329  1  0.94020595  0.41666052  0.31292416  1
  O  O330  1  0.94004080  0.41622131  0.56255042  1
  O  O331  1  0.94019121  0.41613412  0.81195264  1
  O  O332  1  0.94411200  0.74975334  0.06379420  1
  O  O333  1  0.94119062  0.75010581  0.31220110  1
  O  O334  1  0.94407651  0.74997796  0.56409417  1
  O  O335  1  0.94236018  0.75027297  0.81217265  1
  O  O336  1  0.19214798  0.08361245  0.06282577  1
  O  O337  1  0.19303538  0.08359574  0.31063341  1
  O  O338  1  0.19393660  0.08343575  0.56183809  1
  O  O339  1  0.19440444  0.08363664  0.81195832  1
  O  O340  1  0.19506082  0.41685373  0.06189794  1
  O  O341  1  0.19108346  0.41696220  0.31266006  1
  O  O342  1  0.19354930  0.41679376  0.56112587  1
  O  O343  1  0.19337566  0.41669383  0.81118787  1
  O  O344  1  0.19399945  0.74965171  0.06172543  1
  O  O345  1  0.19069823  0.74958721  0.31317825  1
  O  O346  1  0.19064035  0.74914878  0.56251670  1
  O  O347  1  0.19148579  0.74978826  0.81202246  1
  O  O348  1  0.69383736  0.08277238  0.06168117  1
  O  O349  1  0.69181695  0.08297314  0.31243962  1
  O  O350  1  0.68989902  0.08274413  0.56285148  1
  O  O351  1  0.69390123  0.08286965  0.81157094  1
  O  O352  1  0.68969708  0.41663242  0.06258051  1
  O  O353  1  0.69088458  0.41734144  0.31218650  1
  O  O354  1  0.69372332  0.41714748  0.56138794  1
  O  O355  1  0.69189681  0.41702838  0.81343898  1
  O  O356  1  0.69051525  0.75058533  0.06264520  1
  O  O357  1  0.69348039  0.74969436  0.31081660  1
  O  O358  1  0.69334619  0.75038870  0.56194886  1
  O  O359  1  0.69453881  0.74977182  0.81203545  1
  O  O360  1  0.30961493  0.25023196  0.18731427  1
  O  O361  1  0.30683790  0.25023553  0.43846858  1
  O  O362  1  0.30923441  0.24951982  0.68689052  1
  O  O363  1  0.30719475  0.25107637  0.93861557  1
  O  O364  1  0.31035862  0.58340557  0.18830854  1
  O  O365  1  0.30932449  0.58314503  0.43728297  1
  O  O366  1  0.30885641  0.58349745  0.68669655  1
  O  O367  1  0.30605902  0.58325072  0.93878666  1
  O  O368  1  0.30868260  0.91628500  0.18749878  1
  O  O369  1  0.30646223  0.91657889  0.43871654  1
  O  O370  1  0.30799710  0.91675010  0.68662211  1
  O  O371  1  0.30529288  0.91598203  0.93864417  1
  O  O372  1  0.80625814  0.25006436  0.18821638  1
  O  O373  1  0.80496068  0.25028451  0.43809151  1
  O  O374  1  0.80541458  0.25003359  0.68839790  1
  O  O375  1  0.80786887  0.24982033  0.93752221  1
  O  O376  1  0.80766801  0.58354411  0.18663949  1
  O  O377  1  0.80639047  0.58342284  0.43878568  1
  O  O378  1  0.80814360  0.58408801  0.68746486  1
  O  O379  1  0.80717213  0.58336444  0.93913650  1
  O  O380  1  0.80762167  0.91652532  0.18865753  1
  O  O381  1  0.80810555  0.91632836  0.43730527  1
  O  O382  1  0.80688280  0.91621375  0.68857896  1
  O  O383  1  0.80954750  0.91636241  0.93721309  1
  O  O384  1  0.23494465  0.25029054  0.04094728  1
  O  O385  1  0.23526108  0.24959049  0.28802278  1
  O  O386  1  0.23306076  0.25002180  0.53971776  1
  O  O387  1  0.23508555  0.24967307  0.78836019  1
  O  O388  1  0.23312769  0.58366913  0.04087265  1
  O  O389  1  0.23560592  0.58323371  0.28863111  1
  O  O390  1  0.23523163  0.58280484  0.53832901  1
  O  O391  1  0.23457434  0.58397040  0.78757693  1
  O  O392  1  0.23243430  0.91608822  0.04041110  1
  O  O393  1  0.23467977  0.91747078  0.28853891  1
  O  O394  1  0.23219767  0.91659590  0.53938755  1
  O  O395  1  0.23330617  0.91681937  0.78764640  1
  O  O396  1  0.73448340  0.24936235  0.03926389  1
  O  O397  1  0.73376992  0.25018000  0.29022218  1
  O  O398  1  0.73094288  0.25044728  0.53934401  1
  O  O399  1  0.73224388  0.24983016  0.78995997  1
  O  O400  1  0.73394805  0.58342423  0.04036314  1
  O  O401  1  0.73289264  0.58347255  0.28753687  1
  O  O402  1  0.73419112  0.58301990  0.54104973  1
  O  O403  1  0.73374149  0.58317110  0.78867349  1
  O  O404  1  0.73536339  0.91722185  0.03857541  1
  O  O405  1  0.73489031  0.91625249  0.29043248  1
  O  O406  1  0.73262302  0.91722983  0.53759115  1
  O  O407  1  0.73502280  0.91636786  0.79112392  1
  O  O408  1  0.26741631  0.08316001  0.21003870  1
  O  O409  1  0.26646456  0.08380318  0.45961667  1
  O  O410  1  0.26798480  0.08261818  0.71025412  1
  O  O411  1  0.26749689  0.08314551  0.96272582  1
  O  O412  1  0.26632945  0.41672341  0.21272997  1
  O  O413  1  0.26759378  0.41636011  0.45990082  1
  O  O414  1  0.26664627  0.41634726  0.70984702  1
  O  O415  1  0.26899404  0.41743947  0.96043184  1
  O  O416  1  0.26562236  0.75000822  0.21282676  1
  O  O417  1  0.26434076  0.75024517  0.46133480  1
  O  O418  1  0.26591385  0.75039065  0.71123499  1
  O  O419  1  0.26730977  0.74987305  0.96007393  1
  O  O420  1  0.76780861  0.08280766  0.21272916  1
  O  O421  1  0.76355489  0.08343670  0.46167046  1
  O  O422  1  0.76736469  0.08339303  0.71012959  1
  O  O423  1  0.76827024  0.08321522  0.96076999  1
  O  O424  1  0.76575616  0.41706443  0.21180234  1
  O  O425  1  0.76700007  0.41708856  0.45965040  1
  O  O426  1  0.76638391  0.41654405  0.71267594  1
  O  O427  1  0.76438171  0.41680163  0.96220231  1
  O  O428  1  0.76733193  0.75016422  0.20982833  1
  O  O429  1  0.76639862  0.74960298  0.46012432  1
  O  O430  1  0.76861965  0.75043301  0.71075207  1
  O  O431  1  0.76571902  0.74970074  0.96245966  1
  O  O432  1  0.01698540  0.08322865  0.16382708  1
  O  O433  1  0.01515304  0.08274658  0.41364084  1
  O  O434  1  0.01561428  0.08336643  0.66537352  1
  O  O435  1  0.01455280  0.08323375  0.91271968  1
  O  O436  1  0.01553710  0.41661092  0.16595456  1
  O  O437  1  0.01581036  0.41712430  0.41303481  1
  O  O438  1  0.01398547  0.41672596  0.66368037  1
  O  O439  1  0.01471727  0.41643503  0.91302052  1
  O  O440  1  0.01617837  0.74998444  0.16596847  1
  O  O441  1  0.01648081  0.74977792  0.41262929  1
  O  O442  1  0.01765573  0.75001822  0.66549488  1
  O  O443  1  0.01770858  0.75042657  0.91247305  1
  O  O444  1  0.51441149  0.08302112  0.16375863  1
  O  O445  1  0.51742231  0.08360885  0.41250080  1
  O  O446  1  0.51738580  0.08305850  0.66520534  1
  O  O447  1  0.51456855  0.08341519  0.91380788  1
  O  O448  1  0.51679211  0.41702589  0.16288522  1
  O  O449  1  0.51808368  0.41730026  0.41600880  1
  O  O450  1  0.51534988  0.41639198  0.66274715  1
  O  O451  1  0.51801466  0.41683383  0.91489167  1
  O  O452  1  0.51624446  0.74998588  0.16266844  1
  O  O453  1  0.51664603  0.74927805  0.41593889  1
  O  O454  1  0.51505392  0.75049972  0.66604909  1
  O  O455  1  0.51439096  0.74960062  0.91316997  1
  O  O456  1  0.48197586  0.25003880  0.08565510  1
  O  O457  1  0.48521346  0.25057680  0.33652066  1
  O  O458  1  0.48397893  0.24934711  0.58763048  1
  O  O459  1  0.48452956  0.25034957  0.83395511  1
  O  O460  1  0.48323718  0.58341786  0.08724580  1
  O  O461  1  0.48317326  0.58303936  0.33466522  1
  O  O462  1  0.48298150  0.58402120  0.58894429  1
  O  O463  1  0.48423777  0.58294797  0.83402498  1
  O  O464  1  0.48147605  0.91648508  0.08551304  1
  O  O465  1  0.48479268  0.91647818  0.33631192  1
  O  O466  1  0.48225130  0.91705563  0.58547206  1
  O  O467  1  0.48276248  0.91684714  0.83539059  1
  O  O468  1  0.98356075  0.24981271  0.08457933  1
  O  O469  1  0.98475001  0.25021002  0.33749865  1
  O  O470  1  0.98338406  0.25004821  0.58404679  1
  O  O471  1  0.98129207  0.24952932  0.83574782  1
  O  O472  1  0.98234565  0.58329133  0.08482770  1
  O  O473  1  0.98368683  0.58309746  0.33523715  1
  O  O474  1  0.98154571  0.58369973  0.58513172  1
  O  O475  1  0.98533128  0.58353807  0.83763792  1
  O  O476  1  0.98479111  0.91652329  0.08370446  1
  O  O477  1  0.98334752  0.91660279  0.33707561  1
  O  O478  1  0.98529263  0.91596059  0.58664937  1
  O  O479  1  0.98481861  0.91693907  0.83748248  1
  O  O480  1  0.08750002  0.31423306  0.07707269  1
  O  O481  1  0.08784388  0.31651379  0.32846156  1
  O  O482  1  0.08753193  0.31497231  0.57662292  1
  O  O483  1  0.08498786  0.31503671  0.82664733  1
  O  O484  1  0.08669597  0.64794340  0.07668254  1
  O  O485  1  0.08755909  0.64792421  0.32803997  1
  O  O486  1  0.08550167  0.64905451  0.57778492  1
  O  O487  1  0.08879648  0.64893361  0.82847572  1
  O  O488  1  0.08803901  0.98325507  0.07693353  1
  O  O489  1  0.08714107  0.98098616  0.32766765  1
  O  O490  1  0.08907716  0.98072409  0.57733448  1
  O  O491  1  0.08872352  0.98128180  0.82711668  1
  O  O492  1  0.58603309  0.31503250  0.07809783  1
  O  O493  1  0.58864364  0.31584767  0.32875756  1
  O  O494  1  0.58798955  0.31377772  0.57740276  1
  O  O495  1  0.58818317  0.31607167  0.82754462  1
  O  O496  1  0.58648110  0.64909061  0.07789183  1
  O  O497  1  0.58759583  0.64712406  0.32645190  1
  O  O498  1  0.58646561  0.64904084  0.57810664  1
  O  O499  1  0.58848274  0.64741068  0.82630724  1
  O  O500  1  0.58542787  0.98116515  0.07692529  1
  O  O501  1  0.58799765  0.98247373  0.32758232  1
  O  O502  1  0.58628325  0.98252015  0.57770081  1
  O  O503  1  0.58662637  0.98177941  0.82732981  1
  O  O504  1  0.41061206  0.01792715  0.17212859  1
  O  O505  1  0.41387646  0.01850432  0.42274031  1
  O  O506  1  0.41312290  0.01807160  0.67256013  1
  O  O507  1  0.41060378  0.01842871  0.92287117  1
  O  O508  1  0.41349289  0.35158317  0.17216289  1
  O  O509  1  0.41378320  0.35289728  0.42388421  1
  O  O510  1  0.41212585  0.35089163  0.67142982  1
  O  O511  1  0.41386877  0.35207456  0.92334335  1
  O  O512  1  0.41260064  0.68500867  0.17177368  1
  O  O513  1  0.41302558  0.68360873  0.42209638  1
  O  O514  1  0.41082381  0.68578828  0.67291153  1
  O  O515  1  0.41070428  0.68472466  0.92274776  1
  O  O516  1  0.91312229  0.01819406  0.17288598  1
  O  O517  1  0.91171072  0.01706937  0.42211305  1
  O  O518  1  0.91178766  0.01820830  0.67295317  1
  O  O519  1  0.91114195  0.01793632  0.92185384  1
  O  O520  1  0.91089494  0.35311403  0.17365777  1
  O  O521  1  0.91212723  0.35186542  0.42337406  1
  O  O522  1  0.90964860  0.35280913  0.67262802  1
  O  O523  1  0.91146967  0.35032498  0.92162508  1
  O  O524  1  0.91259595  0.68362592  0.17274702  1
  O  O525  1  0.91247931  0.68591775  0.42220295  1
  O  O526  1  0.91382109  0.68409138  0.67341583  1
  O  O527  1  0.91371181  0.68623134  0.92237340  1
  O  O528  1  0.16314033  0.01861487  0.20112309  1
  O  O529  1  0.16283722  0.01829595  0.45269928  1
  O  O530  1  0.16389970  0.01779922  0.70293291  1
  O  O531  1  0.16400269  0.01763127  0.95306355  1
  O  O532  1  0.16284749  0.35165175  0.20254456  1
  O  O533  1  0.16369761  0.35056972  0.45203537  1
  O  O534  1  0.16268423  0.35149597  0.70206432  1
  O  O535  1  0.16500090  0.35258470  0.95210513  1
  O  O536  1  0.16229923  0.68491128  0.20283079  1
  O  O537  1  0.16046425  0.68554779  0.45236111  1
  O  O538  1  0.16196613  0.68599618  0.70145074  1
  O  O539  1  0.16338326  0.68454168  0.95234277  1
  O  O540  1  0.66415997  0.01791814  0.20213112  1
  O  O541  1  0.66004510  0.01805829  0.45273344  1
  O  O542  1  0.66326596  0.01854952  0.70192516  1
  O  O543  1  0.66455677  0.01804652  0.95178882  1
  O  O544  1  0.66163528  0.35289431  0.20193823  1
  O  O545  1  0.66302589  0.35149904  0.45222293  1
  O  O546  1  0.66254629  0.35187857  0.70360825  1
  O  O547  1  0.66084222  0.35147550  0.95260760  1
  O  O548  1  0.66336438  0.68414115  0.20150783  1
  O  O549  1  0.66241890  0.68545064  0.45279263  1
  O  O550  1  0.66507880  0.68424440  0.70252234  1
  O  O551  1  0.66191652  0.68532824  0.95282321  1
  O  O552  1  0.33871684  0.31589407  0.04794270  1
  O  O553  1  0.33907590  0.31381194  0.29761439  1
  O  O554  1  0.33685365  0.31616868  0.54762114  1
  O  O555  1  0.33900830  0.31376771  0.79679876  1
  O  O556  1  0.33711423  0.64885775  0.04792181  1
  O  O557  1  0.33929366  0.64834502  0.29841690  1
  O  O558  1  0.33912933  0.64715184  0.54750494  1
  O  O559  1  0.33779252  0.64961659  0.79625163  1
  O  O560  1  0.33680963  0.98076536  0.04788009  1
  O  O561  1  0.33820165  0.98290933  0.29672237  1
  O  O562  1  0.33631661  0.98168925  0.54824373  1
  O  O563  1  0.33704880  0.98163982  0.79656245  1
  O  O564  1  0.83801905  0.31407891  0.04736395  1
  O  O565  1  0.83731611  0.31560186  0.29711992  1
  O  O566  1  0.83457211  0.31618508  0.54725087  1
  O  O567  1  0.83626485  0.31489665  0.79804274  1
  O  O568  1  0.83822658  0.64814357  0.04843042  1
  O  O569  1  0.83645056  0.64878683  0.29658019  1
  O  O570  1  0.83877559  0.64689323  0.54831800  1
  O  O571  1  0.83726383  0.64884871  0.79745192  1
  O  O572  1  0.83889593  0.98267650  0.04655406  1
  O  O573  1  0.83890174  0.98125904  0.29812310  1
  O  O574  1  0.83650988  0.98170490  0.54718785  1
  O  O575  1  0.83904832  0.98151130  0.79731757  1
  O  O576  1  0.41082466  0.14827258  0.17215346  1
  O  O577  1  0.41397140  0.14856495  0.42266163  1
  O  O578  1  0.41333599  0.14814460  0.67275377  1
  O  O579  1  0.41074590  0.14830638  0.92228605  1
  O  O580  1  0.41307616  0.48182859  0.17211696  1
  O  O581  1  0.41398659  0.48285462  0.42279661  1
  O  O582  1  0.41176479  0.48135976  0.67149395  1
  O  O583  1  0.41408263  0.48191437  0.92357560  1
  O  O584  1  0.41274154  0.81526473  0.17189767  1
  O  O585  1  0.41259408  0.81376904  0.42299977  1
  O  O586  1  0.41122390  0.81597335  0.67266912  1
  O  O587  1  0.41054941  0.81460608  0.92308548  1
  O  O588  1  0.91301636  0.14814953  0.17322015  1
  O  O589  1  0.91140210  0.14729328  0.42268108  1
  O  O590  1  0.91140788  0.14823113  0.67275494  1
  O  O591  1  0.91073481  0.14821757  0.92207078  1
  O  O592  1  0.91206289  0.48314911  0.17297359  1
  O  O593  1  0.91172519  0.48174300  0.42277453  1
  O  O594  1  0.91068602  0.48298212  0.67199913  1
  O  O595  1  0.91091319  0.48060786  0.92184759  1
  O  O596  1  0.91166485  0.81363042  0.17310322  1
  O  O597  1  0.91355914  0.81611908  0.42247272  1
  O  O598  1  0.91333108  0.81411215  0.67368687  1
  O  O599  1  0.91442120  0.81635254  0.92201743  1
  O  O600  1  0.08703946  0.18391194  0.07731569  1
  O  O601  1  0.08859593  0.18615732  0.32798900  1
  O  O602  1  0.08752311  0.18500066  0.57663662  1
  O  O603  1  0.08534858  0.18493233  0.82680429  1
  O  O604  1  0.08631968  0.51798430  0.07636749  1
  O  O605  1  0.08731346  0.51761455  0.32786366  1
  O  O606  1  0.08549196  0.51899178  0.57699907  1
  O  O607  1  0.08869138  0.51861792  0.82772816  1
  O  O608  1  0.08943837  0.85309275  0.07685966  1
  O  O609  1  0.08677803  0.85084456  0.32833043  1
  O  O610  1  0.08895920  0.85056516  0.57866180  1
  O  O611  1  0.08852095  0.85122934  0.82764733  1
  O  O612  1  0.58554370  0.18480495  0.07725073  1
  O  O613  1  0.58868646  0.18533737  0.32822082  1
  O  O614  1  0.58748269  0.18364076  0.57831633  1
  O  O615  1  0.58869470  0.18587138  0.82676335  1
  O  O616  1  0.58713471  0.51887226  0.07842849  1
  O  O617  1  0.58694334  0.51714805  0.32728670  1
  O  O618  1  0.58642602  0.51892575  0.57798869  1
  O  O619  1  0.58808386  0.51729495  0.82730194  1
  O  O620  1  0.58531139  0.85094628  0.07729084  1
  O  O621  1  0.58856191  0.85216487  0.32747043  1
  O  O622  1  0.58659297  0.85250433  0.57696049  1
  O  O623  1  0.58640636  0.85166414  0.82711052  1
  O  O624  1  0.33911658  0.18563816  0.04741875  1
  O  O625  1  0.33842022  0.18354562  0.29671596  1
  O  O626  1  0.33769503  0.18620885  0.54814425  1
  O  O627  1  0.33827534  0.18349980  0.79624434  1
  O  O628  1  0.33751005  0.51876102  0.04822944  1
  O  O629  1  0.33956284  0.51843570  0.29828198  1
  O  O630  1  0.33885214  0.51699888  0.54664357  1
  O  O631  1  0.33821477  0.51940869  0.79695253  1
  O  O632  1  0.33630731  0.85068503  0.04799945  1
  O  O633  1  0.33819786  0.85266856  0.29783951  1
  O  O634  1  0.33624803  0.85179642  0.54847981  1
  O  O635  1  0.33655822  0.85142527  0.79662618  1
  O  O636  1  0.83812810  0.18386134  0.04674846  1
  O  O637  1  0.83756525  0.18511888  0.29748382  1
  O  O638  1  0.83491456  0.18609873  0.54779335  1
  O  O639  1  0.83644172  0.18483465  0.79755755  1
  O  O640  1  0.83774494  0.51825935  0.04859363  1
  O  O641  1  0.83654541  0.51851768  0.29659416  1
  O  O642  1  0.83766164  0.51682583  0.54738794  1
  O  O643  1  0.83753420  0.51852464  0.79701383  1
  O  O644  1  0.83892344  0.85246950  0.04726405  1
  O  O645  1  0.83876447  0.85098051  0.29770108  1
  O  O646  1  0.83618075  0.85174822  0.54752644  1
  O  O647  1  0.83921907  0.85135734  0.79776823  1
  O  O648  1  0.16362511  0.14851681  0.20076588  1
  O  O649  1  0.16258984  0.14870871  0.45290910  1
  O  O650  1  0.16424933  0.14779961  0.70227536  1
  O  O651  1  0.16384303  0.14785346  0.95233031  1
  O  O652  1  0.16285007  0.48170641  0.20238690  1
  O  O653  1  0.16322050  0.48070493  0.45137782  1
  O  O654  1  0.16305764  0.48160766  0.70153694  1
  O  O655  1  0.16503183  0.48280109  0.95293461  1
  O  O656  1  0.16210547  0.81498925  0.20334228  1
  O  O657  1  0.16063990  0.81581158  0.45333488  1
  O  O658  1  0.16218352  0.81598382  0.70270762  1
  O  O659  1  0.16318281  0.81473766  0.95226867  1
  O  O660  1  0.66416259  0.14796419  0.20223042  1
  O  O661  1  0.65981482  0.14836397  0.45326375  1
  O  O662  1  0.66313216  0.14856433  0.70249669  1
  O  O663  1  0.66430311  0.14799222  0.95228189  1
  O  O664  1  0.66203955  0.48293206  0.20232618  1
  O  O665  1  0.66280620  0.48149319  0.45183294  1
  O  O666  1  0.66302514  0.48204339  0.70314365  1
  O  O667  1  0.66064838  0.48149497  0.95245406  1
  O  O668  1  0.66288812  0.81415007  0.20111754  1
  O  O669  1  0.66302047  0.81577874  0.45266464  1
  O  O670  1  0.66422672  0.81435785  0.70270184  1
  O  O671  1  0.66251215  0.81546780  0.95237297  1
