# generated using pymatgen
data_Na2MnFe(PO4)2
_symmetry_space_group_name_H-M   'P 1'
_cell_length_a   21.08187972
_cell_length_b   18.93336650
_cell_length_c   20.04082585
_cell_angle_alpha   89.99930070
_cell_angle_beta   90.00201946
_cell_angle_gamma   90.00261984
_symmetry_Int_Tables_number   1
_chemical_formula_structural   Na2MnFe(PO4)2
_chemical_formula_sum   'Na96 Mn48 Fe48 P96 O384'
_cell_volume   7999.31476719
_cell_formula_units_Z   48
loop_
 _symmetry_equiv_pos_site_id
 _symmetry_equiv_pos_as_xyz
  1  'x, y, z'
loop_
 _atom_site_type_symbol
 _atom_site_label
 _atom_site_symmetry_multiplicity
 _atom_site_fract_x
 _atom_site_fract_y
 _atom_site_fract_z
 _atom_site_occupancy
  Na  Na0  1  0.00171143  0.00043266  -0.00080213  1
  Na  Na1  1  0.00123659  0.00006087  0.25028766  1
  Na  Na2  1  0.00076379  0.00026408  0.50100423  1
  Na  Na3  1  0.00265491  0.00082524  0.75002961  1
  Na  Na4  1  0.00018554  0.33331230  0.00022478  1
  Na  Na5  1  0.00252446  0.33453069  0.24989901  1
  Na  Na6  1  -0.00140199  0.33273902  0.50048798  1
  Na  Na7  1  -0.00081095  0.33347140  0.74916392  1
  Na  Na8  1  0.00103615  0.66759978  -0.00035337  1
  Na  Na9  1  0.00110768  0.66731868  0.24945609  1
  Na  Na10  1  -0.00105333  0.66671189  0.50069427  1
  Na  Na11  1  -0.00083929  0.66707552  0.74983173  1
  Na  Na12  1  0.50000086  -0.00015011  -0.00047622  1
  Na  Na13  1  0.49949946  0.00034535  0.24913461  1
  Na  Na14  1  0.49822826  -0.00058711  0.50133220  1
  Na  Na15  1  0.50003930  -0.00021105  0.75049557  1
  Na  Na16  1  0.49880651  0.33317694  0.00082707  1
  Na  Na17  1  0.49953797  0.33317281  0.24990598  1
  Na  Na18  1  0.49977193  0.33297742  0.49921092  1
  Na  Na19  1  0.50002050  0.33333619  0.74964384  1
  Na  Na20  1  0.49724995  0.66647337  0.00060165  1
  Na  Na21  1  0.49823582  0.66635614  0.24937172  1
  Na  Na22  1  0.49714679  0.66604227  0.49952287  1
  Na  Na23  1  0.49719680  0.66638528  0.75060387  1
  Na  Na24  1  0.24902545  0.00007278  0.12613935  1
  Na  Na25  1  0.25070093  0.00059651  0.37578109  1
  Na  Na26  1  0.24798746  -0.00069960  0.62522936  1
  Na  Na27  1  0.24781806  -0.00035256  0.87327610  1
  Na  Na28  1  0.25002968  0.33340901  0.12465691  1
  Na  Na29  1  0.25197517  0.33371400  0.37565095  1
  Na  Na30  1  0.25162083  0.33380613  0.62471778  1
  Na  Na31  1  0.24850288  0.33306867  0.87434624  1
  Na  Na32  1  0.25165044  0.66733261  0.12474120  1
  Na  Na33  1  0.25133930  0.66660980  0.37474197  1
  Na  Na34  1  0.25249906  0.66744035  0.62476084  1
  Na  Na35  1  0.25156012  0.66741075  0.87507004  1
  Na  Na36  1  0.74980041  -0.00015001  0.12612631  1
  Na  Na37  1  0.74938726  0.00030955  0.37441911  1
  Na  Na38  1  0.75164022  0.00090899  0.62457024  1
  Na  Na39  1  0.75023829  -0.00068713  0.87520248  1
  Na  Na40  1  0.74921987  0.33312491  0.12495576  1
  Na  Na41  1  0.74784277  0.33303388  0.37462790  1
  Na  Na42  1  0.75055547  0.33334629  0.62500277  1
  Na  Na43  1  0.75296543  0.33394645  0.87549198  1
  Na  Na44  1  0.75031525  0.66687596  0.12486158  1
  Na  Na45  1  0.75022803  0.66664219  0.37529889  1
  Na  Na46  1  0.75128937  0.66754070  0.62484923  1
  Na  Na47  1  0.75058824  0.66723603  0.87502388  1
  Na  Na48  1  -0.00055003  0.16710739  0.00066366  1
  Na  Na49  1  0.00232975  0.16600687  0.24921919  1
  Na  Na50  1  0.00100976  0.16609536  0.50062588  1
  Na  Na51  1  0.00019428  0.16616351  0.74940359  1
  Na  Na52  1  0.00130122  0.49915848  -0.00055334  1
  Na  Na53  1  -0.00016717  0.50011205  0.25008303  1
  Na  Na54  1  -0.00309932  0.50072174  0.50046305  1
  Na  Na55  1  0.00016743  0.49919983  0.74940644  1
  Na  Na56  1  0.00207192  0.83240826  -0.00091537  1
  Na  Na57  1  0.00230442  0.83264082  0.25034125  1
  Na  Na58  1  0.00107522  0.83312562  0.50104910  1
  Na  Na59  1  0.00042093  0.83342112  0.75020967  1
  Na  Na60  1  0.49851475  0.16703523  0.00065091  1
  Na  Na61  1  0.50085031  0.16615600  0.24972434  1
  Na  Na62  1  0.49889388  0.16726557  0.50035881  1
  Na  Na63  1  0.49934101  0.16660904  0.74975808  1
  Na  Na64  1  0.49628962  0.50127304  0.00118036  1
  Na  Na65  1  0.49871496  0.49992844  0.24942358  1
  Na  Na66  1  0.49884462  0.49992648  0.49928856  1
  Na  Na67  1  0.49750635  0.50053803  0.75001934  1
  Na  Na68  1  0.50092460  0.83262408  -0.00091158  1
  Na  Na69  1  0.49763535  0.83413734  0.24923375  1
  Na  Na70  1  0.49802779  0.83390845  0.50039218  1
  Na  Na71  1  0.50055215  0.83347146  0.75108190  1
  Na  Na72  1  0.25007092  0.16623012  0.12572737  1
  Na  Na73  1  0.25024772  0.16688040  0.37640249  1
  Na  Na74  1  0.25024823  0.16634582  0.62464419  1
  Na  Na75  1  0.24823415  0.16696459  0.87377582  1
  Na  Na76  1  0.25172654  0.49941675  0.12413651  1
  Na  Na77  1  0.25385308  0.49882973  0.37443934  1
  Na  Na78  1  0.25148935  0.50012646  0.62564985  1
  Na  Na79  1  0.25110100  0.49960208  0.87453644  1
  Na  Na80  1  0.25004965  0.83261382  0.12558317  1
  Na  Na81  1  0.24938262  0.83364376  0.37518042  1
  Na  Na82  1  0.25011922  0.83339288  0.62451653  1
  Na  Na83  1  0.24817226  0.83393055  0.87459510  1
  Na  Na84  1  0.75093290  0.16629324  0.12493100  1
  Na  Na85  1  0.74726774  0.16733893  0.37442429  1
  Na  Na86  1  0.75017366  0.16647186  0.62495050  1
  Na  Na87  1  0.75374609  0.16537758  0.87552053  1
  Na  Na88  1  0.75009271  0.50007702  0.12598553  1
  Na  Na89  1  0.74936555  0.49988994  0.37513613  1
  Na  Na90  1  0.75180613  0.49906299  0.62402205  1
  Na  Na91  1  0.75208896  0.49933587  0.87528647  1
  Na  Na92  1  0.74861346  0.83318677  0.12506552  1
  Na  Na93  1  0.75098975  0.83265189  0.37491978  1
  Na  Na94  1  0.75101555  0.83317279  0.62555449  1
  Na  Na95  1  0.74894877  0.83334903  0.87464467  1
  Mn  Mn96  1  0.64183648  0.91706127  0.49796753  1
  Mn  Mn97  1  0.14205868  0.24947328  0.99698947  1
  Mn  Mn98  1  0.89290041  0.91663537  0.37749637  1
  Mn  Mn99  1  0.10820764  0.41706810  0.37338879  1
  Mn  Mn100  1  0.39115647  0.25026327  0.87715591  1
  Mn  Mn101  1  0.14301725  0.58354020  0.74768886  1
  Mn  Mn102  1  0.89287304  0.25034184  0.12800448  1
  Mn  Mn103  1  0.60844757  0.08347851  0.87304613  1
  Mn  Mn104  1  0.14287215  0.58328252  0.49734815  1
  Mn  Mn105  1  0.14331872  0.58367598  0.99745121  1
  Mn  Mn106  1  0.89267695  0.58308645  0.87747347  1
  Mn  Mn107  1  0.10796203  0.74985567  0.62289033  1
  Mn  Mn108  1  0.35764602  0.41651559  0.75269557  1
  Mn  Mn109  1  0.85754103  0.08357244  0.25289518  1
  Mn  Mn110  1  0.14318351  0.25036445  0.49746299  1
  Mn  Mn111  1  0.64331321  0.24974257  0.99723397  1
  Mn  Mn112  1  0.64193457  0.58356978  0.99773447  1
  Mn  Mn113  1  0.60680386  0.74981879  0.12287459  1
  Mn  Mn114  1  0.89152741  0.24936832  0.62670029  1
  Mn  Mn115  1  0.64114025  0.91616121  0.24825845  1
  Mn  Mn116  1  0.60781136  0.08337537  0.62303968  1
  Mn  Mn117  1  0.89304074  0.91699297  0.87741882  1
  Mn  Mn118  1  0.89290119  0.58362495  0.12708365  1
  Mn  Mn119  1  0.39135747  0.25007966  0.12741012  1
  Mn  Mn120  1  0.60765924  0.41689724  0.62322341  1
  Mn  Mn121  1  0.64326854  0.24955341  0.74864574  1
  Mn  Mn122  1  0.64181243  0.58334171  0.49774922  1
  Mn  Mn123  1  0.89142015  0.58348326  0.62744538  1
  Mn  Mn124  1  0.10855847  0.08326477  0.12223936  1
  Mn  Mn125  1  0.39133614  0.91662000  0.12624753  1
  Mn  Mn126  1  0.35787680  0.08356028  0.25338172  1
  Mn  Mn127  1  0.89275173  0.91693154  0.62699163  1
  Mn  Mn128  1  0.35654848  0.08305382  0.75215130  1
  Mn  Mn129  1  0.60784042  0.41723534  0.87344564  1
  Mn  Mn130  1  0.60706467  0.75004672  0.37290437  1
  Mn  Mn131  1  0.89284869  0.91612809  0.12649898  1
  Mn  Mn132  1  0.60777562  0.08303213  0.12203395  1
  Mn  Mn133  1  0.35764919  0.75039144  0.50236897  1
  Mn  Mn134  1  0.64199506  0.58325754  0.74805379  1
  Mn  Mn135  1  0.10746818  0.41670667  0.62194213  1
  Mn  Mn136  1  0.85749916  0.41664943  0.25232145  1
  Mn  Mn137  1  0.14260732  0.91669022  0.24811849  1
  Mn  Mn138  1  0.39199345  0.91670356  0.87769006  1
  Mn  Mn139  1  0.60708866  0.74966468  0.62324798  1
  Mn  Mn140  1  0.85841841  0.74968424  0.25197595  1
  Mn  Mn141  1  0.89205834  0.25001538  0.37684952  1
  Mn  Mn142  1  0.60684618  0.41712996  0.12244392  1
  Mn  Mn143  1  0.14289608  0.58228432  0.24827192  1
  Fe  Fe144  1  0.35669065  0.41603334  0.00146921  1
  Fe  Fe145  1  0.10788328  0.74956259  0.87264855  1
  Fe  Fe146  1  0.10856698  0.74944842  0.12270376  1
  Fe  Fe147  1  0.85794431  0.75034970  0.50142048  1
  Fe  Fe148  1  0.39231994  0.58341795  0.62702539  1
  Fe  Fe149  1  0.60651239  0.41653718  0.37325003  1
  Fe  Fe150  1  0.10851083  0.41735142  0.12316564  1
  Fe  Fe151  1  0.60651496  0.08327754  0.37440493  1
  Fe  Fe152  1  0.39214499  0.91715530  0.37724688  1
  Fe  Fe153  1  0.39183242  0.58344007  0.12731917  1
  Fe  Fe154  1  0.64184673  0.24968293  0.49841246  1
  Fe  Fe155  1  0.14276186  0.91651546  0.74787648  1
  Fe  Fe156  1  0.35872861  0.41612469  0.50199180  1
  Fe  Fe157  1  0.39311331  0.24964041  0.37685373  1
  Fe  Fe158  1  0.35734600  0.41646631  0.25195422  1
  Fe  Fe159  1  0.14352629  0.25076569  0.24943912  1
  Fe  Fe160  1  0.64151653  0.25044129  0.24826866  1
  Fe  Fe161  1  0.64194967  0.58322198  0.24871029  1
  Fe  Fe162  1  0.14164702  0.24995374  0.74765970  1
  Fe  Fe163  1  0.85787961  0.41659320  0.75222271  1
  Fe  Fe164  1  0.35747277  0.08346021  0.50213488  1
  Fe  Fe165  1  0.64302314  0.91649428  0.99843737  1
  Fe  Fe166  1  0.10722035  0.74945418  0.37364106  1
  Fe  Fe167  1  0.85749781  0.75022787  0.00143166  1
  Fe  Fe168  1  0.10797142  0.08340618  0.37417827  1
  Fe  Fe169  1  0.14334736  0.91660783  0.49808348  1
  Fe  Fe170  1  0.85703641  0.75030549  0.75244197  1
  Fe  Fe171  1  0.10732169  0.41655578  0.87305741  1
  Fe  Fe172  1  0.35681065  0.75110562  0.00153384  1
  Fe  Fe173  1  0.35685558  0.74993003  0.25216694  1
  Fe  Fe174  1  0.64336249  0.91684638  0.74842003  1
  Fe  Fe175  1  0.60699192  0.74942341  0.87346527  1
  Fe  Fe176  1  0.14274099  0.91660361  0.99826745  1
  Fe  Fe177  1  0.39295645  0.58319424  0.37642316  1
  Fe  Fe178  1  0.10725446  0.08383815  0.87299333  1
  Fe  Fe179  1  0.89203742  0.58356668  0.37627457  1
  Fe  Fe180  1  0.39235410  0.58341184  0.87717481  1
  Fe  Fe181  1  0.35727886  0.75075915  0.75226938  1
  Fe  Fe182  1  0.85864035  0.41706190  0.00230496  1
  Fe  Fe183  1  0.85833242  0.08297878  0.75194946  1
  Fe  Fe184  1  0.85742597  0.08365551  0.50075299  1
  Fe  Fe185  1  0.39195962  0.91670767  0.62767550  1
  Fe  Fe186  1  0.85833207  0.08240979  0.00180118  1
  Fe  Fe187  1  0.39288475  0.24976763  0.62686808  1
  Fe  Fe188  1  0.89375199  0.25003895  0.87625348  1
  Fe  Fe189  1  0.85624950  0.41602486  0.50055297  1
  Fe  Fe190  1  0.35641702  0.08308464  0.00060090  1
  Fe  Fe191  1  0.10716976  0.08366491  0.62275097  1
  P  P192  1  0.05552357  0.25122538  0.11127166  1
  P  P193  1  0.05416620  0.24943036  0.35964966  1
  P  P194  1  0.05431690  0.24937104  0.61065903  1
  P  P195  1  0.05298310  0.25010048  0.85928499  1
  P  P196  1  0.05449840  0.58314481  0.10978581  1
  P  P197  1  0.05201313  0.58393577  0.36030658  1
  P  P198  1  0.05326897  0.58343911  0.60972389  1
  P  P199  1  0.05397159  0.58345521  0.85981246  1
  P  P200  1  0.05482836  0.91578656  0.10907915  1
  P  P201  1  0.05523794  0.91666140  0.36189735  1
  P  P202  1  0.05587420  0.91733841  0.61068695  1
  P  P203  1  0.05594677  0.91642970  0.86056706  1
  P  P204  1  0.55413736  0.25018991  0.11057807  1
  P  P205  1  0.55364361  0.24973033  0.36098810  1
  P  P206  1  0.55300597  0.25002156  0.60968706  1
  P  P207  1  0.55285582  0.25013691  0.85997081  1
  P  P208  1  0.55231776  0.58354183  0.11102413  1
  P  P209  1  0.55226843  0.58264644  0.35949900  1
  P  P210  1  0.55143583  0.58351110  0.61006277  1
  P  P211  1  0.55166073  0.58404400  0.86041494  1
  P  P212  1  0.55340017  0.91634836  0.10871783  1
  P  P213  1  0.55113164  0.91748166  0.36046456  1
  P  P214  1  0.55290895  0.91650296  0.61159571  1
  P  P215  1  0.55557987  0.91590466  0.86074202  1
  P  P216  1  0.44481165  0.08314574  0.13879107  1
  P  P217  1  0.44694716  0.08346288  0.39079127  1
  P  P218  1  0.44501371  0.08337256  0.63923023  1
  P  P219  1  0.44593017  0.08321278  0.89066802  1
  P  P220  1  0.44383201  0.41708668  0.13962518  1
  P  P221  1  0.44584902  0.41634886  0.38875654  1
  P  P222  1  0.44531140  0.41618580  0.63882585  1
  P  P223  1  0.44587653  0.41721088  0.89100554  1
  P  P224  1  0.44367965  0.74980338  0.13923774  1
  P  P225  1  0.44498511  0.75012469  0.38860120  1
  P  P226  1  0.44528675  0.75045763  0.64093839  1
  P  P227  1  0.44560287  0.74982547  0.88960823  1
  P  P228  1  0.94599177  0.08265404  0.13926103  1
  P  P229  1  0.94803431  0.08363690  0.39068256  1
  P  P230  1  0.94602987  0.08314652  0.63941482  1
  P  P231  1  0.94686173  0.08392067  0.88913139  1
  P  P232  1  0.94745094  0.41706810  0.13936727  1
  P  P233  1  0.94615436  0.41711040  0.39051076  1
  P  P234  1  0.94414511  0.41621415  0.63913633  1
  P  P235  1  0.94666883  0.41579673  0.88926146  1
  P  P236  1  0.94776873  0.75030605  0.13866547  1
  P  P237  1  0.94759154  0.74947933  0.39052683  1
  P  P238  1  0.94484764  0.75051862  0.64001761  1
  P  P239  1  0.94649993  0.75031996  0.88936133  1
  P  P240  1  0.19555138  0.08448631  0.23701355  1
  P  P241  1  0.19642391  0.08275033  0.48617941  1
  P  P242  1  0.19369138  0.08361153  0.73523903  1
  P  P243  1  0.19697094  0.08247513  0.98396479  1
  P  P244  1  0.19781185  0.41604759  0.23486068  1
  P  P245  1  0.19915039  0.41700618  0.48501041  1
  P  P246  1  0.19507145  0.41603481  0.73570815  1
  P  P247  1  0.19638060  0.41689728  0.98508632  1
  P  P248  1  0.19614625  0.74926755  0.23589658  1
  P  P249  1  0.19628281  0.75048344  0.48443984  1
  P  P250  1  0.19705230  0.75040829  0.73582095  1
  P  P251  1  0.19632061  0.75055106  0.98535147  1
  P  P252  1  0.69434342  0.08406817  0.23632700  1
  P  P253  1  0.69696617  0.08390617  0.48458471  1
  P  P254  1  0.69846384  0.08254694  0.73533180  1
  P  P255  1  0.69869807  0.08262106  0.98519133  1
  P  P256  1  0.69424373  0.41702200  0.23636613  1
  P  P257  1  0.69613227  0.41585461  0.48458091  1
  P  P258  1  0.69833852  0.41665109  0.73528898  1
  P  P259  1  0.69858042  0.41691257  0.98529382  1
  P  P260  1  0.69615360  0.74873655  0.23515128  1
  P  P261  1  0.69776251  0.75030601  0.48530371  1
  P  P262  1  0.69639783  0.75051920  0.73630894  1
  P  P263  1  0.69687151  0.75028436  0.98461765  1
  P  P264  1  0.30273510  0.24941614  0.01458535  1
  P  P265  1  0.30305393  0.25078296  0.26609809  1
  P  P266  1  0.30614106  0.24976856  0.51435175  1
  P  P267  1  0.30238419  0.24971360  0.76363685  1
  P  P268  1  0.30555458  0.58361783  0.01398185  1
  P  P269  1  0.30531748  0.58320569  0.26415190  1
  P  P270  1  0.30571849  0.58245553  0.51429784  1
  P  P271  1  0.30551828  0.58435505  0.76465645  1
  P  P272  1  0.30138243  0.91719958  0.01446882  1
  P  P273  1  0.30393752  0.91601135  0.26585026  1
  P  P274  1  0.30424266  0.91773644  0.51465618  1
  P  P275  1  0.30312697  0.91618382  0.76386817  1
  P  P276  1  0.80616831  0.24991569  0.01391046  1
  P  P277  1  0.80152717  0.25030994  0.26506989  1
  P  P278  1  0.80175335  0.24973213  0.51416509  1
  P  P279  1  0.80486726  0.24959599  0.76562501  1
  P  P280  1  0.80388623  0.58377272  0.01512819  1
  P  P281  1  0.80257796  0.58326653  0.26558075  1
  P  P282  1  0.80453107  0.58328676  0.51336215  1
  P  P283  1  0.80346594  0.58342430  0.76517469  1
  P  P284  1  0.80269908  0.91594693  0.01482222  1
  P  P285  1  0.80328760  0.91627368  0.26509082  1
  P  P286  1  0.80365055  0.91709014  0.51466754  1
  P  P287  1  0.80325104  0.91687685  0.76496507  1
  O  O288  1  0.05993480  0.25077622  0.18796399  1
  O  O289  1  0.05708234  0.25018927  0.43649341  1
  O  O290  1  0.05801091  0.25021434  0.68740317  1
  O  O291  1  0.05622820  0.24994039  0.93609577  1
  O  O292  1  0.05718895  0.58312133  0.18656535  1
  O  O293  1  0.05588137  0.58313154  0.43697671  1
  O  O294  1  0.05704069  0.58342730  0.68646180  1
  O  O295  1  0.05714127  0.58362364  0.93656180  1
  O  O296  1  0.05763909  0.91642810  0.18594419  1
  O  O297  1  0.05880858  0.91685208  0.43869232  1
  O  O298  1  0.05957733  0.91624562  0.68752613  1
  O  O299  1  0.05962206  0.91642348  0.93736470  1
  O  O300  1  0.55826986  0.25017068  0.18739720  1
  O  O301  1  0.55811185  0.24988362  0.43772921  1
  O  O302  1  0.55734837  0.24983519  0.68638552  1
  O  O303  1  0.55656753  0.24991712  0.93676260  1
  O  O304  1  0.55757574  0.58345450  0.18761729  1
  O  O305  1  0.55595380  0.58329164  0.43626236  1
  O  O306  1  0.55559262  0.58347453  0.68676923  1
  O  O307  1  0.55540163  0.58359057  0.93714348  1
  O  O308  1  0.55632607  0.91648960  0.18555330  1
  O  O309  1  0.55494078  0.91671006  0.43720441  1
  O  O310  1  0.55874067  0.91685191  0.68821160  1
  O  O311  1  0.56007669  0.91677685  0.93750417  1
  O  O312  1  0.43995439  0.08305958  0.06210421  1
  O  O313  1  0.44392477  0.08351191  0.31398848  1
  O  O314  1  0.44127124  0.08306454  0.56248701  1
  O  O315  1  0.44225642  0.08291901  0.81387645  1
  O  O316  1  0.43959199  0.41605967  0.06288895  1
  O  O317  1  0.44156656  0.41603794  0.31204307  1
  O  O318  1  0.44237391  0.41611683  0.56200002  1
  O  O319  1  0.44315625  0.41604723  0.81411215  1
  O  O320  1  0.43980941  0.75093284  0.06241248  1
  O  O321  1  0.44150547  0.75034411  0.31181227  1
  O  O322  1  0.44270869  0.75085022  0.56415120  1
  O  O323  1  0.44106317  0.75113591  0.81290778  1
  O  O324  1  0.94149011  0.08249167  0.06243260  1
  O  O325  1  0.94406923  0.08368644  0.31393432  1
  O  O326  1  0.94063288  0.08334310  0.56277660  1
  O  O327  1  0.94222767  0.08260870  0.81239804  1
  O  O328  1  0.94244160  0.41685697  0.06265750  1
  O  O329  1  0.94347744  0.41632218  0.31367154  1
  O  O330  1  0.93922499  0.41596369  0.56241953  1
  O  O331  1  0.94184242  0.41676284  0.81253665  1
  O  O332  1  0.94224292  0.75048551  0.06204444  1
  O  O333  1  0.94438423  0.75023225  0.31372737  1
  O  O334  1  0.94048301  0.75063595  0.56323363  1
  O  O335  1  0.94095506  0.75053441  0.81268779  1
  O  O336  1  0.19404051  0.08336894  0.06078523  1
  O  O337  1  0.19175741  0.08378122  0.31376948  1
  O  O338  1  0.19178863  0.08350562  0.56285405  1
  O  O339  1  0.18992332  0.08403602  0.81207801  1
  O  O340  1  0.19201769  0.41704943  0.06180889  1
  O  O341  1  0.19408950  0.41703799  0.31157308  1
  O  O342  1  0.19465097  0.41726366  0.56166957  1
  O  O343  1  0.19070037  0.41652138  0.81250582  1
  O  O344  1  0.19210313  0.74955787  0.06212055  1
  O  O345  1  0.19113176  0.74909299  0.31255656  1
  O  O346  1  0.19350965  0.74948470  0.56126298  1
  O  O347  1  0.19236135  0.74958553  0.81252429  1
  O  O348  1  0.69464327  0.08332837  0.06189181  1
  O  O349  1  0.68970105  0.08330979  0.31307532  1
  O  O350  1  0.69350138  0.08326116  0.56134518  1
  O  O351  1  0.69469170  0.08304900  0.81199322  1
  O  O352  1  0.69372921  0.41706940  0.06197183  1
  O  O353  1  0.68994225  0.41694865  0.31314576  1
  O  O354  1  0.69300203  0.41659700  0.56135845  1
  O  O355  1  0.69429177  0.41698125  0.81196688  1
  O  O356  1  0.69280576  0.74937104  0.06132097  1
  O  O357  1  0.69289724  0.74943201  0.31193940  1
  O  O358  1  0.69364831  0.75021922  0.56201852  1
  O  O359  1  0.69127793  0.74940000  0.81292032  1
  O  O360  1  0.30601472  0.24974111  0.18934892  1
  O  O361  1  0.31020418  0.24971526  0.43754691  1
  O  O362  1  0.30777787  0.24984078  0.68703294  1
  O  O363  1  0.30509927  0.24979280  0.93777115  1
  O  O364  1  0.30813627  0.58336919  0.18728064  1
  O  O365  1  0.30971130  0.58296163  0.43746702  1
  O  O366  1  0.30922864  0.58359825  0.68781502  1
  O  O367  1  0.30876495  0.58356272  0.93709711  1
  O  O368  1  0.30641078  0.91689181  0.18905338  1
  O  O369  1  0.30894603  0.91729350  0.43793123  1
  O  O370  1  0.30783152  0.91660223  0.68718351  1
  O  O371  1  0.30462114  0.91699893  0.93774622  1
  O  O372  1  0.80612201  0.25030000  0.18838140  1
  O  O373  1  0.80521655  0.24968922  0.43751999  1
  O  O374  1  0.80665034  0.24940565  0.68875880  1
  O  O375  1  0.81042190  0.25003750  0.93714606  1
  O  O376  1  0.80690727  0.58337427  0.18887122  1
  O  O377  1  0.80831218  0.58357330  0.43659995  1
  O  O378  1  0.80585723  0.58349803  0.68835830  1
  O  O379  1  0.80710795  0.58362871  0.93836734  1
  O  O380  1  0.80673590  0.91619751  0.18833929  1
  O  O381  1  0.80650767  0.91698201  0.43789452  1
  O  O382  1  0.80685268  0.91708302  0.68829781  1
  O  O383  1  0.80651149  0.91599167  0.93812887  1
  O  O384  1  0.23324711  0.24952828  0.04035092  1
  O  O385  1  0.23317517  0.25061837  0.29121092  1
  O  O386  1  0.23599969  0.24990166  0.53832529  1
  O  O387  1  0.23202398  0.24965769  0.78712566  1
  O  O388  1  0.23564410  0.58370730  0.03870855  1
  O  O389  1  0.23554542  0.58266823  0.28934760  1
  O  O390  1  0.23574948  0.58372796  0.53875537  1
  O  O391  1  0.23557714  0.58340099  0.78905435  1
  O  O392  1  0.23164335  0.91651353  0.04003289  1
  O  O393  1  0.23423836  0.91692988  0.29100096  1
  O  O394  1  0.23378614  0.91665178  0.53807524  1
  O  O395  1  0.23273371  0.91696215  0.78730251  1
  O  O396  1  0.73614513  0.24985227  0.03829816  1
  O  O397  1  0.73134608  0.25047938  0.28894468  1
  O  O398  1  0.73183270  0.24979733  0.53938389  1
  O  O399  1  0.73542917  0.24947752  0.79173294  1
  O  O400  1  0.73418741  0.58358770  0.04033036  1
  O  O401  1  0.73241985  0.58311528  0.28971904  1
  O  O402  1  0.73463003  0.58321199  0.53828548  1
  O  O403  1  0.73399158  0.58331214  0.79106343  1
  O  O404  1  0.73266384  0.91620583  0.03959462  1
  O  O405  1  0.73349095  0.91609664  0.28996147  1
  O  O406  1  0.73408959  0.91713392  0.54036735  1
  O  O407  1  0.73325238  0.91664479  0.78972068  1
  O  O408  1  0.26548132  0.08343421  0.21254840  1
  O  O409  1  0.26687683  0.08359527  0.46264485  1
  O  O410  1  0.26376369  0.08296662  0.71108524  1
  O  O411  1  0.26676260  0.08329122  0.95860524  1
  O  O412  1  0.26794349  0.41652826  0.21051627  1
  O  O413  1  0.26932507  0.41617521  0.46107262  1
  O  O414  1  0.26522683  0.41678872  0.71189350  1
  O  O415  1  0.26676192  0.41655191  0.96140196  1
  O  O416  1  0.26659468  0.74963771  0.21255133  1
  O  O417  1  0.26608203  0.75033366  0.45962808  1
  O  O418  1  0.26726490  0.75043981  0.71178008  1
  O  O419  1  0.26672934  0.75039183  0.96162128  1
  O  O420  1  0.76446892  0.08349075  0.21235891  1
  O  O421  1  0.76701856  0.08368472  0.45982316  1
  O  O422  1  0.76856467  0.08334021  0.71081282  1
  O  O423  1  0.76888736  0.08251103  0.96090625  1
  O  O424  1  0.76429544  0.41685983  0.21206620  1
  O  O425  1  0.76621938  0.41624775  0.45986757  1
  O  O426  1  0.76843990  0.41633890  0.71092447  1
  O  O427  1  0.76893873  0.41691898  0.96172465  1
  O  O428  1  0.76584539  0.74955454  0.20998029  1
  O  O429  1  0.76791589  0.75008351  0.46101294  1
  O  O430  1  0.76683909  0.75050688  0.71280578  1
  O  O431  1  0.76711306  0.75003529  0.96044239  1
  O  O432  1  0.01614581  0.08283032  0.16288348  1
  O  O433  1  0.01815723  0.08336772  0.41503029  1
  O  O434  1  0.01652824  0.08326187  0.66246904  1
  O  O435  1  0.01739016  0.08350693  0.91262926  1
  O  O436  1  0.01777241  0.41742554  0.16296907  1
  O  O437  1  0.01581853  0.41667119  0.41600414  1
  O  O438  1  0.01440642  0.41647410  0.66247601  1
  O  O439  1  0.01718848  0.41629672  0.91270485  1
  O  O440  1  0.01820186  0.74985134  0.16205110  1
  O  O441  1  0.01759098  0.74984925  0.41544369  1
  O  O442  1  0.01505181  0.75041609  0.66365852  1
  O  O443  1  0.01719093  0.75018146  0.91196747  1
  O  O444  1  0.51490846  0.08318023  0.16257393  1
  O  O445  1  0.51691912  0.08345683  0.41589318  1
  O  O446  1  0.51491549  0.08331007  0.66400112  1
  O  O447  1  0.51581599  0.08323081  0.91516762  1
  O  O448  1  0.51391467  0.41662565  0.16354652  1
  O  O449  1  0.51626107  0.41642556  0.41273319  1
  O  O450  1  0.51498973  0.41662256  0.66426163  1
  O  O451  1  0.51540522  0.41720592  0.91666734  1
  O  O452  1  0.51369989  0.75026139  0.16347766  1
  O  O453  1  0.51469050  0.74977061  0.41397246  1
  O  O454  1  0.51492993  0.75022480  0.66642596  1
  O  O455  1  0.51593677  0.74991157  0.91343975  1
  O  O456  1  0.48401147  0.25027959  0.08683910  1
  O  O457  1  0.48315647  0.24981922  0.33711962  1
  O  O458  1  0.48280049  0.24997862  0.58575840  1
  O  O459  1  0.48309321  0.24996431  0.83509327  1
  O  O460  1  0.48183878  0.58366039  0.08786162  1
  O  O461  1  0.48207026  0.58299302  0.33525393  1
  O  O462  1  0.48133344  0.58329392  0.58582339  1
  O  O463  1  0.48156486  0.58364082  0.83598086  1
  O  O464  1  0.48365309  0.91616326  0.08378546  1
  O  O465  1  0.48113490  0.91749558  0.33564226  1
  O  O466  1  0.48234156  0.91648418  0.58867476  1
  O  O467  1  0.48526538  0.91675844  0.83723268  1
  O  O468  1  0.98553214  0.25048098  0.08703377  1
  O  O469  1  0.98454721  0.25023697  0.33416423  1
  O  O470  1  0.98436354  0.24933928  0.58620886  1
  O  O471  1  0.98296544  0.25001972  0.83448070  1
  O  O472  1  0.98502052  0.58330362  0.08399656  1
  O  O473  1  0.98204518  0.58363674  0.33538604  1
  O  O474  1  0.98334625  0.58353686  0.58553809  1
  O  O475  1  0.98430283  0.58341121  0.83455502  1
  O  O476  1  0.98526335  0.91631887  0.08360499  1
  O  O477  1  0.98547678  0.91653245  0.33669764  1
  O  O478  1  0.98581210  0.91676237  0.58661389  1
  O  O479  1  0.98588789  0.91672642  0.83615964  1
  O  O480  1  0.08866597  0.31652644  0.07819256  1
  O  O481  1  0.08909583  0.31426225  0.32733299  1
  O  O482  1  0.08797204  0.31420254  0.57724044  1
  O  O483  1  0.08704290  0.31513675  0.82671404  1
  O  O484  1  0.08888417  0.64823884  0.07755283  1
  O  O485  1  0.08596452  0.64905320  0.32785399  1
  O  O486  1  0.08709718  0.64857317  0.57718525  1
  O  O487  1  0.08799239  0.64871922  0.82741532  1
  O  O488  1  0.08944158  0.98067702  0.07658923  1
  O  O489  1  0.08889024  0.98186839  0.32908839  1
  O  O490  1  0.08922708  0.98269697  0.57801508  1
  O  O491  1  0.08974865  0.98148304  0.82774425  1
  O  O492  1  0.58767473  0.31521279  0.07750506  1
  O  O493  1  0.58696921  0.31477517  0.32753799  1
  O  O494  1  0.58674695  0.31501531  0.57668203  1
  O  O495  1  0.58673727  0.31537401  0.82763181  1
  O  O496  1  0.58537563  0.64855546  0.07740844  1
  O  O497  1  0.58622583  0.64754260  0.32646482  1
  O  O498  1  0.58489008  0.64865850  0.57709322  1
  O  O499  1  0.58520056  0.64928786  0.82771455  1
  O  O500  1  0.58770198  0.98123934  0.07612745  1
  O  O501  1  0.58500878  0.98264078  0.32817430  1
  O  O502  1  0.58590979  0.98154244  0.57784249  1
  O  O503  1  0.58955066  0.98054135  0.82705950  1
  O  O504  1  0.41146875  0.01804444  0.17202651  1
  O  O505  1  0.41259385  0.01859011  0.42338903  1
  O  O506  1  0.41119167  0.01840231  0.67230757  1
  O  O507  1  0.41180701  0.01821995  0.92343931  1
  O  O508  1  0.41002696  0.35235725  0.17328373  1
  O  O509  1  0.41258388  0.35133545  0.42227564  1
  O  O510  1  0.41161894  0.35089508  0.67155955  1
  O  O511  1  0.41127200  0.35233254  0.92352342  1
  O  O512  1  0.41016629  0.68453653  0.17194911  1
  O  O513  1  0.41105080  0.68491214  0.42100089  1
  O  O514  1  0.41088231  0.68524435  0.67281498  1
  O  O515  1  0.41194730  0.68475839  0.92231213  1
  O  O516  1  0.91275082  0.01756726  0.17245003  1
  O  O517  1  0.91392664  0.01881131  0.42358256  1
  O  O518  1  0.91307957  0.01810704  0.67328288  1
  O  O519  1  0.91345518  0.01907812  0.92303475  1
  O  O520  1  0.91425415  0.35210388  0.17303852  1
  O  O521  1  0.91156083  0.35218534  0.42302505  1
  O  O522  1  0.91095001  0.35110647  0.67254243  1
  O  O523  1  0.91376373  0.35049393  0.92235348  1
  O  O524  1  0.91440278  0.68530044  0.17215278  1
  O  O525  1  0.91345087  0.68434560  0.42267996  1
  O  O526  1  0.91113271  0.68558849  0.67316272  1
  O  O527  1  0.91330217  0.68539982  0.92302348  1
  O  O528  1  0.16143788  0.01976505  0.20376663  1
  O  O529  1  0.16343292  0.01744264  0.45301998  1
  O  O530  1  0.15983790  0.01847986  0.70262075  1
  O  O531  1  0.16301753  0.01724755  0.95190172  1
  O  O532  1  0.16409054  0.35081244  0.20245107  1
  O  O533  1  0.16508661  0.35211373  0.45232067  1
  O  O534  1  0.16200984  0.35073968  0.70264366  1
  O  O535  1  0.16257276  0.35204699  0.95188333  1
  O  O536  1  0.16316759  0.68419102  0.20220722  1
  O  O537  1  0.16214580  0.68565539  0.45142189  1
  O  O538  1  0.16383020  0.68543560  0.70217395  1
  O  O539  1  0.16293901  0.68569817  0.95153331  1
  O  O540  1  0.66071701  0.01902126  0.20310229  1
  O  O541  1  0.66272293  0.01899125  0.45174922  1
  O  O542  1  0.66490015  0.01733450  0.70255164  1
  O  O543  1  0.66476631  0.01759648  0.95275863  1
  O  O544  1  0.66064432  0.35192575  0.20338455  1
  O  O545  1  0.66214488  0.35068128  0.45231751  1
  O  O546  1  0.66447680  0.35150508  0.70273697  1
  O  O547  1  0.66519081  0.35185260  0.95217344  1
  O  O548  1  0.66244128  0.68328534  0.20291892  1
  O  O549  1  0.66375583  0.68534637  0.45258105  1
  O  O550  1  0.66328736  0.68552889  0.70241472  1
  O  O551  1  0.66286865  0.68540497  0.95135050  1
  O  O552  1  0.33698758  0.31450253  0.04689301  1
  O  O553  1  0.33726930  0.31596551  0.29809161  1
  O  O554  1  0.33982789  0.31480328  0.54736617  1
  O  O555  1  0.33560510  0.31470712  0.79727034  1
  O  O556  1  0.33932581  0.64877165  0.04665678  1
  O  O557  1  0.33905112  0.64835282  0.29694592  1
  O  O558  1  0.33998469  0.64728237  0.54727683  1
  O  O559  1  0.33875942  0.64976377  0.79731943  1
  O  O560  1  0.33498801  0.98253555  0.04689939  1
  O  O561  1  0.33863939  0.98064942  0.29867143  1
  O  O562  1  0.33710829  0.98294896  0.54807537  1
  O  O563  1  0.33662419  0.98100054  0.79736759  1
  O  O564  1  0.83953525  0.31520673  0.04705008  1
  O  O565  1  0.83525623  0.31530069  0.29790582  1
  O  O566  1  0.83579321  0.31482327  0.54667070  1
  O  O567  1  0.83937016  0.31478639  0.79753031  1
  O  O568  1  0.83778492  0.64927073  0.04722103  1
  O  O569  1  0.83660074  0.64827849  0.29836501  1
  O  O570  1  0.83827588  0.64834056  0.54635322  1
  O  O571  1  0.83779642  0.64853616  0.79733381  1
  O  O572  1  0.83680066  0.98092066  0.04743138  1
  O  O573  1  0.83721208  0.98138828  0.29765782  1
  O  O574  1  0.83788939  0.98240475  0.54669796  1
  O  O575  1  0.83711723  0.98199784  0.79772587  1
  O  O576  1  0.41147657  0.14814558  0.17233787  1
  O  O577  1  0.41285607  0.14858195  0.42315828  1
  O  O578  1  0.41144055  0.14879143  0.67180572  1
  O  O579  1  0.41163517  0.14812201  0.92313358  1
  O  O580  1  0.41045672  0.48240392  0.17238370  1
  O  O581  1  0.41243292  0.48149679  0.42182714  1
  O  O582  1  0.41106038  0.48118163  0.67124163  1
  O  O583  1  0.41133866  0.48238961  0.92257179  1
  O  O584  1  0.40965255  0.81451498  0.17251603  1
  O  O585  1  0.41133151  0.81522449  0.42159338  1
  O  O586  1  0.41099861  0.81544132  0.67362424  1
  O  O587  1  0.41208327  0.81473461  0.92335359  1
  O  O588  1  0.91258516  0.14776211  0.17246260  1
  O  O589  1  0.91422955  0.14875528  0.42350314  1
  O  O590  1  0.91261855  0.14802894  0.67297379  1
  O  O591  1  0.91382795  0.14918592  0.92200352  1
  O  O592  1  0.91381429  0.48204807  0.17243090  1
  O  O593  1  0.91182491  0.48231567  0.42225576  1
  O  O594  1  0.91067068  0.48111752  0.67269077  1
  O  O595  1  0.91319446  0.48060298  0.92311024  1
  O  O596  1  0.91491572  0.81532040  0.17248717  1
  O  O597  1  0.91351523  0.81437263  0.42356328  1
  O  O598  1  0.91150552  0.81557277  0.67334282  1
  O  O599  1  0.91354663  0.81534723  0.92318080  1
  O  O600  1  0.08908875  0.18616898  0.07790960  1
  O  O601  1  0.08814515  0.18404983  0.32775675  1
  O  O602  1  0.08805676  0.18416296  0.57813398  1
  O  O603  1  0.08699119  0.18504652  0.82669659  1
  O  O604  1  0.08877484  0.51799308  0.07760346  1
  O  O605  1  0.08612764  0.51892875  0.32745825  1
  O  O606  1  0.08702771  0.51847145  0.57672945  1
  O  O607  1  0.08794500  0.51821999  0.82760996  1
  O  O608  1  0.08909442  0.85065059  0.07699001  1
  O  O609  1  0.08898918  0.85138396  0.32926697  1
  O  O610  1  0.08998354  0.85268800  0.57738573  1
  O  O611  1  0.08957057  0.85122620  0.82756873  1
  O  O612  1  0.58762557  0.18518177  0.07739128  1
  O  O613  1  0.58680092  0.18448402  0.32791998  1
  O  O614  1  0.58678368  0.18502635  0.57660288  1
  O  O615  1  0.58691809  0.18503684  0.82742720  1
  O  O616  1  0.58530478  0.51855930  0.07722538  1
  O  O617  1  0.58587894  0.51744582  0.32692062  1
  O  O618  1  0.58530692  0.51853121  0.57727120  1
  O  O619  1  0.58551468  0.51905404  0.82746590  1
  O  O620  1  0.58774878  0.85135414  0.07647153  1
  O  O621  1  0.58484002  0.85237167  0.32750536  1
  O  O622  1  0.58582578  0.85144095  0.57789066  1
  O  O623  1  0.58847784  0.85031316  0.82793974  1
  O  O624  1  0.33682022  0.18413444  0.04660847  1
  O  O625  1  0.33737478  0.18601708  0.29911492  1
  O  O626  1  0.33949691  0.18458164  0.54750379  1
  O  O627  1  0.33558306  0.18472036  0.79709472  1
  O  O628  1  0.33922988  0.51846314  0.04675611  1
  O  O629  1  0.33967621  0.51824854  0.29661513  1
  O  O630  1  0.33890806  0.51709959  0.54715445  1
  O  O631  1  0.33976962  0.51961686  0.79775940  1
  O  O632  1  0.33577716  0.85228994  0.04692905  1
  O  O633  1  0.33755666  0.85055174  0.29791761  1
  O  O634  1  0.33796410  0.85287095  0.54808541  1
  O  O635  1  0.33601662  0.85108013  0.79742971  1
  O  O636  1  0.83963553  0.18454527  0.04661824  1
  O  O637  1  0.83514166  0.18529519  0.29809989  1
  O  O638  1  0.83586250  0.18464345  0.54678997  1
  O  O639  1  0.83965304  0.18461090  0.79756753  1
  O  O640  1  0.83819038  0.51875640  0.04755433  1
  O  O641  1  0.83659456  0.51835961  0.29842719  1
  O  O642  1  0.83804907  0.51783877  0.54579659  1
  O  O643  1  0.83796016  0.51827504  0.79712626  1
  O  O644  1  0.83627032  0.85056234  0.04743878  1
  O  O645  1  0.83753883  0.85127756  0.29748182  1
  O  O646  1  0.83794514  0.85202956  0.54696370  1
  O  O647  1  0.83719241  0.85190562  0.79779385  1
  O  O648  1  0.16258462  0.14995189  0.20418578  1
  O  O649  1  0.16261829  0.14740731  0.45253669  1
  O  O650  1  0.16034949  0.14872416  0.70197664  1
  O  O651  1  0.16218770  0.14715105  0.95124155  1
  O  O652  1  0.16382993  0.48088025  0.20155046  1
  O  O653  1  0.16597467  0.48210837  0.45165320  1
  O  O654  1  0.16160408  0.48105740  0.70244338  1
  O  O655  1  0.16319144  0.48192373  0.95162251  1
  O  O656  1  0.16273096  0.81427456  0.20248785  1
  O  O657  1  0.16225787  0.81576836  0.45252459  1
  O  O658  1  0.16353529  0.81554476  0.70294893  1
  O  O659  1  0.16276971  0.81555456  0.95244773  1
  O  O660  1  0.66128249  0.14948861  0.20338051  1
  O  O661  1  0.66270537  0.14894259  0.45232135  1
  O  O662  1  0.66427868  0.14746105  0.70255603  1
  O  O663  1  0.66524670  0.14769143  0.95195827  1
  O  O664  1  0.66095122  0.48246887  0.20346490  1
  O  O665  1  0.66183353  0.48069360  0.45173849  1
  O  O666  1  0.66465481  0.48169724  0.70220045  1
  O  O667  1  0.66496644  0.48199227  0.95228646  1
  O  O668  1  0.66154174  0.81357920  0.20275962  1
  O  O669  1  0.66407358  0.81541845  0.45250490  1
  O  O670  1  0.66326622  0.81588412  0.70330567  1
  O  O671  1  0.66306369  0.81541841  0.95210888  1
