# generated using pymatgen
data_Na2MnFe(PO4)2
_symmetry_space_group_name_H-M   'P 1'
_cell_length_a   21.08026927
_cell_length_b   18.93214225
_cell_length_c   20.03959256
_cell_angle_alpha   90.00002830
_cell_angle_beta   89.99957869
_cell_angle_gamma   89.99842212
_symmetry_Int_Tables_number   1
_chemical_formula_structural   Na2MnFe(PO4)2
_chemical_formula_sum   'Na96 Mn48 Fe48 P96 O384'
_cell_volume   7997.69430647
_cell_formula_units_Z   48
loop_
 _symmetry_equiv_pos_site_id
 _symmetry_equiv_pos_as_xyz
  1  'x, y, z'
loop_
 _atom_site_type_symbol
 _atom_site_label
 _atom_site_symmetry_multiplicity
 _atom_site_fract_x
 _atom_site_fract_y
 _atom_site_fract_z
 _atom_site_occupancy
  Na  Na0  1  -0.00365856  -0.00104741  0.00165805  1
  Na  Na1  1  -0.00024098  0.00011522  0.25018101  1
  Na  Na2  1  0.00185895  0.00040092  0.49840021  1
  Na  Na3  1  -0.00114643  -0.00057145  0.74977552  1
  Na  Na4  1  0.00034087  0.33417143  -0.00040239  1
  Na  Na5  1  -0.00170142  0.33327686  0.25064527  1
  Na  Na6  1  -0.00181685  0.33294114  0.50044727  1
  Na  Na7  1  -0.00182048  0.33270278  0.74902988  1
  Na  Na8  1  -0.00258051  0.66648418  -0.00021067  1
  Na  Na9  1  -0.00267365  0.66564738  0.25111171  1
  Na  Na10  1  0.00211876  0.66769687  0.49930241  1
  Na  Na11  1  0.00081873  0.66781656  0.74995687  1
  Na  Na12  1  0.50199910  0.00008071  -0.00061195  1
  Na  Na13  1  0.50176504  0.00027188  0.25093272  1
  Na  Na14  1  0.49981930  -0.00091217  0.50105436  1
  Na  Na15  1  0.50236896  0.00087098  0.74944409  1
  Na  Na16  1  0.49869881  0.33302557  -0.00043336  1
  Na  Na17  1  0.49867727  0.33286415  0.25046585  1
  Na  Na18  1  0.50025035  0.33407606  0.49994102  1
  Na  Na19  1  0.49885282  0.33345310  0.75038421  1
  Na  Na20  1  0.49915413  0.66626455  -0.00058703  1
  Na  Na21  1  0.50118401  0.66762364  0.25008235  1
  Na  Na22  1  0.49864517  0.66670407  0.50023885  1
  Na  Na23  1  0.49641982  0.66584779  0.74941943  1
  Na  Na24  1  0.25056139  -0.00048776  0.12535442  1
  Na  Na25  1  0.25058050  -0.00051246  0.37538638  1
  Na  Na26  1  0.25060133  -0.00005701  0.62414483  1
  Na  Na27  1  0.25129080  0.00049102  0.87459985  1
  Na  Na28  1  0.25107034  0.33403058  0.12559281  1
  Na  Na29  1  0.25028777  0.33364740  0.37387549  1
  Na  Na30  1  0.25237354  0.33441333  0.62553662  1
  Na  Na31  1  0.25058345  0.33339758  0.87595113  1
  Na  Na32  1  0.24940073  0.66640675  0.12405119  1
  Na  Na33  1  0.25057226  0.66714431  0.37565533  1
  Na  Na34  1  0.25090622  0.66722517  0.62515758  1
  Na  Na35  1  0.25082619  0.66744830  0.87449981  1
  Na  Na36  1  0.75095353  0.00092042  0.12489172  1
  Na  Na37  1  0.74767115  -0.00037997  0.37558641  1
  Na  Na38  1  0.74789341  -0.00090961  0.62560927  1
  Na  Na39  1  0.74953410  -0.00035684  0.87489120  1
  Na  Na40  1  0.75114812  0.33364382  0.12599434  1
  Na  Na41  1  0.75058667  0.33315677  0.37433621  1
  Na  Na42  1  0.75145090  0.33363054  0.62427366  1
  Na  Na43  1  0.74930987  0.33250300  0.87419562  1
  Na  Na44  1  0.75228054  0.66742861  0.12644914  1
  Na  Na45  1  0.74908841  0.66681105  0.37423953  1
  Na  Na46  1  0.75022081  0.66686458  0.62438928  1
  Na  Na47  1  0.75338382  0.66753284  0.87513049  1
  Na  Na48  1  -0.00287012  0.16724016  0.00056362  1
  Na  Na49  1  -0.00407588  0.16765604  0.24988317  1
  Na  Na50  1  -0.00128870  0.16671969  0.49909374  1
  Na  Na51  1  0.00004817  0.16569368  0.75034597  1
  Na  Na52  1  -0.00005732  0.49935616  -0.00031004  1
  Na  Na53  1  -0.00019544  0.49967544  0.25169321  1
  Na  Na54  1  0.00114051  0.49924905  0.50017429  1
  Na  Na55  1  -0.00005985  0.49964631  0.74855017  1
  Na  Na56  1  -0.00320025  0.83438836  0.00077076  1
  Na  Na57  1  -0.00039369  0.83378095  0.25039711  1
  Na  Na58  1  0.00187696  0.83325062  0.49873967  1
  Na  Na59  1  -0.00185741  0.83434364  0.74995410  1
  Na  Na60  1  0.50276165  0.16573661  -0.00097685  1
  Na  Na61  1  0.50142095  0.16685832  0.25116264  1
  Na  Na62  1  0.50238838  0.16531386  0.50019650  1
  Na  Na63  1  0.50095432  0.16647074  0.74993293  1
  Na  Na64  1  0.49821061  0.49964778  0.00001269  1
  Na  Na65  1  0.49885358  0.49953754  0.24937734  1
  Na  Na66  1  0.49815277  0.49967881  0.49996153  1
  Na  Na67  1  0.49643650  0.50037667  0.74986738  1
  Na  Na68  1  0.49974730  0.83412103  -0.00035303  1
  Na  Na69  1  0.49987739  0.83457286  0.25066806  1
  Na  Na70  1  0.49962148  0.83387129  0.50125120  1
  Na  Na71  1  0.49948772  0.83347733  0.74930446  1
  Na  Na72  1  0.25075692  0.16618152  0.12526625  1
  Na  Na73  1  0.25145689  0.16579880  0.37476209  1
  Na  Na74  1  0.25080649  0.16594480  0.62458592  1
  Na  Na75  1  0.24984830  0.16627109  0.87525168  1
  Na  Na76  1  0.25003162  0.49867443  0.12442579  1
  Na  Na77  1  0.24895669  0.49967052  0.37453152  1
  Na  Na78  1  0.25096092  0.49947153  0.62580090  1
  Na  Na79  1  0.25117702  0.49915972  0.87519930  1
  Na  Na80  1  0.25132129  0.83392791  0.12514312  1
  Na  Na81  1  0.25116492  0.83396547  0.37561629  1
  Na  Na82  1  0.25220001  0.83330350  0.62457252  1
  Na  Na83  1  0.25082230  0.83432745  0.87484712  1
  Na  Na84  1  0.75040141  0.16615192  0.12636845  1
  Na  Na85  1  0.74913151  0.16661789  0.37516417  1
  Na  Na86  1  0.74824092  0.16700530  0.62464094  1
  Na  Na87  1  0.75007306  0.16636604  0.87433896  1
  Na  Na88  1  0.75188433  0.49892718  0.12573665  1
  Na  Na89  1  0.74992634  0.49984101  0.37422503  1
  Na  Na90  1  0.75182498  0.49882476  0.62447211  1
  Na  Na91  1  0.75094280  0.49967051  0.87520960  1
  Na  Na92  1  0.75245983  0.83277255  0.12527246  1
  Na  Na93  1  0.74798298  0.83449748  0.37484943  1
  Na  Na94  1  0.75014526  0.83360852  0.62500093  1
  Na  Na95  1  0.75237374  0.83308015  0.87448279  1
  Mn  Mn96  1  0.89215265  0.91705468  0.37754362  1
  Mn  Mn97  1  0.14217131  0.25017051  0.49779089  1
  Mn  Mn98  1  0.89219004  0.58346245  0.87685931  1
  Mn  Mn99  1  0.64265110  0.58360544  0.24757093  1
  Mn  Mn100  1  0.35815373  0.75020113  0.00251158  1
  Mn  Mn101  1  0.39175315  0.58337832  0.12770951  1
  Mn  Mn102  1  0.64121634  0.58291438  0.49774583  1
  Mn  Mn103  1  0.14307655  0.58374732  0.74783341  1
  Mn  Mn104  1  0.39329640  0.91677471  0.87665285  1
  Mn  Mn105  1  0.14171567  0.24937383  0.99872893  1
  Mn  Mn106  1  0.14174376  0.24923367  0.24746538  1
  Mn  Mn107  1  0.10636897  0.74973745  0.12300210  1
  Mn  Mn108  1  0.85743659  0.75007306  0.50231538  1
  Mn  Mn109  1  0.89283492  0.58410091  0.62683734  1
  Mn  Mn110  1  0.35929432  0.08382692  0.00273359  1
  Mn  Mn111  1  0.10889557  0.74980120  0.37230849  1
  Mn  Mn112  1  0.64288482  0.58302123  0.99760245  1
  Mn  Mn113  1  0.60712204  0.74958626  0.62320790  1
  Mn  Mn114  1  0.64345051  0.91654786  0.99793463  1
  Mn  Mn115  1  0.14148927  0.58349891  0.99774005  1
  Mn  Mn116  1  0.85761646  0.08309735  0.75144894  1
  Mn  Mn117  1  0.60861259  0.74929926  0.87255269  1
  Mn  Mn118  1  0.85836428  0.41620961  0.00264313  1
  Mn  Mn119  1  0.14193006  0.91693999  0.74771889  1
  Mn  Mn120  1  0.10768482  0.41621057  0.62244170  1
  Mn  Mn121  1  0.14227414  0.24934981  0.74759667  1
  Mn  Mn122  1  0.39283946  0.24934965  0.37789081  1
  Mn  Mn123  1  0.10619217  0.08387011  0.12295985  1
  Mn  Mn124  1  0.89239717  0.58284794  0.37827477  1
  Mn  Mn125  1  0.60840713  0.75015498  0.12210967  1
  Mn  Mn126  1  0.10805363  0.08435014  0.37253042  1
  Mn  Mn127  1  0.60734187  0.41687146  0.62283874  1
  Mn  Mn128  1  0.64268410  0.24990668  0.24766711  1
  Mn  Mn129  1  0.64185631  0.58356442  0.74774700  1
  Mn  Mn130  1  0.64237023  0.25050827  0.74715113  1
  Mn  Mn131  1  0.39244737  0.24973152  0.87766857  1
  Mn  Mn132  1  0.60723454  0.41721050  0.87289775  1
  Mn  Mn133  1  0.35893922  0.08346409  0.25200549  1
  Mn  Mn134  1  0.85676116  0.08296848  0.50272686  1
  Mn  Mn135  1  0.14159508  0.91694883  0.99838121  1
  Mn  Mn136  1  0.35840155  0.74965828  0.25225505  1
  Mn  Mn137  1  0.39247234  0.24966145  0.62695101  1
  Mn  Mn138  1  0.10708212  0.08321516  0.87350135  1
  Mn  Mn139  1  0.10691559  0.75036920  0.87292944  1
  Mn  Mn140  1  0.39207285  0.58398291  0.37734154  1
  Mn  Mn141  1  0.60749963  0.41620725  0.12287729  1
  Mn  Mn142  1  0.89176655  0.24960380  0.87762347  1
  Mn  Mn143  1  0.14176232  0.58394594  0.24708940  1
  Fe  Fe144  1  0.35810274  0.08336617  0.50225666  1
  Fe  Fe145  1  0.35654501  0.41625840  0.00230056  1
  Fe  Fe146  1  0.60703972  0.08338621  0.62313626  1
  Fe  Fe147  1  0.39201095  0.58362434  0.87707352  1
  Fe  Fe148  1  0.60726889  0.41705226  0.37326656  1
  Fe  Fe149  1  0.10827547  0.75118363  0.62349311  1
  Fe  Fe150  1  0.64258525  0.91648544  0.24825907  1
  Fe  Fe151  1  0.14398967  0.91658488  0.49868037  1
  Fe  Fe152  1  0.39349361  0.91698824  0.37688735  1
  Fe  Fe153  1  0.10753123  0.41645043  0.87309284  1
  Fe  Fe154  1  0.14351448  0.91673292  0.24824054  1
  Fe  Fe155  1  0.35783174  0.08334776  0.75156371  1
  Fe  Fe156  1  0.85766632  0.41725906  0.75152487  1
  Fe  Fe157  1  0.60683749  0.74996996  0.37394165  1
  Fe  Fe158  1  0.89153898  0.91717541  0.87654274  1
  Fe  Fe159  1  0.85803905  0.41665797  0.25263191  1
  Fe  Fe160  1  0.10642946  0.41652717  0.12389061  1
  Fe  Fe161  1  0.89240168  0.58290225  0.12710506  1
  Fe  Fe162  1  0.64282236  0.25037822  0.99908406  1
  Fe  Fe163  1  0.89224634  0.24887141  0.62614274  1
  Fe  Fe164  1  0.89184414  0.91682360  0.12848365  1
  Fe  Fe165  1  0.89211103  0.24999917  0.37721600  1
  Fe  Fe166  1  0.64300446  0.25049908  0.49826039  1
  Fe  Fe167  1  0.89291959  0.91689657  0.62554687  1
  Fe  Fe168  1  0.85797340  0.75009294  0.00260666  1
  Fe  Fe169  1  0.35762903  0.74998022  0.50191119  1
  Fe  Fe170  1  0.10722677  0.41592637  0.37370539  1
  Fe  Fe171  1  0.60709771  0.08303392  0.37364086  1
  Fe  Fe172  1  0.35663466  0.41669597  0.25183998  1
  Fe  Fe173  1  0.64358920  0.91564979  0.74838431  1
  Fe  Fe174  1  0.85700376  0.41675606  0.50106917  1
  Fe  Fe175  1  0.35733926  0.41668449  0.50096746  1
  Fe  Fe176  1  0.10781602  0.08278558  0.62334402  1
  Fe  Fe177  1  0.85613870  0.08294981  0.25229286  1
  Fe  Fe178  1  0.39354385  0.91760385  0.12692435  1
  Fe  Fe179  1  0.64174631  0.91653789  0.49849604  1
  Fe  Fe180  1  0.35716838  0.75048047  0.75199540  1
  Fe  Fe181  1  0.89153733  0.25055790  0.12689706  1
  Fe  Fe182  1  0.39119922  0.58350469  0.62663306  1
  Fe  Fe183  1  0.85676793  0.75052583  0.25256085  1
  Fe  Fe184  1  0.85829942  0.74967522  0.75055389  1
  Fe  Fe185  1  0.60799109  0.08364995  0.12330871  1
  Fe  Fe186  1  0.14367354  0.58348307  0.49914788  1
  Fe  Fe187  1  0.60844439  0.08319943  0.87282472  1
  Fe  Fe188  1  0.85633533  0.08344323  0.00207268  1
  Fe  Fe189  1  0.35714310  0.41616306  0.75252873  1
  Fe  Fe190  1  0.39331765  0.24893254  0.12643993  1
  Fe  Fe191  1  0.39308667  0.91698000  0.62718616  1
  P  P192  1  0.05089039  0.25078976  0.11049887  1
  P  P193  1  0.05194656  0.25076656  0.36010299  1
  P  P194  1  0.05189983  0.24876920  0.60988127  1
  P  P195  1  0.05308162  0.25048543  0.85997400  1
  P  P196  1  0.05128111  0.58264645  0.11034448  1
  P  P197  1  0.05537602  0.58227339  0.36178625  1
  P  P198  1  0.05466328  0.58452275  0.60939751  1
  P  P199  1  0.05332506  0.58269435  0.85952608  1
  P  P200  1  0.05226315  0.91668934  0.11173932  1
  P  P201  1  0.05587661  0.91689117  0.36025131  1
  P  P202  1  0.05321565  0.91679013  0.60909877  1
  P  P203  1  0.05121987  0.91691655  0.86027624  1
  P  P204  1  0.55312379  0.24942599  0.10963290  1
  P  P205  1  0.55524795  0.25033380  0.36166080  1
  P  P206  1  0.55409304  0.24973250  0.60930300  1
  P  P207  1  0.55503839  0.24979132  0.86100948  1
  P  P208  1  0.55314771  0.58300536  0.10955119  1
  P  P209  1  0.55323763  0.58331318  0.35996668  1
  P  P210  1  0.55086169  0.58325547  0.61011009  1
  P  P211  1  0.55155734  0.58317801  0.85954706  1
  P  P212  1  0.55407420  0.91760797  0.11117162  1
  P  P213  1  0.55440337  0.91649065  0.36136774  1
  P  P214  1  0.55429511  0.91690516  0.61127996  1
  P  P215  1  0.55531471  0.91677286  0.85908647  1
  P  P216  1  0.44908597  0.08361894  0.14015708  1
  P  P217  1  0.44768787  0.08238439  0.39088060  1
  P  P218  1  0.44629603  0.08273131  0.63940370  1
  P  P219  1  0.44785197  0.08302374  0.88871399  1
  P  P220  1  0.44451101  0.41508348  0.13949827  1
  P  P221  1  0.44614056  0.41672759  0.38926318  1
  P  P222  1  0.44415719  0.41712038  0.63935455  1
  P  P223  1  0.44415143  0.41730312  0.88973990  1
  P  P224  1  0.44735578  0.75116348  0.14023172  1
  P  P225  1  0.44720689  0.75127266  0.39074912  1
  P  P226  1  0.44402025  0.75021501  0.63916000  1
  P  P227  1  0.44587547  0.74973835  0.88878995  1
  P  P228  1  0.94337977  0.08354286  0.13985062  1
  P  P229  1  0.94489504  0.08383116  0.38884595  1
  P  P230  1  0.94777220  0.08251932  0.63907570  1
  P  P231  1  0.94519605  0.08234953  0.89095381  1
  P  P232  1  0.94675810  0.41683131  0.14089660  1
  P  P233  1  0.94589776  0.41575652  0.39010582  1
  P  P234  1  0.94455164  0.41592302  0.63874548  1
  P  P235  1  0.94678830  0.41673400  0.88865153  1
  P  P236  1  0.94407118  0.74989487  0.14032302  1
  P  P237  1  0.94584987  0.75042904  0.38930635  1
  P  P238  1  0.94804122  0.75133483  0.63950276  1
  P  P239  1  0.94424272  0.75110247  0.88936243  1
  P  P240  1  0.19692459  0.08234928  0.23482617  1
  P  P241  1  0.19702422  0.08264348  0.48611402  1
  P  P242  1  0.19743935  0.08302676  0.73423893  1
  P  P243  1  0.19707992  0.08311115  0.98523111  1
  P  P244  1  0.19544024  0.41625859  0.23531006  1
  P  P245  1  0.19741449  0.41710650  0.48475634  1
  P  P246  1  0.19682205  0.41636520  0.73631430  1
  P  P247  1  0.19519155  0.41620711  0.98587287  1
  P  P248  1  0.19714626  0.75122595  0.23457194  1
  P  P249  1  0.19711418  0.75053681  0.48666100  1
  P  P250  1  0.19747976  0.75072641  0.73450315  1
  P  P251  1  0.19644665  0.75057643  0.98482508  1
  P  P252  1  0.69538456  0.08242394  0.23610747  1
  P  P253  1  0.69411599  0.08333414  0.48606245  1
  P  P254  1  0.69477130  0.08240807  0.73529618  1
  P  P255  1  0.69603730  0.08439655  0.98584012  1
  P  P256  1  0.69703782  0.41657519  0.23624592  1
  P  P257  1  0.69702921  0.41583961  0.48429105  1
  P  P258  1  0.69792654  0.41701965  0.73460701  1
  P  P259  1  0.69708420  0.41560286  0.98513860  1
  P  P260  1  0.69622928  0.75107343  0.23639548  1
  P  P261  1  0.69546512  0.75070859  0.48447918  1
  P  P262  1  0.69836843  0.75031415  0.73490315  1
  P  P263  1  0.69899438  0.75003843  0.98500465  1
  P  P264  1  0.30390263  0.25043921  0.01609338  1
  P  P265  1  0.30484059  0.25030297  0.26387566  1
  P  P266  1  0.30346759  0.24999429  0.51470695  1
  P  P267  1  0.30378357  0.24911542  0.76512085  1
  P  P268  1  0.30395262  0.58255621  0.01392329  1
  P  P269  1  0.30289549  0.58247696  0.26504479  1
  P  P270  1  0.30297462  0.58310191  0.51518632  1
  P  P271  1  0.30532765  0.58364595  0.76447140  1
  P  P272  1  0.30456682  0.91724143  0.01585822  1
  P  P273  1  0.30510458  0.91695932  0.26498687  1
  P  P274  1  0.30540695  0.91693592  0.51413357  1
  P  P275  1  0.30489391  0.91730735  0.76340900  1
  P  P276  1  0.80235350  0.24907792  0.01574199  1
  P  P277  1  0.80546039  0.24977515  0.26468491  1
  P  P278  1  0.80370830  0.25040584  0.51401664  1
  P  P279  1  0.80486378  0.25026513  0.76332202  1
  P  P280  1  0.80432108  0.58368323  0.01611103  1
  P  P281  1  0.80528733  0.58328906  0.26418233  1
  P  P282  1  0.80278410  0.58267875  0.51471983  1
  P  P283  1  0.80364817  0.58334043  0.76441764  1
  P  P284  1  0.80533503  0.91711715  0.01458846  1
  P  P285  1  0.80302206  0.91708535  0.26448567  1
  P  P286  1  0.80188472  0.91685619  0.51552666  1
  P  P287  1  0.80452311  0.91617062  0.76367518  1
  O  O288  1  0.05481753  0.24984821  0.18717086  1
  O  O289  1  0.05607686  0.24999479  0.43680236  1
  O  O290  1  0.05583133  0.24931415  0.68657513  1
  O  O291  1  0.05599206  0.25014045  0.93677257  1
  O  O292  1  0.05493847  0.58347948  0.18710523  1
  O  O293  1  0.06031341  0.58325694  0.43848849  1
  O  O294  1  0.05750562  0.58384714  0.68621953  1
  O  O295  1  0.05576953  0.58320253  0.93637981  1
  O  O296  1  0.05812300  0.91673488  0.18830444  1
  O  O297  1  0.06083284  0.91671796  0.43699216  1
  O  O298  1  0.05613300  0.91676287  0.68595101  1
  O  O299  1  0.05494046  0.91678677  0.93695948  1
  O  O300  1  0.55676018  0.25038344  0.18642638  1
  O  O301  1  0.55896952  0.25077520  0.43838752  1
  O  O302  1  0.55665720  0.25073513  0.68615636  1
  O  O303  1  0.55913568  0.25041842  0.93774375  1
  O  O304  1  0.55690883  0.58306420  0.18635665  1
  O  O305  1  0.55551644  0.58295643  0.43679778  1
  O  O306  1  0.55503956  0.58317315  0.68677591  1
  O  O307  1  0.55622747  0.58315000  0.93622765  1
  O  O308  1  0.55863578  0.91677753  0.18790127  1
  O  O309  1  0.55821143  0.91639368  0.43814607  1
  O  O310  1  0.55928648  0.91591616  0.68788195  1
  O  O311  1  0.55827231  0.91602493  0.93595252  1
  O  O312  1  0.44594213  0.08334258  0.06342178  1
  O  O313  1  0.44419490  0.08326542  0.31418245  1
  O  O314  1  0.44163068  0.08327502  0.56267768  1
  O  O315  1  0.44264983  0.08336612  0.81208769  1
  O  O316  1  0.44060509  0.41609926  0.06270584  1
  O  O317  1  0.44107701  0.41666472  0.31262247  1
  O  O318  1  0.44018409  0.41642953  0.56251393  1
  O  O319  1  0.44019968  0.41612528  0.81286478  1
  O  O320  1  0.44423143  0.75052782  0.06343117  1
  O  O321  1  0.44397718  0.75061090  0.31401840  1
  O  O322  1  0.44040777  0.75013311  0.56229173  1
  O  O323  1  0.44154792  0.75048393  0.81202773  1
  O  O324  1  0.93975751  0.08351239  0.06305773  1
  O  O325  1  0.94036500  0.08265543  0.31213177  1
  O  O326  1  0.94400752  0.08268670  0.56240925  1
  O  O327  1  0.94271304  0.08300872  0.81406820  1
  O  O328  1  0.94375332  0.41663056  0.06408964  1
  O  O329  1  0.94141199  0.41671714  0.31337669  1
  O  O330  1  0.94046542  0.41680556  0.56196848  1
  O  O331  1  0.94186798  0.41677431  0.81198001  1
  O  O332  1  0.94086711  0.75016132  0.06340383  1
  O  O333  1  0.94073602  0.75071704  0.31258152  1
  O  O334  1  0.94431574  0.75039468  0.56280014  1
  O  O335  1  0.94073024  0.75019963  0.81249857  1
  O  O336  1  0.19278122  0.08305375  0.06196904  1
  O  O337  1  0.19391165  0.08340577  0.31163962  1
  O  O338  1  0.19170155  0.08337884  0.56275519  1
  O  O339  1  0.19302437  0.08292069  0.81090888  1
  O  O340  1  0.18985417  0.41634598  0.06259860  1
  O  O341  1  0.19063078  0.41593356  0.31200504  1
  O  O342  1  0.19386115  0.41613626  0.56154699  1
  O  O343  1  0.19175126  0.41615106  0.81297241  1
  O  O344  1  0.19257953  0.75048452  0.06161077  1
  O  O345  1  0.19468465  0.75053129  0.31141953  1
  O  O346  1  0.19252558  0.75088721  0.56333865  1
  O  O347  1  0.19311550  0.75105217  0.81117781  1
  O  O348  1  0.69177425  0.08370729  0.06264529  1
  O  O349  1  0.69061909  0.08305879  0.31282179  1
  O  O350  1  0.69052982  0.08315784  0.56290457  1
  O  O351  1  0.69157448  0.08331398  0.81216737  1
  O  O352  1  0.69391935  0.41625601  0.06193789  1
  O  O353  1  0.69150924  0.41665802  0.31284986  1
  O  O354  1  0.69331216  0.41652639  0.56101547  1
  O  O355  1  0.69359582  0.41696219  0.81127792  1
  O  O356  1  0.69494117  0.75007126  0.06174573  1
  O  O357  1  0.69087405  0.75048428  0.31299971  1
  O  O358  1  0.69262121  0.74999572  0.56129783  1
  O  O359  1  0.69492300  0.74971979  0.81160701  1
  O  O360  1  0.30920299  0.24915224  0.18720363  1
  O  O361  1  0.30629595  0.24974379  0.43789210  1
  O  O362  1  0.30670302  0.24918008  0.68835679  1
  O  O363  1  0.30689791  0.24927636  0.93928603  1
  O  O364  1  0.30586958  0.58302106  0.18823946  1
  O  O365  1  0.30613203  0.58319688  0.43843376  1
  O  O366  1  0.30835132  0.58347557  0.68758607  1
  O  O367  1  0.30784551  0.58348452  0.93714392  1
  O  O368  1  0.31025987  0.91737859  0.18829059  1
  O  O369  1  0.30977221  0.91708774  0.43739888  1
  O  O370  1  0.30871676  0.91746945  0.68664691  1
  O  O371  1  0.30818772  0.91752521  0.93905726  1
  O  O372  1  0.80910470  0.25030092  0.18784292  1
  O  O373  1  0.80803749  0.24948110  0.43726821  1
  O  O374  1  0.80893012  0.24906987  0.68652480  1
  O  O375  1  0.80566612  0.24978556  0.93894644  1
  O  O376  1  0.80911059  0.58273540  0.18742302  1
  O  O377  1  0.80582116  0.58347278  0.43793513  1
  O  O378  1  0.80650187  0.58344070  0.68763922  1
  O  O379  1  0.80711139  0.58273949  0.93928049  1
  O  O380  1  0.80745978  0.91706920  0.18775260  1
  O  O381  1  0.80604279  0.91722729  0.43884201  1
  O  O382  1  0.80911069  0.91708465  0.68698236  1
  O  O383  1  0.80819684  0.91722437  0.93771839  1
  O  O384  1  0.23420352  0.24999881  0.04127801  1
  O  O385  1  0.23480213  0.24970395  0.28816159  1
  O  O386  1  0.23393403  0.25032729  0.54041834  1
  O  O387  1  0.23423417  0.24938353  0.79072265  1
  O  O388  1  0.23404256  0.58247360  0.03857605  1
  O  O389  1  0.23332719  0.58325195  0.29034470  1
  O  O390  1  0.23299810  0.58327364  0.54030828  1
  O  O391  1  0.23543316  0.58354432  0.78935041  1
  O  O392  1  0.23465564  0.91695681  0.04035127  1
  O  O393  1  0.23472750  0.91691905  0.28844270  1
  O  O394  1  0.23495627  0.91681380  0.53794327  1
  O  O395  1  0.23500733  0.91735186  0.78825227  1
  O  O396  1  0.73250605  0.24984662  0.04095189  1
  O  O397  1  0.73533938  0.24958372  0.28870914  1
  O  O398  1  0.73335665  0.24998187  0.53784382  1
  O  O399  1  0.73489261  0.24969750  0.78761229  1
  O  O400  1  0.73474054  0.58315054  0.04168057  1
  O  O401  1  0.73527840  0.58349862  0.28852694  1
  O  O402  1  0.73313340  0.58272872  0.54000711  1
  O  O403  1  0.73422253  0.58367290  0.79046406  1
  O  O404  1  0.73547238  0.91691569  0.03963139  1
  O  O405  1  0.73275277  0.91712744  0.28849212  1
  O  O406  1  0.73161680  0.91652565  0.53935609  1
  O  O407  1  0.73423121  0.91647823  0.78769369  1
  O  O408  1  0.26665610  0.08280323  0.20987494  1
  O  O409  1  0.26751268  0.08259919  0.46264496  1
  O  O410  1  0.26768064  0.08298469  0.71027306  1
  O  O411  1  0.26699719  0.08335374  0.96086092  1
  O  O412  1  0.26587477  0.41634147  0.21189700  1
  O  O413  1  0.26757249  0.41663099  0.46023559  1
  O  O414  1  0.26733183  0.41677706  0.71312320  1
  O  O415  1  0.26576728  0.41621310  0.96285994  1
  O  O416  1  0.26664660  0.75026986  0.20896667  1
  O  O417  1  0.26754827  0.75052205  0.46273701  1
  O  O418  1  0.26774320  0.75030635  0.71071956  1
  O  O419  1  0.26624925  0.75081748  0.96016348  1
  O  O420  1  0.76583885  0.08335658  0.21279647  1
  O  O421  1  0.76411311  0.08332643  0.46155800  1
  O  O422  1  0.76472689  0.08309280  0.71062686  1
  O  O423  1  0.76631096  0.08325889  0.96178121  1
  O  O424  1  0.76761042  0.41620728  0.21331792  1
  O  O425  1  0.76718992  0.41645092  0.45986971  1
  O  O426  1  0.76802137  0.41665630  0.71035420  1
  O  O427  1  0.76679466  0.41578113  0.96000172  1
  O  O428  1  0.76671799  0.75048472  0.21315977  1
  O  O429  1  0.76515428  0.75050811  0.45923229  1
  O  O430  1  0.76835252  0.75015915  0.70994980  1
  O  O431  1  0.76913550  0.75041609  0.96093427  1
  O  O432  1  0.01339072  0.08361512  0.16442442  1
  O  O433  1  0.01502804  0.08377740  0.41265030  1
  O  O434  1  0.01770924  0.08243244  0.66412945  1
  O  O435  1  0.01468902  0.08307121  0.91668506  1
  O  O436  1  0.01674667  0.41657415  0.16597193  1
  O  O437  1  0.01622166  0.41599154  0.41392982  1
  O  O438  1  0.01477553  0.41639249  0.66266318  1
  O  O439  1  0.01700277  0.41670423  0.91261963  1
  O  O440  1  0.01396546  0.74997991  0.16518887  1
  O  O441  1  0.01613676  0.75038725  0.41246862  1
  O  O442  1  0.01812120  0.75121052  0.66417739  1
  O  O443  1  0.01410042  0.75039274  0.91419028  1
  O  O444  1  0.51890682  0.08391350  0.16554899  1
  O  O445  1  0.51788379  0.08225445  0.41507594  1
  O  O446  1  0.51680308  0.08352732  0.66273046  1
  O  O447  1  0.51828318  0.08262650  0.91216439  1
  O  O448  1  0.51458927  0.41603481  0.16380406  1
  O  O449  1  0.51659557  0.41675378  0.41271649  1
  O  O450  1  0.51421654  0.41644785  0.66369126  1
  O  O451  1  0.51422750  0.41662825  0.91382183  1
  O  O452  1  0.51699626  0.75092718  0.16548714  1
  O  O453  1  0.51717844  0.75043342  0.41558619  1
  O  O454  1  0.51405956  0.75007180  0.66360099  1
  O  O455  1  0.51582186  0.75009304  0.91329010  1
  O  O456  1  0.48317612  0.24928143  0.08483946  1
  O  O457  1  0.48531374  0.24991773  0.33707031  1
  O  O458  1  0.48443128  0.24961134  0.58406540  1
  O  O459  1  0.48504533  0.25006710  0.83662828  1
  O  O460  1  0.48328534  0.58296415  0.08511626  1
  O  O461  1  0.48371978  0.58356383  0.33413840  1
  O  O462  1  0.48075551  0.58351349  0.58576325  1
  O  O463  1  0.48137506  0.58316770  0.83565460  1
  O  O464  1  0.48389885  0.91746222  0.08693959  1
  O  O465  1  0.48406731  0.91723320  0.33728850  1
  O  O466  1  0.48374529  0.91656014  0.58803326  1
  O  O467  1  0.48558938  0.91701288  0.83408348  1
  O  O468  1  0.98077810  0.25075762  0.08596267  1
  O  O469  1  0.98181067  0.25043401  0.33595238  1
  O  O470  1  0.98177516  0.24929919  0.58538450  1
  O  O471  1  0.98340074  0.24966633  0.83476785  1
  O  O472  1  0.98132600  0.58279184  0.08553120  1
  O  O473  1  0.98516586  0.58262252  0.33827296  1
  O  O474  1  0.98490127  0.58384576  0.58423347  1
  O  O475  1  0.98385875  0.58329365  0.83374854  1
  O  O476  1  0.98157648  0.91664826  0.08916348  1
  O  O477  1  0.98548638  0.91694543  0.33714029  1
  O  O478  1  0.98327797  0.91678426  0.58382762  1
  O  O479  1  0.98122366  0.91698497  0.83560147  1
  O  O480  1  0.08475739  0.31592326  0.07817210  1
  O  O481  1  0.08562200  0.31598149  0.32764672  1
  O  O482  1  0.08578251  0.31389217  0.57709542  1
  O  O483  1  0.08686564  0.31566892  0.82741648  1
  O  O484  1  0.08512143  0.64763543  0.07735292  1
  O  O485  1  0.08863804  0.64717799  0.32793262  1
  O  O486  1  0.08861432  0.64986228  0.57735413  1
  O  O487  1  0.08785155  0.64780339  0.82749985  1
  O  O488  1  0.08499213  0.98180681  0.07785121  1
  O  O489  1  0.08918597  0.98193968  0.32689614  1
  O  O490  1  0.08757092  0.98179267  0.57668859  1
  O  O491  1  0.08514508  0.98193972  0.82750531  1
  O  O492  1  0.58703346  0.31434777  0.07651666  1
  O  O493  1  0.58862857  0.31533696  0.32821839  1
  O  O494  1  0.58836885  0.31466257  0.57660957  1
  O  O495  1  0.58853916  0.31479285  0.82758257  1
  O  O496  1  0.58700548  0.64813709  0.07693168  1
  O  O497  1  0.58755262  0.64873157  0.32829607  1
  O  O498  1  0.58483383  0.64825099  0.57748576  1
  O  O499  1  0.58519563  0.64827534  0.82652716  1
  O  O500  1  0.58753731  0.98289760  0.07846326  1
  O  O501  1  0.58837049  0.98137061  0.32826790  1
  O  O502  1  0.58730190  0.98212529  0.57795626  1
  O  O503  1  0.58984248  0.98174474  0.82711279  1
  O  O504  1  0.41519309  0.01858792  0.17293751  1
  O  O505  1  0.41366631  0.01744282  0.42343346  1
  O  O506  1  0.41340210  0.01750286  0.67273711  1
  O  O507  1  0.41458366  0.01807432  0.92216374  1
  O  O508  1  0.41154145  0.34946742  0.17212659  1
  O  O509  1  0.41275841  0.35184525  0.42292894  1
  O  O510  1  0.41026877  0.35222280  0.67265923  1
  O  O511  1  0.41014665  0.35257827  0.92311693  1
  O  O512  1  0.41315848  0.68604543  0.17274457  1
  O  O513  1  0.41247905  0.68652602  0.42338084  1
  O  O514  1  0.41010410  0.68522356  0.67186126  1
  O  O515  1  0.41220389  0.68453216  0.92152225  1
  O  O516  1  0.90964561  0.01846762  0.17305156  1
  O  O517  1  0.91155570  0.01897820  0.42260759  1
  O  O518  1  0.91377814  0.01729248  0.67150360  1
  O  O519  1  0.91095099  0.01712221  0.92278188  1
  O  O520  1  0.91232483  0.35191392  0.17335407  1
  O  O521  1  0.91223148  0.35060352  0.42279892  1
  O  O522  1  0.91119511  0.35063078  0.67144541  1
  O  O523  1  0.91338546  0.35172549  0.92210713  1
  O  O524  1  0.91034609  0.68466188  0.17281626  1
  O  O525  1  0.91267201  0.68534075  0.42262438  1
  O  O526  1  0.91401654  0.68643586  0.67268043  1
  O  O527  1  0.91006630  0.68631146  0.92250357  1
  O  O528  1  0.16300649  0.01700944  0.20281563  1
  O  O529  1  0.16376714  0.01751842  0.45304592  1
  O  O530  1  0.16356966  0.01808842  0.70108803  1
  O  O531  1  0.16336585  0.01806401  0.95226244  1
  O  O532  1  0.16207928  0.35130303  0.20171920  1
  O  O533  1  0.16322580  0.35231399  0.45157329  1
  O  O534  1  0.16397375  0.35131641  0.70243737  1
  O  O535  1  0.16212778  0.35102872  0.95244262  1
  O  O536  1  0.16226946  0.68641805  0.20231191  1
  O  O537  1  0.16393684  0.68532162  0.45350335  1
  O  O538  1  0.16353014  0.68583523  0.70160950  1
  O  O539  1  0.16272677  0.68529110  0.95231139  1
  O  O540  1  0.66251922  0.01723299  0.20268996  1
  O  O541  1  0.66040072  0.01816844  0.45321676  1
  O  O542  1  0.66125587  0.01700557  0.70295516  1
  O  O543  1  0.66207667  0.01963587  0.95244392  1
  O  O544  1  0.66384945  0.35153697  0.20272094  1
  O  O545  1  0.66352725  0.35056625  0.45163528  1
  O  O546  1  0.66411450  0.35205779  0.70161879  1
  O  O547  1  0.66307930  0.35035433  0.95306716  1
  O  O548  1  0.66305902  0.68618160  0.20255393  1
  O  O549  1  0.66099244  0.68580389  0.45189771  1
  O  O550  1  0.66413601  0.68547588  0.70206467  1
  O  O551  1  0.66546827  0.68489526  0.95207015  1
  O  O552  1  0.33787500  0.31576030  0.04798436  1
  O  O553  1  0.33807120  0.31578748  0.29655739  1
  O  O554  1  0.33787005  0.31507241  0.54665469  1
  O  O555  1  0.33806657  0.31417442  0.79738943  1
  O  O556  1  0.33757695  0.64756136  0.04718134  1
  O  O557  1  0.33743917  0.64740805  0.29746428  1
  O  O558  1  0.33716483  0.64811061  0.54771432  1
  O  O559  1  0.33903727  0.64898792  0.79699664  1
  O  O560  1  0.33866063  0.98221227  0.04878245  1
  O  O561  1  0.33862458  0.98185862  0.29859742  1
  O  O562  1  0.33883349  0.98192022  0.54763263  1
  O  O563  1  0.33874635  0.98239489  0.79629662  1
  O  O564  1  0.83707315  0.31379823  0.04846011  1
  O  O565  1  0.83911680  0.31478060  0.29785924  1
  O  O566  1  0.83713796  0.31561909  0.54666074  1
  O  O567  1  0.83814386  0.31564276  0.79600504  1
  O  O568  1  0.83842499  0.64899214  0.04800174  1
  O  O569  1  0.83887295  0.64852445  0.29690806  1
  O  O570  1  0.83695798  0.64774846  0.54725458  1
  O  O571  1  0.83825123  0.64845546  0.79627062  1
  O  O572  1  0.83890506  0.98233179  0.04742726  1
  O  O573  1  0.83621454  0.98226749  0.29774298  1
  O  O574  1  0.83547482  0.98179670  0.54882218  1
  O  O575  1  0.83786899  0.98114883  0.79745525  1
  O  O576  1  0.41491053  0.14871941  0.17255286  1
  O  O577  1  0.41394819  0.14736392  0.42405647  1
  O  O578  1  0.41266896  0.14752987  0.67297037  1
  O  O579  1  0.41490297  0.14803394  0.92256340  1
  O  O580  1  0.41011394  0.47963286  0.17294712  1
  O  O581  1  0.41265327  0.48169819  0.42267957  1
  O  O582  1  0.41064399  0.48239834  0.67192718  1
  O  O583  1  0.41071955  0.48265960  0.92222781  1
  O  O584  1  0.41339113  0.81634164  0.17246558  1
  O  O585  1  0.41352033  0.81650031  0.42321555  1
  O  O586  1  0.41053265  0.81546638  0.67203810  1
  O  O587  1  0.41232553  0.81480222  0.92194882  1
  O  O588  1  0.90953551  0.14867023  0.17246313  1
  O  O589  1  0.91142794  0.14911904  0.42152585  1
  O  O590  1  0.91365310  0.14742152  0.67190404  1
  O  O591  1  0.91024900  0.14709222  0.92335374  1
  O  O592  1  0.91290759  0.48194699  0.17357619  1
  O  O593  1  0.91228100  0.48051927  0.42380167  1
  O  O594  1  0.91093906  0.48089354  0.67219008  1
  O  O595  1  0.91339830  0.48168429  0.92203520  1
  O  O596  1  0.90993691  0.81491068  0.17318652  1
  O  O597  1  0.91264469  0.81545110  0.42274924  1
  O  O598  1  0.91385464  0.81648224  0.67169526  1
  O  O599  1  0.91067564  0.81643817  0.92185143  1
  O  O600  1  0.08456747  0.18577049  0.07737586  1
  O  O601  1  0.08573568  0.18586808  0.32686235  1
  O  O602  1  0.08551571  0.18365180  0.57715509  1
  O  O603  1  0.08741154  0.18534966  0.82773158  1
  O  O604  1  0.08518416  0.51740051  0.07819400  1
  O  O605  1  0.08824014  0.51673921  0.32893951  1
  O  O606  1  0.08924441  0.51956534  0.57699826  1
  O  O607  1  0.08748329  0.51752735  0.82745289  1
  O  O608  1  0.08503060  0.85165048  0.07781451  1
  O  O609  1  0.08928180  0.85192027  0.32677326  1
  O  O610  1  0.08763440  0.85177710  0.57671984  1
  O  O611  1  0.08509169  0.85199755  0.82722381  1
  O  O612  1  0.58753219  0.18437389  0.07751584  1
  O  O613  1  0.58887609  0.18491467  0.32914821  1
  O  O614  1  0.58859974  0.18460774  0.57759529  1
  O  O615  1  0.58858739  0.18453365  0.82832047  1
  O  O616  1  0.58691469  0.51779122  0.07706367  1
  O  O617  1  0.58749192  0.51822485  0.32764177  1
  O  O618  1  0.58453901  0.51820338  0.57717093  1
  O  O619  1  0.58502775  0.51806877  0.82645281  1
  O  O620  1  0.58760966  0.85279358  0.07747953  1
  O  O621  1  0.58744342  0.85123388  0.32799062  1
  O  O622  1  0.58759821  0.85210598  0.57733791  1
  O  O623  1  0.58932864  0.85167697  0.82630325  1
  O  O624  1  0.33867445  0.18572950  0.04883175  1
  O  O625  1  0.33883858  0.18557734  0.29739032  1
  O  O626  1  0.33762558  0.18479455  0.54698490  1
  O  O627  1  0.33785432  0.18373449  0.79730036  1
  O  O628  1  0.33766083  0.51733405  0.04647405  1
  O  O629  1  0.33675214  0.51718370  0.29722601  1
  O  O630  1  0.33685640  0.51793287  0.54765735  1
  O  O631  1  0.33927773  0.51867459  0.79726611  1
  O  O632  1  0.33882968  0.85231908  0.04844284  1
  O  O633  1  0.33852852  0.85189438  0.29834449  1
  O  O634  1  0.33882785  0.85186533  0.54730252  1
  O  O635  1  0.33848685  0.85201990  0.79616815  1
  O  O636  1  0.83608050  0.18381698  0.04806975  1
  O  O637  1  0.83891302  0.18454142  0.29758828  1
  O  O638  1  0.83724662  0.18555960  0.54781764  1
  O  O639  1  0.83843292  0.18526793  0.79662533  1
  O  O640  1  0.83901574  0.51880217  0.04856653  1
  O  O641  1  0.83871659  0.51809317  0.29729529  1
  O  O642  1  0.83711454  0.51757262  0.54653045  1
  O  O643  1  0.83773828  0.51806563  0.79672639  1
  O  O644  1  0.83940942  0.85215293  0.04734681  1
  O  O645  1  0.83647132  0.85206201  0.29773539  1
  O  O646  1  0.83607607  0.85200617  0.54823320  1
  O  O647  1  0.83800793  0.85102359  0.79650170  1
  O  O648  1  0.16249021  0.14721561  0.20218441  1
  O  O649  1  0.16394790  0.14776468  0.45235430  1
  O  O650  1  0.16360650  0.14800856  0.70114328  1
  O  O651  1  0.16312924  0.14828651  0.95275044  1
  O  O652  1  0.16206488  0.48131060  0.20189287  1
  O  O653  1  0.16366805  0.48235468  0.45252002  1
  O  O654  1  0.16352820  0.48131908  0.70288540  1
  O  O655  1  0.16195158  0.48110347  0.95206543  1
  O  O656  1  0.16329721  0.81668275  0.20267211  1
  O  O657  1  0.16395305  0.81557038  0.45313338  1
  O  O658  1  0.16402927  0.81579338  0.70117130  1
  O  O659  1  0.16242735  0.81562693  0.95221652  1
  O  O660  1  0.66180577  0.14725021  0.20241869  1
  O  O661  1  0.66049873  0.14844908  0.45310477  1
  O  O662  1  0.66043011  0.14701143  0.70209560  1
  O  O663  1  0.66302876  0.14978317  0.95292249  1
  O  O664  1  0.66409567  0.48154487  0.20250588  1
  O  O665  1  0.66268596  0.48063679  0.45136720  1
  O  O666  1  0.66430888  0.48213169  0.70166359  1
  O  O667  1  0.66303175  0.48066343  0.95240115  1
  O  O668  1  0.66361204  0.81646166  0.20291664  1
  O  O669  1  0.66125681  0.81593563  0.45244244  1
  O  O670  1  0.66441812  0.81545987  0.70248918  1
  O  O671  1  0.66517734  0.81502118  0.95224383  1
