# generated using pymatgen
data_Na2MnFe(PO4)2
_symmetry_space_group_name_H-M   'P 1'
_cell_length_a   21.07888003
_cell_length_b   18.93069626
_cell_length_c   20.03851074
_cell_angle_alpha   90.00064769
_cell_angle_beta   90.00073406
_cell_angle_gamma   90.00119569
_symmetry_Int_Tables_number   1
_chemical_formula_structural   Na2MnFe(PO4)2
_chemical_formula_sum   'Na96 Mn48 Fe48 P96 O384'
_cell_volume   7996.12474816
_cell_formula_units_Z   48
loop_
 _symmetry_equiv_pos_site_id
 _symmetry_equiv_pos_as_xyz
  1  'x, y, z'
loop_
 _atom_site_type_symbol
 _atom_site_label
 _atom_site_symmetry_multiplicity
 _atom_site_fract_x
 _atom_site_fract_y
 _atom_site_fract_z
 _atom_site_occupancy
  Na  Na0  1  -0.00162308  -0.00045822  0.00034785  1
  Na  Na1  1  -0.00264985  -0.00034562  0.24992240  1
  Na  Na2  1  -0.00111695  0.00006116  0.50039443  1
  Na  Na3  1  0.00092480  0.00109252  0.74999245  1
  Na  Na4  1  0.00206377  0.33301194  0.00017453  1
  Na  Na5  1  0.00097232  0.33395931  0.24932453  1
  Na  Na6  1  -0.00215477  0.33238440  0.50066821  1
  Na  Na7  1  0.00139364  0.33338113  0.75026155  1
  Na  Na8  1  0.00200618  0.66671760  -0.00041162  1
  Na  Na9  1  0.00068182  0.66697272  0.24988405  1
  Na  Na10  1  -0.00135496  0.66639433  0.50038849  1
  Na  Na11  1  0.00158934  0.66734065  0.74987952  1
  Na  Na12  1  0.49835302  0.00062494  -0.00033435  1
  Na  Na13  1  0.49824914  -0.00027842  0.25073118  1
  Na  Na14  1  0.49990076  -0.00028615  0.49913879  1
  Na  Na15  1  0.49944792  -0.00005542  0.75029110  1
  Na  Na16  1  0.50097331  0.33357114  0.00042961  1
  Na  Na17  1  0.50138929  0.33401746  0.24902095  1
  Na  Na18  1  0.50286911  0.33478524  0.49952663  1
  Na  Na19  1  0.50202755  0.33360280  0.75044533  1
  Na  Na20  1  0.49866243  0.66677012  0.00136652  1
  Na  Na21  1  0.49839019  0.66649048  0.24888139  1
  Na  Na22  1  0.50052903  0.66707444  0.49883784  1
  Na  Na23  1  0.50046930  0.66702480  0.75050895  1
  Na  Na24  1  0.25166681  0.00038310  0.12548627  1
  Na  Na25  1  0.25247383  0.00082673  0.37513114  1
  Na  Na26  1  0.24905890  -0.00025109  0.62366758  1
  Na  Na27  1  0.25067964  0.00078203  0.87574215  1
  Na  Na28  1  0.25075154  0.33315626  0.12442786  1
  Na  Na29  1  0.24939237  0.33289584  0.37482147  1
  Na  Na30  1  0.24922616  0.33268081  0.62484224  1
  Na  Na31  1  0.25054239  0.33296188  0.87510453  1
  Na  Na32  1  0.25085303  0.66730830  0.12633139  1
  Na  Na33  1  0.25088392  0.66675460  0.37507737  1
  Na  Na34  1  0.24947227  0.66676740  0.62447059  1
  Na  Na35  1  0.24979338  0.66695643  0.87429330  1
  Na  Na36  1  0.75203103  0.00062502  0.12464202  1
  Na  Na37  1  0.75294380  0.00038382  0.37398995  1
  Na  Na38  1  0.74913666  -0.00084294  0.62550862  1
  Na  Na39  1  0.74992857  0.00063895  0.87569055  1
  Na  Na40  1  0.74655698  0.33267202  0.12508610  1
  Na  Na41  1  0.74984353  0.33373096  0.37502244  1
  Na  Na42  1  0.74914555  0.33346484  0.62574935  1
  Na  Na43  1  0.74660573  0.33278189  0.87497642  1
  Na  Na44  1  0.75014003  0.66628536  0.12490335  1
  Na  Na45  1  0.74954747  0.66652982  0.37459613  1
  Na  Na46  1  0.74966339  0.66684704  0.62479913  1
  Na  Na47  1  0.74960730  0.66685864  0.87532456  1
  Na  Na48  1  0.00193844  0.16643970  0.00069795  1
  Na  Na49  1  0.00053095  0.16627288  0.24895261  1
  Na  Na50  1  -0.00142050  0.16676342  0.49968106  1
  Na  Na51  1  0.00110856  0.16675847  0.75062173  1
  Na  Na52  1  -0.00060654  0.50094714  0.00001652  1
  Na  Na53  1  -0.00211219  0.50133063  0.24997576  1
  Na  Na54  1  -0.00222108  0.50021369  0.50054492  1
  Na  Na55  1  -0.00153856  0.50052817  0.75018007  1
  Na  Na56  1  0.00180741  0.83287919  -0.00013463  1
  Na  Na57  1  -0.00053362  0.83326586  0.24987236  1
  Na  Na58  1  -0.00031762  0.83317624  0.50143660  1
  Na  Na59  1  0.00299974  0.83248827  0.74920315  1
  Na  Na60  1  0.50008423  0.16599477  -0.00043943  1
  Na  Na61  1  0.50012692  0.16604661  0.24977112  1
  Na  Na62  1  0.49929429  0.16689892  0.50007024  1
  Na  Na63  1  0.49959786  0.16657132  0.75085283  1
  Na  Na64  1  0.49902123  0.50008008  0.00093605  1
  Na  Na65  1  0.50023262  0.49957406  0.24930512  1
  Na  Na66  1  0.50041868  0.50056423  0.49870951  1
  Na  Na67  1  0.50089340  0.49986196  0.75074876  1
  Na  Na68  1  0.49794885  0.83378108  0.00084932  1
  Na  Na69  1  0.49803092  0.83409094  0.24968227  1
  Na  Na70  1  0.50246038  0.83226891  0.49856136  1
  Na  Na71  1  0.50194476  0.83233652  0.74997403  1
  Na  Na72  1  0.24882786  0.16727453  0.12416034  1
  Na  Na73  1  0.24907610  0.16655958  0.37540785  1
  Na  Na74  1  0.24952516  0.16665661  0.62468982  1
  Na  Na75  1  0.25105794  0.16597700  0.87590552  1
  Na  Na76  1  0.25266653  0.49969247  0.12588829  1
  Na  Na77  1  0.25340203  0.49976898  0.37486283  1
  Na  Na78  1  0.25147688  0.50012616  0.62451680  1
  Na  Na79  1  0.25105155  0.50054175  0.87402927  1
  Na  Na80  1  0.25197127  0.83186336  0.12614897  1
  Na  Na81  1  0.25014762  0.83295018  0.37460986  1
  Na  Na82  1  0.24725269  0.83389153  0.62407577  1
  Na  Na83  1  0.24811208  0.83353483  0.87536996  1
  Na  Na84  1  0.74917401  0.16594244  0.12418487  1
  Na  Na85  1  0.75198059  0.16568149  0.37506515  1
  Na  Na86  1  0.75106711  0.16591777  0.62584263  1
  Na  Na87  1  0.74766964  0.16713714  0.87500912  1
  Na  Na88  1  0.75029514  0.50002481  0.12464065  1
  Na  Na89  1  0.75060331  0.49965408  0.37468538  1
  Na  Na90  1  0.74991425  0.49979018  0.62526853  1
  Na  Na91  1  0.74956705  0.49982904  0.87631240  1
  Na  Na92  1  0.75097246  0.83286562  0.12558898  1
  Na  Na93  1  0.75009400  0.83349808  0.37412993  1
  Na  Na94  1  0.74852279  0.83302736  0.62476845  1
  Na  Na95  1  0.74812594  0.83358329  0.87491100  1
  Mn  Mn96  1  0.64263922  0.91672531  0.24723805  1
  Mn  Mn97  1  0.60644925  0.75056154  0.12276706  1
  Mn  Mn98  1  0.64166490  0.58306196  0.74816083  1
  Mn  Mn99  1  0.85773708  0.75001238  0.75257231  1
  Mn  Mn100  1  0.64233912  0.58373431  0.49708713  1
  Mn  Mn101  1  0.39131885  0.91662794  0.87692883  1
  Mn  Mn102  1  0.85689046  0.41643602  0.75293287  1
  Mn  Mn103  1  0.85720333  0.41565079  0.00215630  1
  Mn  Mn104  1  0.39267794  0.25078187  0.62779808  1
  Mn  Mn105  1  0.85856830  0.75060953  0.00188407  1
  Mn  Mn106  1  0.64164853  0.91687970  0.99854375  1
  Mn  Mn107  1  0.89251009  0.25042756  0.12667732  1
  Mn  Mn108  1  0.35913464  0.41626661  0.50219412  1
  Mn  Mn109  1  0.89210261  0.25044840  0.87769944  1
  Mn  Mn110  1  0.39257178  0.91594870  0.62728126  1
  Mn  Mn111  1  0.35757291  0.75109837  0.75146566  1
  Mn  Mn112  1  0.85756443  0.08345077  0.75288427  1
  Mn  Mn113  1  0.89200952  0.25038473  0.37707597  1
  Mn  Mn114  1  0.39237118  0.24977751  0.12739413  1
  Mn  Mn115  1  0.10880284  0.41718015  0.87302955  1
  Mn  Mn116  1  0.60755642  0.08288097  0.62218062  1
  Mn  Mn117  1  0.89172254  0.58318715  0.62766795  1
  Mn  Mn118  1  0.64305505  0.24882871  0.49786423  1
  Mn  Mn119  1  0.14288632  0.58256916  0.24845194  1
  Mn  Mn120  1  0.14233821  0.58290215  0.74723858  1
  Mn  Mn121  1  0.14247604  0.91738237  0.24818179  1
  Mn  Mn122  1  0.64115772  0.91683268  0.74781801  1
  Mn  Mn123  1  0.14161034  0.91665497  0.49682685  1
  Mn  Mn124  1  0.10743959  0.41656877  0.62245975  1
  Mn  Mn125  1  0.85837380  0.74994372  0.25231655  1
  Mn  Mn126  1  0.85724689  0.41622204  0.25160159  1
  Mn  Mn127  1  0.64187296  0.58342575  0.99812197  1
  Mn  Mn128  1  0.10730341  0.41757926  0.37277494  1
  Mn  Mn129  1  0.39231936  0.25035024  0.37698978  1
  Mn  Mn130  1  0.14244912  0.58282939  0.49738130  1
  Mn  Mn131  1  0.10900800  0.41739164  0.12265887  1
  Mn  Mn132  1  0.10857455  0.08277825  0.87313497  1
  Mn  Mn133  1  0.60833838  0.08311693  0.37254581  1
  Mn  Mn134  1  0.35822293  0.75008868  0.50199561  1
  Mn  Mn135  1  0.14258971  0.91643476  0.99850606  1
  Mn  Mn136  1  0.89273475  0.91612380  0.87704732  1
  Mn  Mn137  1  0.89227250  0.91701930  0.62765778  1
  Mn  Mn138  1  0.35859313  0.41558084  0.75201051  1
  Mn  Mn139  1  0.35775596  0.08361512  0.50244328  1
  Mn  Mn140  1  0.39192860  0.58306210  0.87778551  1
  Mn  Mn141  1  0.14117486  0.25068725  0.49771614  1
  Mn  Mn142  1  0.64203583  0.24968791  0.24758012  1
  Mn  Mn143  1  0.10673984  0.08257576  0.37204898  1
  Fe  Fe144  1  0.10809398  0.75021073  0.12390715  1
  Fe  Fe145  1  0.10739166  0.08259462  0.12352458  1
  Fe  Fe146  1  0.89247413  0.24992569  0.62746829  1
  Fe  Fe147  1  0.85677598  0.41627541  0.50201510  1
  Fe  Fe148  1  0.10709458  0.74998138  0.62251218  1
  Fe  Fe149  1  0.10618821  0.74971146  0.37391235  1
  Fe  Fe150  1  0.89330668  0.58393205  0.12626879  1
  Fe  Fe151  1  0.14322420  0.24941617  0.74848855  1
  Fe  Fe152  1  0.85676031  0.08388829  0.00161849  1
  Fe  Fe153  1  0.89240168  0.91564998  0.37752649  1
  Fe  Fe154  1  0.35711668  0.75018546  0.25262130  1
  Fe  Fe155  1  0.35791199  0.41687113  0.00154464  1
  Fe  Fe156  1  0.14255394  0.91795569  0.74817159  1
  Fe  Fe157  1  0.39368433  0.58368556  0.62603163  1
  Fe  Fe158  1  0.89319971  0.58366913  0.87692947  1
  Fe  Fe159  1  0.35719667  0.08378243  0.25140232  1
  Fe  Fe160  1  0.64249892  0.58363389  0.24804065  1
  Fe  Fe161  1  0.60780774  0.74947041  0.62273033  1
  Fe  Fe162  1  0.60651453  0.41684745  0.87378827  1
  Fe  Fe163  1  0.60750952  0.74961374  0.37251092  1
  Fe  Fe164  1  0.39188979  0.91674776  0.12708440  1
  Fe  Fe165  1  0.60636929  0.41662183  0.12300353  1
  Fe  Fe166  1  0.10725061  0.08352519  0.62349216  1
  Fe  Fe167  1  0.14286656  0.25007021  0.24862740  1
  Fe  Fe168  1  0.64161875  0.24927142  0.99807165  1
  Fe  Fe169  1  0.60801110  0.41751739  0.37280162  1
  Fe  Fe170  1  0.39208035  0.58363806  0.12696641  1
  Fe  Fe171  1  0.89175214  0.58395745  0.37652172  1
  Fe  Fe172  1  0.10826048  0.74968471  0.87343291  1
  Fe  Fe173  1  0.64338022  0.91679482  0.49786499  1
  Fe  Fe174  1  0.89302989  0.91611683  0.12605894  1
  Fe  Fe175  1  0.60633100  0.08302856  0.87341140  1
  Fe  Fe176  1  0.39398790  0.58370131  0.37627175  1
  Fe  Fe177  1  0.64185724  0.24967306  0.74792761  1
  Fe  Fe178  1  0.35808095  0.41604994  0.25204271  1
  Fe  Fe179  1  0.14404470  0.25068154  0.99819888  1
  Fe  Fe180  1  0.60754514  0.41753914  0.62289873  1
  Fe  Fe181  1  0.35677394  0.08315745  0.75102225  1
  Fe  Fe182  1  0.35763526  0.08328125  0.00238180  1
  Fe  Fe183  1  0.60711631  0.08308437  0.12325605  1
  Fe  Fe184  1  0.85666663  0.75014764  0.50151232  1
  Fe  Fe185  1  0.35698697  0.74976411  0.00158384  1
  Fe  Fe186  1  0.60676719  0.75004981  0.87421835  1
  Fe  Fe187  1  0.14346164  0.58274143  0.99903652  1
  Fe  Fe188  1  0.39303713  0.25006365  0.87636464  1
  Fe  Fe189  1  0.85776323  0.08383594  0.25071126  1
  Fe  Fe190  1  0.85757606  0.08327171  0.50250586  1
  Fe  Fe191  1  0.39333004  0.91599395  0.37686461  1
  P  P192  1  0.05620547  0.24932049  0.11060653  1
  P  P193  1  0.05334235  0.25017975  0.35885062  1
  P  P194  1  0.05320604  0.24892347  0.61128177  1
  P  P195  1  0.05584894  0.24998140  0.86071047  1
  P  P196  1  0.05369601  0.58411194  0.10976364  1
  P  P197  1  0.05158675  0.58414087  0.36031142  1
  P  P198  1  0.05322125  0.58368417  0.60981250  1
  P  P199  1  0.05419553  0.58367309  0.86121307  1
  P  P200  1  0.05266313  0.91689800  0.11062597  1
  P  P201  1  0.05138568  0.91552221  0.36004469  1
  P  P202  1  0.05492904  0.91746111  0.61125737  1
  P  P203  1  0.05456731  0.91615219  0.85955363  1
  P  P204  1  0.55391228  0.24945716  0.10951747  1
  P  P205  1  0.55368509  0.25047808  0.35982441  1
  P  P206  1  0.55453239  0.25065449  0.61089984  1
  P  P207  1  0.55394786  0.24967021  0.86115763  1
  P  P208  1  0.55275322  0.58301255  0.11152246  1
  P  P209  1  0.55356818  0.58380511  0.35876334  1
  P  P210  1  0.55290760  0.58350418  0.60970550  1
  P  P211  1  0.55299795  0.58365125  0.86100251  1
  P  P212  1  0.55131159  0.91769773  0.11038851  1
  P  P213  1  0.55412785  0.91602153  0.36066256  1
  P  P214  1  0.55412121  0.91573204  0.60861030  1
  P  P215  1  0.55271072  0.91661026  0.86070163  1
  P  P216  1  0.44585094  0.08285045  0.13947082  1
  P  P217  1  0.44547918  0.08276523  0.38876755  1
  P  P218  1  0.44618943  0.08313331  0.64089890  1
  P  P219  1  0.44510899  0.08412743  0.88907790  1
  P  P220  1  0.44544252  0.41707760  0.13916614  1
  P  P221  1  0.44732656  0.41739972  0.38825216  1
  P  P222  1  0.44872997  0.41790522  0.63991191  1
  P  P223  1  0.44720508  0.41550336  0.89056169  1
  P  P224  1  0.44357599  0.75023138  0.13941896  1
  P  P225  1  0.44680467  0.74988354  0.38815055  1
  P  P226  1  0.44840494  0.74933369  0.63952571  1
  P  P227  1  0.44670645  0.75017807  0.89071155  1
  P  P228  1  0.94599471  0.08309554  0.13873389  1
  P  P229  1  0.94431714  0.08253757  0.38923713  1
  P  P230  1  0.94633909  0.08423754  0.63945040  1
  P  P231  1  0.94634546  0.08375153  0.89112510  1
  P  P232  1  0.94703332  0.41744966  0.13953294  1
  P  P233  1  0.94540261  0.41760463  0.39051903  1
  P  P234  1  0.94489697  0.41554117  0.63950353  1
  P  P235  1  0.94695388  0.41709466  0.89035587  1
  P  P236  1  0.94814176  0.74966387  0.13949483  1
  P  P237  1  0.94650667  0.74991291  0.39069614  1
  P  P238  1  0.94639215  0.75019929  0.63914936  1
  P  P239  1  0.94866642  0.74945659  0.88971779  1
  P  P240  1  0.19718642  0.08365009  0.23458958  1
  P  P241  1  0.19496786  0.08348605  0.48542344  1
  P  P242  1  0.19717946  0.08365263  0.73467677  1
  P  P243  1  0.19698387  0.08346370  0.98681988  1
  P  P244  1  0.19859775  0.41633267  0.23533276  1
  P  P245  1  0.19732586  0.41706173  0.48435191  1
  P  P246  1  0.19724730  0.41564198  0.73469290  1
  P  P247  1  0.19881451  0.41748314  0.98527056  1
  P  P248  1  0.19586264  0.74999526  0.23649560  1
  P  P249  1  0.19487269  0.74965455  0.48463401  1
  P  P250  1  0.19466208  0.75096466  0.73509935  1
  P  P251  1  0.19612327  0.74882837  0.98637746  1
  P  P252  1  0.69754891  0.08278516  0.23402342  1
  P  P253  1  0.69853183  0.08218387  0.48496347  1
  P  P254  1  0.69474336  0.08389857  0.73625879  1
  P  P255  1  0.69516101  0.08351645  0.98565699  1
  P  P256  1  0.69427205  0.41803693  0.23516652  1
  P  P257  1  0.69615951  0.41671834  0.48550029  1
  P  P258  1  0.69389568  0.41614600  0.73596343  1
  P  P259  1  0.69396340  0.41595086  0.98593848  1
  P  P260  1  0.69554189  0.74918322  0.23569251  1
  P  P261  1  0.69594602  0.75075307  0.48488954  1
  P  P262  1  0.69462167  0.74966886  0.73538602  1
  P  P263  1  0.69602958  0.75019097  0.98476836  1
  P  P264  1  0.30451451  0.25016366  0.01347241  1
  P  P265  1  0.30248292  0.24949498  0.26465585  1
  P  P266  1  0.30326848  0.25011761  0.51535424  1
  P  P267  1  0.30314707  0.24880820  0.76562609  1
  P  P268  1  0.30306720  0.58361695  0.01562260  1
  P  P269  1  0.30592127  0.58347338  0.26469799  1
  P  P270  1  0.30589482  0.58356934  0.51444715  1
  P  P271  1  0.30497801  0.58377187  0.76342553  1
  P  P272  1  0.30399105  0.91630097  0.01578169  1
  P  P273  1  0.30539526  0.91692490  0.26466597  1
  P  P274  1  0.30445022  0.91613035  0.51390509  1
  P  P275  1  0.30150703  0.91737750  0.76454884  1
  P  P276  1  0.80133899  0.24935298  0.01485728  1
  P  P277  1  0.80309564  0.24934229  0.26450694  1
  P  P278  1  0.80425182  0.25003349  0.51593538  1
  P  P279  1  0.80249935  0.25004909  0.76466635  1
  P  P280  1  0.80527325  0.58352729  0.01467869  1
  P  P281  1  0.80390324  0.58339654  0.26415503  1
  P  P282  1  0.80434612  0.58364832  0.51368093  1
  P  P283  1  0.80356946  0.58334074  0.76640804  1
  P  P284  1  0.80397544  0.91736921  0.01541866  1
  P  P285  1  0.80595539  0.91721383  0.26392106  1
  P  P286  1  0.80367662  0.91597446  0.51394316  1
  P  P287  1  0.80269984  0.91646860  0.76549072  1
  O  O288  1  0.06027235  0.25026955  0.18741540  1
  O  O289  1  0.05585792  0.25006673  0.43571405  1
  O  O290  1  0.05839885  0.24955119  0.68795407  1
  O  O291  1  0.06091992  0.25011976  0.93751796  1
  O  O292  1  0.05731161  0.58314902  0.18650415  1
  O  O293  1  0.05550434  0.58306972  0.43693768  1
  O  O294  1  0.05650531  0.58290997  0.68662463  1
  O  O295  1  0.05929402  0.58268264  0.93785301  1
  O  O296  1  0.05603498  0.91730637  0.18730881  1
  O  O297  1  0.05506871  0.91654907  0.43674975  1
  O  O298  1  0.05890203  0.91795042  0.68802567  1
  O  O299  1  0.05739215  0.91718050  0.93639160  1
  O  O300  1  0.55670030  0.24916011  0.18632117  1
  O  O301  1  0.55687280  0.24961425  0.43663993  1
  O  O302  1  0.55796499  0.24948618  0.68773053  1
  O  O303  1  0.55787075  0.24931933  0.93793811  1
  O  O304  1  0.55746846  0.58358644  0.18809740  1
  O  O305  1  0.55696000  0.58388741  0.43558440  1
  O  O306  1  0.55587141  0.58346720  0.68637510  1
  O  O307  1  0.55547316  0.58362160  0.93780104  1
  O  O308  1  0.55543129  0.91729294  0.18706068  1
  O  O309  1  0.55934872  0.91683302  0.43729513  1
  O  O310  1  0.55647379  0.91679612  0.68547235  1
  O  O311  1  0.55524980  0.91708245  0.93744227  1
  O  O312  1  0.44105735  0.08366633  0.06268933  1
  O  O313  1  0.44123545  0.08379992  0.31199181  1
  O  O314  1  0.44323467  0.08321785  0.56405333  1
  O  O315  1  0.44032421  0.08325287  0.81242627  1
  O  O316  1  0.44078104  0.41646800  0.06242592  1
  O  O317  1  0.44225121  0.41596980  0.31157341  1
  O  O318  1  0.44540739  0.41686901  0.56315543  1
  O  O319  1  0.44387965  0.41599195  0.81382135  1
  O  O320  1  0.43985302  0.74993747  0.06260363  1
  O  O321  1  0.44201427  0.75034063  0.31149204  1
  O  O322  1  0.44466688  0.75025932  0.56282639  1
  O  O323  1  0.44316193  0.75033485  0.81397121  1
  O  O324  1  0.94121204  0.08418636  0.06207021  1
  O  O325  1  0.94077724  0.08371904  0.31241040  1
  O  O326  1  0.94131474  0.08336744  0.56271568  1
  O  O327  1  0.94326020  0.08422991  0.81426990  1
  O  O328  1  0.94372115  0.41611278  0.06281073  1
  O  O329  1  0.94267867  0.41675393  0.31367392  1
  O  O330  1  0.94049913  0.41604266  0.56275023  1
  O  O331  1  0.94348454  0.41603626  0.81357504  1
  O  O332  1  0.94484827  0.74977488  0.06285632  1
  O  O333  1  0.94366738  0.74983263  0.31387853  1
  O  O334  1  0.94091113  0.75028405  0.56255150  1
  O  O335  1  0.94482518  0.75004506  0.81302532  1
  O  O336  1  0.19196625  0.08254779  0.06342023  1
  O  O337  1  0.19331217  0.08253503  0.31133286  1
  O  O338  1  0.19056237  0.08334254  0.56218589  1
  O  O339  1  0.19434017  0.08331035  0.81146789  1
  O  O340  1  0.19546055  0.41745934  0.06198319  1
  O  O341  1  0.19431440  0.41734943  0.31195597  1
  O  O342  1  0.19345451  0.41737839  0.56112065  1
  O  O343  1  0.19440137  0.41683654  0.81149012  1
  O  O344  1  0.19157979  0.74983409  0.06315842  1
  O  O345  1  0.19029892  0.74995047  0.31309331  1
  O  O346  1  0.19030034  0.74968257  0.56143610  1
  O  O347  1  0.19115248  0.74976607  0.81202333  1
  O  O348  1  0.69052481  0.08254513  0.06238318  1
  O  O349  1  0.69385632  0.08255117  0.31076437  1
  O  O350  1  0.69429887  0.08266444  0.56164149  1
  O  O351  1  0.69022366  0.08324334  0.81302211  1
  O  O352  1  0.68986301  0.41714844  0.06275985  1
  O  O353  1  0.69080501  0.41748963  0.31207001  1
  O  O354  1  0.69132989  0.41739266  0.56223587  1
  O  O355  1  0.68961204  0.41711946  0.81278314  1
  O  O356  1  0.69253232  0.75004330  0.06158503  1
  O  O357  1  0.69130540  0.74979372  0.31246604  1
  O  O358  1  0.69140376  0.74962076  0.56165292  1
  O  O359  1  0.69002402  0.74973743  0.81213329  1
  O  O360  1  0.30610529  0.24964659  0.18792803  1
  O  O361  1  0.30690264  0.25013508  0.43857540  1
  O  O362  1  0.30671046  0.24996872  0.68888374  1
  O  O363  1  0.30905611  0.25002610  0.93682844  1
  O  O364  1  0.30928665  0.58358309  0.18785212  1
  O  O365  1  0.31062584  0.58380417  0.43766226  1
  O  O366  1  0.30967383  0.58386981  0.68669715  1
  O  O367  1  0.30603061  0.58386557  0.93879087  1
  O  O368  1  0.30882297  0.91664949  0.18782433  1
  O  O369  1  0.30943669  0.91569245  0.43715291  1
  O  O370  1  0.30530038  0.91626165  0.68785892  1
  O  O371  1  0.30628055  0.91638827  0.93891331  1
  O  O372  1  0.80598223  0.25011083  0.18774407  1
  O  O373  1  0.80671963  0.25024201  0.43908266  1
  O  O374  1  0.80787040  0.24998872  0.68804474  1
  O  O375  1  0.80517479  0.25024985  0.93816999  1
  O  O376  1  0.80906704  0.58381208  0.18746940  1
  O  O377  1  0.80789978  0.58382316  0.43689150  1
  O  O378  1  0.80661296  0.58349651  0.68951226  1
  O  O379  1  0.80981419  0.58377049  0.93792529  1
  O  O380  1  0.81027732  0.91589897  0.18712494  1
  O  O381  1  0.80805524  0.91576065  0.43719241  1
  O  O382  1  0.80621097  0.91613091  0.68866956  1
  O  O383  1  0.80677798  0.91630352  0.93864493  1
  O  O384  1  0.23417026  0.25023097  0.03746400  1
  O  O385  1  0.23246884  0.24952732  0.28949522  1
  O  O386  1  0.23347053  0.24993576  0.53996570  1
  O  O387  1  0.23312556  0.24933074  0.79028622  1
  O  O388  1  0.23323054  0.58337413  0.04103790  1
  O  O389  1  0.23591195  0.58347607  0.28931638  1
  O  O390  1  0.23569801  0.58350660  0.53801921  1
  O  O391  1  0.23488009  0.58363455  0.78735010  1
  O  O392  1  0.23439655  0.91619511  0.04144178  1
  O  O393  1  0.23536815  0.91694651  0.28925324  1
  O  O394  1  0.23424914  0.91639963  0.53722134  1
  O  O395  1  0.23162406  0.91764858  0.78960629  1
  O  O396  1  0.73123040  0.24923416  0.03927726  1
  O  O397  1  0.73356510  0.24941454  0.29015863  1
  O  O398  1  0.73456346  0.24961588  0.54131462  1
  O  O399  1  0.73206905  0.25017483  0.78798551  1
  O  O400  1  0.73500087  0.58337895  0.03828587  1
  O  O401  1  0.73353390  0.58324045  0.28773008  1
  O  O402  1  0.73441791  0.58347138  0.53855320  1
  O  O403  1  0.73378715  0.58301918  0.79112384  1
  O  O404  1  0.73429141  0.91670887  0.04079875  1
  O  O405  1  0.73577735  0.91674460  0.28777944  1
  O  O406  1  0.73347513  0.91617085  0.53820400  1
  O  O407  1  0.73296883  0.91708567  0.79027038  1
  O  O408  1  0.26736754  0.08345310  0.21029489  1
  O  O409  1  0.26507112  0.08359528  0.46159359  1
  O  O410  1  0.26708713  0.08346819  0.70940530  1
  O  O411  1  0.26743177  0.08323109  0.96322368  1
  O  O412  1  0.26880191  0.41644069  0.21106744  1
  O  O413  1  0.26716798  0.41654335  0.45981314  1
  O  O414  1  0.26692502  0.41569922  0.70938662  1
  O  O415  1  0.26875706  0.41715188  0.96011179  1
  O  O416  1  0.26659709  0.74989948  0.21400383  1
  O  O417  1  0.26511199  0.74986770  0.46116522  1
  O  O418  1  0.26462294  0.75031289  0.71041148  1
  O  O419  1  0.26649889  0.74995307  0.96247388  1
  O  O420  1  0.76769674  0.08319736  0.20979168  1
  O  O421  1  0.76871094  0.08289450  0.46085870  1
  O  O422  1  0.76479612  0.08310093  0.71217396  1
  O  O423  1  0.76556672  0.08354735  0.96195674  1
  O  O424  1  0.76422889  0.41670633  0.21068597  1
  O  O425  1  0.76658596  0.41653367  0.46207201  1
  O  O426  1  0.76402887  0.41675468  0.71207474  1
  O  O427  1  0.76402954  0.41631316  0.96176679  1
  O  O428  1  0.76564340  0.74967554  0.21163826  1
  O  O429  1  0.76627490  0.75014628  0.46106543  1
  O  O430  1  0.76475796  0.74975602  0.71147595  1
  O  O431  1  0.76586725  0.75041628  0.96010853  1
  O  O432  1  0.01640435  0.08324984  0.16257098  1
  O  O433  1  0.01431806  0.08312158  0.41371446  1
  O  O434  1  0.01664189  0.08389554  0.66320176  1
  O  O435  1  0.01621505  0.08322037  0.91574203  1
  O  O436  1  0.01676785  0.41771208  0.16465856  1
  O  O437  1  0.01505485  0.41673596  0.41597240  1
  O  O438  1  0.01491315  0.41669811  0.66372447  1
  O  O439  1  0.01671711  0.41680792  0.91530879  1
  O  O440  1  0.01813559  0.74994809  0.16456275  1
  O  O441  1  0.01642917  0.74979634  0.41579549  1
  O  O442  1  0.01691507  0.75020143  0.66222419  1
  O  O443  1  0.01874868  0.74983135  0.91431237  1
  O  O444  1  0.51630178  0.08326753  0.16300704  1
  O  O445  1  0.51550582  0.08290331  0.41311532  1
  O  O446  1  0.51594229  0.08298325  0.66573720  1
  O  O447  1  0.51561496  0.08349100  0.91258410  1
  O  O448  1  0.51598683  0.41639973  0.16241191  1
  O  O449  1  0.51772370  0.41790703  0.41187756  1
  O  O450  1  0.51857365  0.41732349  0.66501611  1
  O  O451  1  0.51728417  0.41644629  0.91514030  1
  O  O452  1  0.51368521  0.75043172  0.16361709  1
  O  O453  1  0.51718874  0.74959910  0.41186556  1
  O  O454  1  0.51841268  0.74967623  0.66416272  1
  O  O455  1  0.51670522  0.75017681  0.91553611  1
  O  O456  1  0.48414671  0.24972387  0.08450480  1
  O  O457  1  0.48409892  0.25040344  0.33434298  1
  O  O458  1  0.48475370  0.25076107  0.58590094  1
  O  O459  1  0.48363965  0.24984485  0.83691216  1
  O  O460  1  0.48233664  0.58354310  0.08779626  1
  O  O461  1  0.48347470  0.58355445  0.33427063  1
  O  O462  1  0.48322446  0.58375390  0.58398756  1
  O  O463  1  0.48348175  0.58341248  0.83527673  1
  O  O464  1  0.48120908  0.91711062  0.08602879  1
  O  O465  1  0.48367940  0.91624395  0.33725150  1
  O  O466  1  0.48451287  0.91602557  0.58315994  1
  O  O467  1  0.48319429  0.91625345  0.83477797  1
  O  O468  1  0.98603445  0.24991766  0.08653954  1
  O  O469  1  0.98366271  0.25024818  0.33363631  1
  O  O470  1  0.98293860  0.24920825  0.58738443  1
  O  O471  1  0.98556083  0.25003796  0.83739304  1
  O  O472  1  0.98358822  0.58382280  0.08528634  1
  O  O473  1  0.98150117  0.58434179  0.33577564  1
  O  O474  1  0.98338465  0.58341874  0.58521197  1
  O  O475  1  0.98388828  0.58384602  0.83724612  1
  O  O476  1  0.98270838  0.91631208  0.08553904  1
  O  O477  1  0.98138266  0.91580219  0.33546353  1
  O  O478  1  0.98492386  0.91687321  0.58689558  1
  O  O479  1  0.98493825  0.91669535  0.83409628  1
  O  O480  1  0.09023497  0.31414535  0.07722480  1
  O  O481  1  0.08786180  0.31518623  0.32667037  1
  O  O482  1  0.08644720  0.31404044  0.57765233  1
  O  O483  1  0.08950463  0.31479527  0.82728585  1
  O  O484  1  0.08766601  0.64928838  0.07748910  1
  O  O485  1  0.08563787  0.64923439  0.32795048  1
  O  O486  1  0.08706971  0.64894733  0.57761926  1
  O  O487  1  0.08778388  0.64882540  0.82836980  1
  O  O488  1  0.08624746  0.98201562  0.07763304  1
  O  O489  1  0.08532350  0.98040264  0.32686639  1
  O  O490  1  0.08800931  0.98270356  0.57796177  1
  O  O491  1  0.08906113  0.98109697  0.82693641  1
  O  O492  1  0.58821298  0.31459259  0.07740614  1
  O  O493  1  0.58785733  0.31569715  0.32793010  1
  O  O494  1  0.58858011  0.31589974  0.57883909  1
  O  O495  1  0.58756246  0.31486276  0.82840508  1
  O  O496  1  0.58626467  0.64787145  0.07796365  1
  O  O497  1  0.58741187  0.64886824  0.32602194  1
  O  O498  1  0.58719099  0.64851320  0.57712899  1
  O  O499  1  0.58707372  0.64884606  0.82879243  1
  O  O500  1  0.58489513  0.98277799  0.07755330  1
  O  O501  1  0.58728931  0.98104639  0.32694136  1
  O  O502  1  0.58874429  0.98055762  0.57589224  1
  O  O503  1  0.58666853  0.98180077  0.82818268  1
  O  O504  1  0.41236304  0.01785233  0.17250964  1
  O  O505  1  0.41195612  0.01738903  0.42126763  1
  O  O506  1  0.41183633  0.01809735  0.67326516  1
  O  O507  1  0.41138469  0.01939312  0.92280724  1
  O  O508  1  0.41210012  0.35210022  0.17285254  1
  O  O509  1  0.41448782  0.35246600  0.42239251  1
  O  O510  1  0.41456796  0.35304084  0.67293244  1
  O  O511  1  0.41369689  0.35025547  0.92315327  1
  O  O512  1  0.41006601  0.68512852  0.17251307  1
  O  O513  1  0.41362226  0.68459630  0.42118205  1
  O  O514  1  0.41463746  0.68418822  0.67196038  1
  O  O515  1  0.41257180  0.68521779  0.92346450  1
  O  O516  1  0.91259039  0.01787550  0.17159262  1
  O  O517  1  0.91097635  0.01703067  0.42182420  1
  O  O518  1  0.91295906  0.01918411  0.67288910  1
  O  O519  1  0.91178701  0.01874279  0.92309903  1
  O  O520  1  0.91308266  0.35238826  0.17239081  1
  O  O521  1  0.91063250  0.35284751  0.42309799  1
  O  O522  1  0.91200870  0.35006432  0.67264591  1
  O  O523  1  0.91284533  0.35212321  0.92329712  1
  O  O524  1  0.91432138  0.68447516  0.17221792  1
  O  O525  1  0.91201996  0.68504603  0.42309118  1
  O  O526  1  0.91334607  0.68511297  0.67271423  1
  O  O527  1  0.91489202  0.68446956  0.92247663  1
  O  O528  1  0.16328964  0.01862724  0.20142714  1
  O  O529  1  0.16173728  0.01838741  0.45191296  1
  O  O530  1  0.16273855  0.01891860  0.70191326  1
  O  O531  1  0.16383195  0.01845410  0.95312419  1
  O  O532  1  0.16488577  0.35129652  0.20265553  1
  O  O533  1  0.16291961  0.35211176  0.45212765  1
  O  O534  1  0.16309814  0.35017293  0.70306920  1
  O  O535  1  0.16458199  0.35254921  0.95280895  1
  O  O536  1  0.16281702  0.68502933  0.20264673  1
  O  O537  1  0.16148861  0.68460597  0.45132840  1
  O  O538  1  0.16044402  0.68628774  0.70175002  1
  O  O539  1  0.16340722  0.68330544  0.95328651  1
  O  O540  1  0.66389988  0.01773880  0.20093482  1
  O  O541  1  0.66519389  0.01706818  0.45188031  1
  O  O542  1  0.66101003  0.01909697  0.70282227  1
  O  O543  1  0.66168880  0.01857666  0.95206071  1
  O  O544  1  0.65960075  0.35338945  0.20238280  1
  O  O545  1  0.66266015  0.35169543  0.45239373  1
  O  O546  1  0.66057235  0.35085142  0.70318885  1
  O  O547  1  0.66047954  0.35061972  0.95337550  1
  O  O548  1  0.66221058  0.68396329  0.20279335  1
  O  O549  1  0.66213741  0.68592476  0.45130105  1
  O  O550  1  0.66123386  0.68453238  0.70202237  1
  O  O551  1  0.66193327  0.68518021  0.95212454  1
  O  O552  1  0.33767935  0.31532395  0.04672942  1
  O  O553  1  0.33648219  0.31454740  0.29735124  1
  O  O554  1  0.33717674  0.31529560  0.54793855  1
  O  O555  1  0.33770664  0.31348613  0.79866818  1
  O  O556  1  0.33710518  0.64867806  0.04823146  1
  O  O557  1  0.33965498  0.64855765  0.29769867  1
  O  O558  1  0.33933171  0.64859350  0.54787156  1
  O  O559  1  0.33813727  0.64887933  0.79683843  1
  O  O560  1  0.33843874  0.98141718  0.04794449  1
  O  O561  1  0.33923259  0.98214777  0.29708988  1
  O  O562  1  0.33787101  0.98115350  0.54704263  1
  O  O563  1  0.33565017  0.98246857  0.79682686  1
  O  O564  1  0.83499374  0.31432546  0.04812880  1
  O  O565  1  0.83712526  0.31441220  0.29711033  1
  O  O566  1  0.83817291  0.31525046  0.54840382  1
  O  O567  1  0.83562492  0.31505915  0.79833133  1
  O  O568  1  0.83871424  0.64859849  0.04806340  1
  O  O569  1  0.83730016  0.64836899  0.29785728  1
  O  O570  1  0.83772893  0.64900071  0.54657006  1
  O  O571  1  0.83770465  0.64842906  0.79888297  1
  O  O572  1  0.83796426  0.98284650  0.04721139  1
  O  O573  1  0.83927785  0.98262144  0.29632572  1
  O  O574  1  0.83730907  0.98107264  0.54704012  1
  O  O575  1  0.83712332  0.98137429  0.79771783  1
  O  O576  1  0.41233102  0.14780575  0.17303662  1
  O  O577  1  0.41198237  0.14778347  0.42212120  1
  O  O578  1  0.41203349  0.14812225  0.67346254  1
  O  O579  1  0.41228169  0.14944113  0.92245819  1
  O  O580  1  0.41237930  0.48220152  0.17234773  1
  O  O581  1  0.41394230  0.48270581  0.42090275  1
  O  O582  1  0.41500357  0.48323058  0.67201628  1
  O  O583  1  0.41276558  0.48028599  0.92336853  1
  O  O584  1  0.40991390  0.81532379  0.17237671  1
  O  O585  1  0.41366473  0.81480619  0.42194080  1
  O  O586  1  0.41446107  0.81428075  0.67272374  1
  O  O587  1  0.41237558  0.81505653  0.92329156  1
  O  O588  1  0.91251674  0.14797469  0.17255573  1
  O  O589  1  0.91029345  0.14726306  0.42262818  1
  O  O590  1  0.91303578  0.14934913  0.67268635  1
  O  O591  1  0.91235703  0.14875194  0.92396109  1
  O  O592  1  0.91270475  0.48267868  0.17135127  1
  O  O593  1  0.91140955  0.48298964  0.42245346  1
  O  O594  1  0.91073930  0.48038569  0.67247839  1
  O  O595  1  0.91295717  0.48239848  0.92223715  1
  O  O596  1  0.91390158  0.81454135  0.17214174  1
  O  O597  1  0.91245589  0.81505508  0.42325308  1
  O  O598  1  0.91343519  0.81523977  0.67288922  1
  O  O599  1  0.91487678  0.81452584  0.92263978  1
  O  O600  1  0.08953661  0.18391633  0.07796671  1
  O  O601  1  0.08765306  0.18515308  0.32648915  1
  O  O602  1  0.08642711  0.18377183  0.57802489  1
  O  O603  1  0.08920701  0.18481155  0.82748999  1
  O  O604  1  0.08783343  0.51930410  0.07650973  1
  O  O605  1  0.08525961  0.51916232  0.32691485  1
  O  O606  1  0.08719000  0.51869491  0.57700259  1
  O  O607  1  0.08730173  0.51865300  0.82736981  1
  O  O608  1  0.08699456  0.85183611  0.07843809  1
  O  O609  1  0.08528211  0.85032065  0.32783861  1
  O  O610  1  0.08871541  0.85223733  0.57859099  1
  O  O611  1  0.08879609  0.85093295  0.82780924  1
  O  O612  1  0.58791671  0.18433980  0.07696021  1
  O  O613  1  0.58774928  0.18534439  0.32727111  1
  O  O614  1  0.58814311  0.18560101  0.57757375  1
  O  O615  1  0.58738859  0.18460281  0.82787079  1
  O  O616  1  0.58580093  0.51780974  0.07826682  1
  O  O617  1  0.58771978  0.51882955  0.32629976  1
  O  O618  1  0.58693883  0.51837027  0.57711967  1
  O  O619  1  0.58725514  0.51853102  0.82879982  1
  O  O620  1  0.58525402  0.85270852  0.07757609  1
  O  O621  1  0.58714661  0.85083886  0.32731493  1
  O  O622  1  0.58850777  0.85047956  0.57687314  1
  O  O623  1  0.58714918  0.85140226  0.82888116  1
  O  O624  1  0.33766810  0.18510718  0.04703071  1
  O  O625  1  0.33618223  0.18427102  0.29718808  1
  O  O626  1  0.33735719  0.18521678  0.54799155  1
  O  O627  1  0.33687364  0.18346289  0.79790213  1
  O  O628  1  0.33765143  0.51858990  0.04775070  1
  O  O629  1  0.33986585  0.51833823  0.29721256  1
  O  O630  1  0.33965296  0.51861132  0.54760437  1
  O  O631  1  0.33841839  0.51860073  0.79658022  1
  O  O632  1  0.33832717  0.85124904  0.04791848  1
  O  O633  1  0.33918828  0.85184459  0.29773950  1
  O  O634  1  0.33746367  0.85103214  0.54756202  1
  O  O635  1  0.33515883  0.85230897  0.79769999  1
  O  O636  1  0.83545570  0.18428861  0.04720128  1
  O  O637  1  0.83736083  0.18416969  0.29639195  1
  O  O638  1  0.83873626  0.18498739  0.54817080  1
  O  O639  1  0.83568948  0.18503828  0.79821247  1
  O  O640  1  0.83880660  0.51853121  0.04791472  1
  O  O641  1  0.83740960  0.51842311  0.29743741  1
  O  O642  1  0.83797123  0.51844833  0.54645599  1
  O  O643  1  0.83800486  0.51847579  0.79882832  1
  O  O644  1  0.83874543  0.85269239  0.04822743  1
  O  O645  1  0.83958873  0.85237861  0.29771561  1
  O  O646  1  0.83687582  0.85073101  0.54718417  1
  O  O647  1  0.83636131  0.85125895  0.79816805  1
  O  O648  1  0.16324217  0.14867781  0.20217371  1
  O  O649  1  0.16133232  0.14847876  0.45246139  1
  O  O650  1  0.16315097  0.14899098  0.70241952  1
  O  O651  1  0.16392441  0.14857877  0.95351643  1
  O  O652  1  0.16507892  0.48146186  0.20212650  1
  O  O653  1  0.16385907  0.48224687  0.45130557  1
  O  O654  1  0.16310382  0.48054085  0.70190280  1
  O  O655  1  0.16514577  0.48279872  0.95274946  1
  O  O656  1  0.16300583  0.81506978  0.20256159  1
  O  O657  1  0.16108798  0.81450878  0.45131044  1
  O  O658  1  0.16120093  0.81647011  0.70288947  1
  O  O659  1  0.16198463  0.81343422  0.95290109  1
  O  O660  1  0.66315894  0.14759223  0.20143200  1
  O  O661  1  0.66469534  0.14721282  0.45200497  1
  O  O662  1  0.66172110  0.14931686  0.70327135  1
  O  O663  1  0.66151589  0.14856860  0.95264895  1
  O  O664  1  0.66115324  0.48343683  0.20228314  1
  O  O665  1  0.66288306  0.48168931  0.45170616  1
  O  O666  1  0.66025229  0.48101814  0.70229365  1
  O  O667  1  0.66013375  0.48079807  0.95252341  1
  O  O668  1  0.66188595  0.81417362  0.20248216  1
  O  O669  1  0.66267856  0.81596716  0.45187555  1
  O  O670  1  0.66087885  0.81452800  0.70202397  1
  O  O671  1  0.66163749  0.81511624  0.95236546  1
