# generated using pymatgen
data_Na2MnFe(PO4)2
_symmetry_space_group_name_H-M   'P 1'
_cell_length_a   21.08414379
_cell_length_b   18.93655258
_cell_length_c   20.04352666
_cell_angle_alpha   89.99975538
_cell_angle_beta   89.99896680
_cell_angle_gamma   90.00021538
_symmetry_Int_Tables_number   1
_chemical_formula_structural   Na2MnFe(PO4)2
_chemical_formula_sum   'Na96 Mn48 Fe48 P96 O384'
_cell_volume   8002.59844855
_cell_formula_units_Z   48
loop_
 _symmetry_equiv_pos_site_id
 _symmetry_equiv_pos_as_xyz
  1  'x, y, z'
loop_
 _atom_site_type_symbol
 _atom_site_label
 _atom_site_symmetry_multiplicity
 _atom_site_fract_x
 _atom_site_fract_y
 _atom_site_fract_z
 _atom_site_occupancy
  Na  Na0  1  0.00247231  0.00106459  -0.00006423  1
  Na  Na1  1  -0.00002605  -0.00037227  0.25110243  1
  Na  Na2  1  0.00080284  -0.00036283  0.50070636  1
  Na  Na3  1  0.00328695  0.00088523  0.74926926  1
  Na  Na4  1  -0.00041894  0.33345738  0.00049011  1
  Na  Na5  1  -0.00014598  0.33409040  0.24948313  1
  Na  Na6  1  -0.00024379  0.33380828  0.50060123  1
  Na  Na7  1  -0.00023195  0.33384719  0.74907188  1
  Na  Na8  1  0.00167636  0.66653343  -0.00098001  1
  Na  Na9  1  0.00145641  0.66621466  0.24910091  1
  Na  Na10  1  -0.00228897  0.66463861  0.50074986  1
  Na  Na11  1  0.00095868  0.66654917  0.75116916  1
  Na  Na12  1  0.50030412  -0.00006037  -0.00074954  1
  Na  Na13  1  0.49923735  -0.00046447  0.24956962  1
  Na  Na14  1  0.50154871  0.00106113  0.50089586  1
  Na  Na15  1  0.50106237  0.00044133  0.74983810  1
  Na  Na16  1  0.49900668  0.33440522  0.00072499  1
  Na  Na17  1  0.49869488  0.33370583  0.24979944  1
  Na  Na18  1  0.49863139  0.33354468  0.49940361  1
  Na  Na19  1  0.49943287  0.33415544  0.75012742  1
  Na  Na20  1  0.49805314  0.66531067  0.00037094  1
  Na  Na21  1  0.49977447  0.66658162  0.25067463  1
  Na  Na22  1  0.49920805  0.66597896  0.49987692  1
  Na  Na23  1  0.50040524  0.66637782  0.74916239  1
  Na  Na24  1  0.24862414  -0.00037365  0.12393486  1
  Na  Na25  1  0.25034359  0.00020760  0.37552021  1
  Na  Na26  1  0.24860545  -0.00071358  0.62497334  1
  Na  Na27  1  0.25000908  0.00085783  0.87550522  1
  Na  Na28  1  0.25088689  0.33440714  0.12565471  1
  Na  Na29  1  0.25146436  0.33417941  0.37546423  1
  Na  Na30  1  0.25190688  0.33420005  0.62468384  1
  Na  Na31  1  0.25012526  0.33368409  0.87363238  1
  Na  Na32  1  0.24869096  0.66573154  0.12372627  1
  Na  Na33  1  0.25030999  0.66660354  0.37448701  1
  Na  Na34  1  0.25082196  0.66690241  0.62611808  1
  Na  Na35  1  0.24821394  0.66541445  0.87575594  1
  Na  Na36  1  0.75047019  0.00059279  0.12583822  1
  Na  Na37  1  0.74988475  0.00065763  0.37605929  1
  Na  Na38  1  0.74758607  0.00002289  0.62432207  1
  Na  Na39  1  0.74763686  -0.00099149  0.87449200  1
  Na  Na40  1  0.75085786  0.33469151  0.12529906  1
  Na  Na41  1  0.74865477  0.33361654  0.37549845  1
  Na  Na42  1  0.74943908  0.33456018  0.62566636  1
  Na  Na43  1  0.75005634  0.33425160  0.87478028  1
  Na  Na44  1  0.75253606  0.66676966  0.12520626  1
  Na  Na45  1  0.75032207  0.66513305  0.37462757  1
  Na  Na46  1  0.75142650  0.66648223  0.62375128  1
  Na  Na47  1  0.75144827  0.66611328  0.87475818  1
  Na  Na48  1  0.00255618  0.16668396  0.00012487  1
  Na  Na49  1  0.00272913  0.16631461  0.25037013  1
  Na  Na50  1  0.00157214  0.16681947  0.50041890  1
  Na  Na51  1  0.00321357  0.16597973  0.74971069  1
  Na  Na52  1  0.00001928  0.49957102  0.00003962  1
  Na  Na53  1  -0.00116249  0.49981351  0.24926199  1
  Na  Na54  1  -0.00257599  0.50010007  0.50076387  1
  Na  Na55  1  -0.00049100  0.49979762  0.75010400  1
  Na  Na56  1  0.00108525  0.83244128  -0.00089580  1
  Na  Na57  1  -0.00003315  0.83331377  0.24987545  1
  Na  Na58  1  0.00063264  0.83320397  0.50111070  1
  Na  Na59  1  0.00081557  0.83326972  0.74943876  1
  Na  Na60  1  0.50104316  0.16626413  -0.00019708  1
  Na  Na61  1  0.50143763  0.16667877  0.25022494  1
  Na  Na62  1  0.50045698  0.16730240  0.49969267  1
  Na  Na63  1  0.50050286  0.16670795  0.75074939  1
  Na  Na64  1  0.49824791  0.50061889  0.00042402  1
  Na  Na65  1  0.49930538  0.50008885  0.24936492  1
  Na  Na66  1  0.50110839  0.49881926  0.49993785  1
  Na  Na67  1  0.50073789  0.49922794  0.74940309  1
  Na  Na68  1  0.49828522  0.83309707  0.00013651  1
  Na  Na69  1  0.49696636  0.83352435  0.25042111  1
  Na  Na70  1  0.49776881  0.83400014  0.50041080  1
  Na  Na71  1  0.50013213  0.83289058  0.74907692  1
  Na  Na72  1  0.24816423  0.16757028  0.12442134  1
  Na  Na73  1  0.25008183  0.16724375  0.37624170  1
  Na  Na74  1  0.25074488  0.16699164  0.62448342  1
  Na  Na75  1  0.24833098  0.16758867  0.87437113  1
  Na  Na76  1  0.25031014  0.49956482  0.12500888  1
  Na  Na77  1  0.24955394  0.50022589  0.37417089  1
  Na  Na78  1  0.25106811  0.49933388  0.62543193  1
  Na  Na79  1  0.25004372  0.50024690  0.87505332  1
  Na  Na80  1  0.24976221  0.83308113  0.12380670  1
  Na  Na81  1  0.25203250  0.83244175  0.37509957  1
  Na  Na82  1  0.24912833  0.83364135  0.62580643  1
  Na  Na83  1  0.24881365  0.83347914  0.87573617  1
  Na  Na84  1  0.74860879  0.16720978  0.12531783  1
  Na  Na85  1  0.74692776  0.16750621  0.37545000  1
  Na  Na86  1  0.74661549  0.16740088  0.62543682  1
  Na  Na87  1  0.74859767  0.16674478  0.87429109  1
  Na  Na88  1  0.75261276  0.49926154  0.12579151  1
  Na  Na89  1  0.75086983  0.49931067  0.37532020  1
  Na  Na90  1  0.74969997  0.49966467  0.62435081  1
  Na  Na91  1  0.74991181  0.50012561  0.87426037  1
  Na  Na92  1  0.75087096  0.83319021  0.12574392  1
  Na  Na93  1  0.75185799  0.83263656  0.37505913  1
  Na  Na94  1  0.75000238  0.83398463  0.62434031  1
  Na  Na95  1  0.75172927  0.83228507  0.87508074  1
  Mn  Mn96  1  0.60819775  0.74982199  0.62253475  1
  Mn  Mn97  1  0.35701903  0.74915919  0.00169480  1
  Mn  Mn98  1  0.35738752  0.08349694  0.25246447  1
  Mn  Mn99  1  0.89181195  0.24987975  0.37769428  1
  Mn  Mn100  1  0.85840269  0.08343030  0.00170469  1
  Mn  Mn101  1  0.39239013  0.58264269  0.62731713  1
  Mn  Mn102  1  0.64227360  0.25066550  0.99770150  1
  Mn  Mn103  1  0.64201918  0.91595361  0.24835191  1
  Mn  Mn104  1  0.14228753  0.91667641  0.24800787  1
  Mn  Mn105  1  0.85749857  0.08326891  0.75214114  1
  Mn  Mn106  1  0.60838351  0.74954202  0.87303346  1
  Mn  Mn107  1  0.64226621  0.91581404  0.99768213  1
  Mn  Mn108  1  0.85692967  0.08454786  0.50254316  1
  Mn  Mn109  1  0.14189910  0.25135049  0.99738990  1
  Mn  Mn110  1  0.10766624  0.74984842  0.62281834  1
  Mn  Mn111  1  0.60801531  0.08267769  0.12267729  1
  Mn  Mn112  1  0.14187428  0.58354299  0.49793362  1
  Mn  Mn113  1  0.10757018  0.41668179  0.62290813  1
  Mn  Mn114  1  0.10822637  0.08398854  0.37271939  1
  Mn  Mn115  1  0.39186530  0.58327221  0.37710248  1
  Mn  Mn116  1  0.89279293  0.91668080  0.12710925  1
  Mn  Mn117  1  0.39170312  0.25009280  0.12769811  1
  Mn  Mn118  1  0.14321683  0.25061603  0.49761185  1
  Mn  Mn119  1  0.64285219  0.58304971  0.49742153  1
  Mn  Mn120  1  0.85844629  0.74964619  0.50225389  1
  Mn  Mn121  1  0.89291243  0.91687733  0.62778284  1
  Mn  Mn122  1  0.89293485  0.58304160  0.87702424  1
  Mn  Mn123  1  0.60724734  0.41737948  0.12307636  1
  Mn  Mn124  1  0.14176331  0.91625261  0.99705799  1
  Mn  Mn125  1  0.64141711  0.25043386  0.74753129  1
  Mn  Mn126  1  0.35754114  0.08417770  0.00180756  1
  Mn  Mn127  1  0.85893352  0.74968182  0.25273354  1
  Mn  Mn128  1  0.35746553  0.75005137  0.75323839  1
  Mn  Mn129  1  0.35834677  0.08325018  0.50278731  1
  Mn  Mn130  1  0.64265375  0.58353710  0.99846502  1
  Mn  Mn131  1  0.89304369  0.24940607  0.87665734  1
  Mn  Mn132  1  0.89181467  0.24944920  0.62723619  1
  Mn  Mn133  1  0.89221223  0.24958334  0.12769346  1
  Mn  Mn134  1  0.10774758  0.41672454  0.12282593  1
  Mn  Mn135  1  0.60750045  0.74970443  0.12305456  1
  Mn  Mn136  1  0.89269502  0.91755190  0.87651323  1
  Mn  Mn137  1  0.10816317  0.74895375  0.37267546  1
  Mn  Mn138  1  0.39207975  0.25020971  0.87733016  1
  Mn  Mn139  1  0.85795666  0.08439987  0.25267209  1
  Mn  Mn140  1  0.60693085  0.74995938  0.37241618  1
  Mn  Mn141  1  0.39134145  0.91630276  0.12738508  1
  Mn  Mn142  1  0.64190688  0.91660338  0.49687671  1
  Mn  Mn143  1  0.39206242  0.91765471  0.62794947  1
  Fe  Fe144  1  0.35757559  0.41678273  0.75206588  1
  Fe  Fe145  1  0.85778506  0.41686851  0.00099160  1
  Fe  Fe146  1  0.35648482  0.74939970  0.25123556  1
  Fe  Fe147  1  0.10778219  0.75006839  0.12328972  1
  Fe  Fe148  1  0.14318561  0.58278040  0.74828999  1
  Fe  Fe149  1  0.39314758  0.24973609  0.37624343  1
  Fe  Fe150  1  0.64337892  0.58303428  0.24808991  1
  Fe  Fe151  1  0.10854095  0.08358283  0.87212295  1
  Fe  Fe152  1  0.89293586  0.91659347  0.37701074  1
  Fe  Fe153  1  0.10711088  0.41682267  0.37356125  1
  Fe  Fe154  1  0.85639995  0.41675355  0.75197962  1
  Fe  Fe155  1  0.10851584  0.08364427  0.62330515  1
  Fe  Fe156  1  0.39319571  0.24995617  0.62659266  1
  Fe  Fe157  1  0.14307151  0.25073400  0.24925886  1
  Fe  Fe158  1  0.89215085  0.58310999  0.62788956  1
  Fe  Fe159  1  0.60653134  0.08410520  0.62360070  1
  Fe  Fe160  1  0.39146482  0.58366723  0.12724343  1
  Fe  Fe161  1  0.85880623  0.74960389  0.00179548  1
  Fe  Fe162  1  0.35657915  0.41695412  0.25222710  1
  Fe  Fe163  1  0.89301353  0.58317529  0.37585167  1
  Fe  Fe164  1  0.10712156  0.74986674  0.87239619  1
  Fe  Fe165  1  0.60711546  0.41723248  0.87355156  1
  Fe  Fe166  1  0.39273592  0.91622471  0.87568384  1
  Fe  Fe167  1  0.85657565  0.41562200  0.50140167  1
  Fe  Fe168  1  0.14235261  0.58290064  0.24814398  1
  Fe  Fe169  1  0.35719184  0.74952635  0.50167098  1
  Fe  Fe170  1  0.10785420  0.41639370  0.87258101  1
  Fe  Fe171  1  0.85700322  0.41623530  0.25245775  1
  Fe  Fe172  1  0.89368464  0.58345848  0.12657328  1
  Fe  Fe173  1  0.60711964  0.08307225  0.87305247  1
  Fe  Fe174  1  0.10779159  0.08302395  0.12377890  1
  Fe  Fe175  1  0.39260827  0.58368903  0.87620518  1
  Fe  Fe176  1  0.64213932  0.91541914  0.74877677  1
  Fe  Fe177  1  0.14275409  0.58223312  0.99805078  1
  Fe  Fe178  1  0.35778159  0.41770537  0.50136542  1
  Fe  Fe179  1  0.60693150  0.41649823  0.37283252  1
  Fe  Fe180  1  0.14332468  0.91607137  0.49802686  1
  Fe  Fe181  1  0.35709319  0.41693834  0.00093826  1
  Fe  Fe182  1  0.85723463  0.74991873  0.75133355  1
  Fe  Fe183  1  0.14320455  0.91677848  0.74866878  1
  Fe  Fe184  1  0.60648290  0.08348828  0.37313743  1
  Fe  Fe185  1  0.39209458  0.91733534  0.37695476  1
  Fe  Fe186  1  0.35706509  0.08351755  0.75172686  1
  Fe  Fe187  1  0.60690103  0.41596751  0.62310944  1
  Fe  Fe188  1  0.64204443  0.25101529  0.24847932  1
  Fe  Fe189  1  0.64117148  0.25081866  0.49820573  1
  Fe  Fe190  1  0.64281341  0.58377928  0.74862196  1
  Fe  Fe191  1  0.14356908  0.25047724  0.74769959  1
  P  P192  1  0.05479533  0.24977361  0.11154911  1
  P  P193  1  0.05393096  0.25174971  0.35968952  1
  P  P194  1  0.05510787  0.24979548  0.61100086  1
  P  P195  1  0.05478906  0.25095814  0.85886696  1
  P  P196  1  0.05462053  0.58359446  0.11029456  1
  P  P197  1  0.05278537  0.58175435  0.35951569  1
  P  P198  1  0.05295322  0.58288693  0.61144200  1
  P  P199  1  0.05569643  0.58237000  0.86067491  1
  P  P200  1  0.05396910  0.91641854  0.11010213  1
  P  P201  1  0.05359973  0.91610309  0.36149313  1
  P  P202  1  0.05627411  0.91739101  0.61068591  1
  P  P203  1  0.05428210  0.91658101  0.85890801  1
  P  P204  1  0.55411866  0.25073487  0.11096442  1
  P  P205  1  0.55371291  0.25075906  0.36067109  1
  P  P206  1  0.55253967  0.25059933  0.60956958  1
  P  P207  1  0.55322909  0.25088759  0.86048519  1
  P  P208  1  0.55266214  0.58334465  0.11116962  1
  P  P209  1  0.55387142  0.58212422  0.35927200  1
  P  P210  1  0.55494212  0.58231339  0.61096930  1
  P  P211  1  0.55276268  0.58266510  0.85967695  1
  P  P212  1  0.55274806  0.91589422  0.10972717  1
  P  P213  1  0.55132311  0.91710323  0.36012740  1
  P  P214  1  0.55461311  0.91714380  0.61119445  1
  P  P215  1  0.55264004  0.91633027  0.85945228  1
  P  P216  1  0.44658198  0.08358108  0.14017339  1
  P  P217  1  0.44744856  0.08371902  0.38980408  1
  P  P218  1  0.44713343  0.08462876  0.64081954  1
  P  P219  1  0.44636092  0.08249252  0.88838688  1
  P  P220  1  0.44378935  0.41779858  0.13959170  1
  P  P221  1  0.44569204  0.41632783  0.38891666  1
  P  P222  1  0.44582071  0.41586782  0.63928249  1
  P  P223  1  0.44585145  0.41791727  0.88933543  1
  P  P224  1  0.44519481  0.74865335  0.14077143  1
  P  P225  1  0.44418037  0.75033289  0.38955156  1
  P  P226  1  0.44528518  0.74976405  0.63910748  1
  P  P227  1  0.44668274  0.74961573  0.88966147  1
  P  P228  1  0.94844781  0.08343272  0.14037224  1
  P  P229  1  0.94689540  0.08316115  0.39071271  1
  P  P230  1  0.94833714  0.08354718  0.64015840  1
  P  P231  1  0.94913601  0.08353302  0.88953621  1
  P  P232  1  0.94439464  0.41747663  0.13916263  1
  P  P233  1  0.94582660  0.41712264  0.38946321  1
  P  P234  1  0.94408097  0.41694722  0.63951977  1
  P  P235  1  0.94668211  0.41639417  0.88902750  1
  P  P236  1  0.94736608  0.74891176  0.13852315  1
  P  P237  1  0.94736203  0.74929338  0.39006235  1
  P  P238  1  0.94599741  0.74907740  0.64106459  1
  P  P239  1  0.94629263  0.75000509  0.88872105  1
  P  P240  1  0.19630946  0.08447900  0.23464172  1
  P  P241  1  0.19603675  0.08270954  0.48632122  1
  P  P242  1  0.19648434  0.08365339  0.73540515  1
  P  P243  1  0.19471858  0.08373990  0.98507645  1
  P  P244  1  0.19624664  0.41666210  0.23680300  1
  P  P245  1  0.19745702  0.41718047  0.48441008  1
  P  P246  1  0.19693321  0.41686925  0.73607461  1
  P  P247  1  0.19718457  0.41749578  0.98376568  1
  P  P248  1  0.19697593  0.74916623  0.23428303  1
  P  P249  1  0.19783563  0.75029457  0.48523789  1
  P  P250  1  0.19525325  0.74961691  0.73672640  1
  P  P251  1  0.19411342  0.74863294  0.98536893  1
  P  P252  1  0.69496478  0.08409457  0.23666240  1
  P  P253  1  0.69358315  0.08479451  0.48575258  1
  P  P254  1  0.69414968  0.08230063  0.73547451  1
  P  P255  1  0.69619647  0.08323385  0.98408441  1
  P  P256  1  0.69610743  0.41709027  0.23651675  1
  P  P257  1  0.69518476  0.41583374  0.48553805  1
  P  P258  1  0.69511728  0.41799155  0.73564771  1
  P  P259  1  0.69740107  0.41756339  0.98469921  1
  P  P260  1  0.69706699  0.74867790  0.23520989  1
  P  P261  1  0.69707979  0.74965225  0.48425404  1
  P  P262  1  0.69787940  0.74935693  0.73496388  1
  P  P263  1  0.69892667  0.74923410  0.98524286  1
  P  P264  1  0.30318675  0.25129349  0.01463235  1
  P  P265  1  0.30276328  0.25070667  0.26581582  1
  P  P266  1  0.30620402  0.25121091  0.51428276  1
  P  P267  1  0.30407617  0.24986794  0.76315755  1
  P  P268  1  0.30393225  0.58230562  0.01399989  1
  P  P269  1  0.30281021  0.58344354  0.26356448  1
  P  P270  1  0.30331072  0.58320131  0.51483028  1
  P  P271  1  0.30303069  0.58250522  0.76575101  1
  P  P272  1  0.30433700  0.91658594  0.01327772  1
  P  P273  1  0.30344479  0.91586725  0.26545696  1
  P  P274  1  0.30380913  0.91595279  0.51431524  1
  P  P275  1  0.30253096  0.91771528  0.76563985  1
  P  P276  1  0.80365987  0.25072685  0.01480342  1
  P  P277  1  0.80174882  0.25093523  0.26545849  1
  P  P278  1  0.80100892  0.25082780  0.51532509  1
  P  P279  1  0.80290718  0.25079910  0.76485259  1
  P  P280  1  0.80497707  0.58290401  0.01539830  1
  P  P281  1  0.80472853  0.58224406  0.26428007  1
  P  P282  1  0.80591319  0.58166703  0.51404510  1
  P  P283  1  0.80358838  0.58308683  0.76355909  1
  P  P284  1  0.80380764  0.91616560  0.01500552  1
  P  P285  1  0.80429069  0.91700194  0.26615649  1
  P  P286  1  0.80471444  0.91720298  0.51423158  1
  P  P287  1  0.80199276  0.91625668  0.76462083  1
  O  O288  1  0.05919077  0.25102129  0.18817441  1
  O  O289  1  0.05717258  0.25135336  0.43649418  1
  O  O290  1  0.05980420  0.25062866  0.68770045  1
  O  O291  1  0.05691791  0.25151929  0.93576122  1
  O  O292  1  0.05926748  0.58254634  0.18702276  1
  O  O293  1  0.05604031  0.58228177  0.43629005  1
  O  O294  1  0.05864948  0.58266906  0.68801982  1
  O  O295  1  0.05910942  0.58191700  0.93750050  1
  O  O296  1  0.05648540  0.91618229  0.18691268  1
  O  O297  1  0.05873116  0.91585008  0.43815667  1
  O  O298  1  0.06060400  0.91664907  0.68745488  1
  O  O299  1  0.05650486  0.91651200  0.93575074  1
  O  O300  1  0.55838213  0.25120797  0.18775726  1
  O  O301  1  0.55755700  0.25128173  0.43740782  1
  O  O302  1  0.55585850  0.25102033  0.68665400  1
  O  O303  1  0.55593192  0.25116427  0.93719302  1
  O  O304  1  0.55842239  0.58322310  0.18770651  1
  O  O305  1  0.55709418  0.58268364  0.43614202  1
  O  O306  1  0.55906049  0.58335529  0.68767913  1
  O  O307  1  0.55637677  0.58314951  0.93640531  1
  O  O308  1  0.55623983  0.91566292  0.18649385  1
  O  O309  1  0.55525178  0.91637659  0.43686887  1
  O  O310  1  0.55889964  0.91567292  0.68790473  1
  O  O311  1  0.55609291  0.91551884  0.93617960  1
  O  O312  1  0.44331679  0.08394673  0.06334823  1
  O  O313  1  0.44380707  0.08358172  0.31321853  1
  O  O314  1  0.44378261  0.08368806  0.56401329  1
  O  O315  1  0.44134400  0.08334771  0.81175114  1
  O  O316  1  0.43995830  0.41720174  0.06280140  1
  O  O317  1  0.44061885  0.41720219  0.31223029  1
  O  O318  1  0.44139971  0.41721063  0.56259735  1
  O  O319  1  0.44115141  0.41709167  0.81255300  1
  O  O320  1  0.44214952  0.74885624  0.06401809  1
  O  O321  1  0.43996380  0.74931207  0.31279412  1
  O  O322  1  0.44071066  0.74960407  0.56234599  1
  O  O323  1  0.44398320  0.74955940  0.81283507  1
  O  O324  1  0.94473495  0.08401920  0.06366160  1
  O  O325  1  0.94377424  0.08398333  0.31391766  1
  O  O326  1  0.94361097  0.08387442  0.56351587  1
  O  O327  1  0.94441397  0.08341189  0.81292157  1
  O  O328  1  0.94080485  0.41655435  0.06256669  1
  O  O329  1  0.94122803  0.41604815  0.31270741  1
  O  O330  1  0.94001441  0.41585107  0.56275138  1
  O  O331  1  0.94124839  0.41672847  0.81237774  1
  O  O332  1  0.94294095  0.74933831  0.06178523  1
  O  O333  1  0.94507496  0.74950470  0.31321547  1
  O  O334  1  0.94321481  0.74966282  0.56424976  1
  O  O335  1  0.94086662  0.74989543  0.81208902  1
  O  O336  1  0.19057365  0.08338952  0.06185684  1
  O  O337  1  0.19382218  0.08362756  0.31151638  1
  O  O338  1  0.19230469  0.08348969  0.56306970  1
  O  O339  1  0.19222123  0.08380176  0.81220447  1
  O  O340  1  0.19346611  0.41684879  0.06121662  1
  O  O341  1  0.19166519  0.41695542  0.31304730  1
  O  O342  1  0.19345821  0.41695814  0.56120059  1
  O  O343  1  0.19239072  0.41670978  0.81254696  1
  O  O344  1  0.19052542  0.74972203  0.06220313  1
  O  O345  1  0.19377354  0.74964490  0.31102910  1
  O  O346  1  0.19400963  0.74962195  0.56197646  1
  O  O347  1  0.19141309  0.74966677  0.81348132  1
  O  O348  1  0.69339555  0.08323065  0.06094361  1
  O  O349  1  0.69031260  0.08319201  0.31345090  1
  O  O350  1  0.68941312  0.08401693  0.56255375  1
  O  O351  1  0.68994909  0.08314808  0.81225622  1
  O  O352  1  0.69331954  0.41763619  0.06137869  1
  O  O353  1  0.69143241  0.41702331  0.31323149  1
  O  O354  1  0.69063973  0.41628856  0.56222417  1
  O  O355  1  0.69045047  0.41723000  0.81232385  1
  O  O356  1  0.69448669  0.74926483  0.06185991  1
  O  O357  1  0.69336519  0.74925032  0.31196493  1
  O  O358  1  0.69373210  0.74990351  0.56102664  1
  O  O359  1  0.69458985  0.74921213  0.81170632  1
  O  O360  1  0.30585931  0.24994695  0.18899714  1
  O  O361  1  0.31030452  0.24996272  0.43755330  1
  O  O362  1  0.30877669  0.24983463  0.68646940  1
  O  O363  1  0.30626531  0.25038095  0.93787573  1
  O  O364  1  0.30683251  0.58329034  0.18672374  1
  O  O365  1  0.30594862  0.58300039  0.43828268  1
  O  O366  1  0.30691299  0.58297241  0.68897953  1
  O  O367  1  0.30872393  0.58331334  0.93740724  1
  O  O368  1  0.30575926  0.91689864  0.18857868  1
  O  O369  1  0.30867097  0.91727138  0.43763948  1
  O  O370  1  0.30607496  0.91699699  0.68887538  1
  O  O371  1  0.30897489  0.91665260  0.93657119  1
  O  O372  1  0.80594386  0.25013884  0.18879307  1
  O  O373  1  0.80503150  0.24998701  0.43864941  1
  O  O374  1  0.80582059  0.24991369  0.68820272  1
  O  O375  1  0.80676505  0.24986695  0.93800962  1
  O  O376  1  0.80954789  0.58324191  0.18768857  1
  O  O377  1  0.80983490  0.58260912  0.43725950  1
  O  O378  1  0.80757356  0.58301966  0.68686599  1
  O  O379  1  0.80758704  0.58290865  0.93847000  1
  O  O380  1  0.80759327  0.91709441  0.18933360  1
  O  O381  1  0.80961542  0.91707311  0.43749770  1
  O  O382  1  0.80589117  0.91747306  0.68792146  1
  O  O383  1  0.80679890  0.91682937  0.93819717  1
  O  O384  1  0.23353032  0.25141583  0.03984222  1
  O  O385  1  0.23283380  0.25073869  0.29078399  1
  O  O386  1  0.23608874  0.25070807  0.53825464  1
  O  O387  1  0.23374113  0.25031713  0.78702376  1
  O  O388  1  0.23344291  0.58264873  0.03754902  1
  O  O389  1  0.23256668  0.58322399  0.28781538  1
  O  O390  1  0.23381427  0.58302394  0.54084608  1
  O  O391  1  0.23286670  0.58284934  0.78978213  1
  O  O392  1  0.23419235  0.91616137  0.03707037  1
  O  O393  1  0.23383837  0.91647207  0.29098048  1
  O  O394  1  0.23358383  0.91617422  0.53824962  1
  O  O395  1  0.23239443  0.91727763  0.79002579  1
  O  O396  1  0.73400552  0.25095976  0.04016335  1
  O  O397  1  0.73164823  0.25099902  0.28978739  1
  O  O398  1  0.73097473  0.25109700  0.53986529  1
  O  O399  1  0.73302922  0.25075966  0.78989552  1
  O  O400  1  0.73534292  0.58297914  0.04087336  1
  O  O401  1  0.73439624  0.58225691  0.28812359  1
  O  O402  1  0.73577304  0.58273197  0.53799926  1
  O  O403  1  0.73348139  0.58290084  0.78813184  1
  O  O404  1  0.73426013  0.91643601  0.04063876  1
  O  O405  1  0.73445370  0.91645508  0.29095299  1
  O  O406  1  0.73446934  0.91727265  0.53757569  1
  O  O407  1  0.73194651  0.91573308  0.78926564  1
  O  O408  1  0.26582575  0.08360909  0.20895896  1
  O  O409  1  0.26605681  0.08355108  0.46191894  1
  O  O410  1  0.26682231  0.08347250  0.71134138  1
  O  O411  1  0.26476302  0.08429274  0.96100914  1
  O  O412  1  0.26647914  0.41685945  0.21250506  1
  O  O413  1  0.26767549  0.41724265  0.46043800  1
  O  O414  1  0.26733318  0.41685879  0.71211035  1
  O  O415  1  0.26719632  0.41712087  0.95978625  1
  O  O416  1  0.26686824  0.74941873  0.20921639  1
  O  O417  1  0.26776025  0.74968108  0.46053478  1
  O  O418  1  0.26521051  0.74973664  0.71221614  1
  O  O419  1  0.26412832  0.74918598  0.96113287  1
  O  O420  1  0.76501629  0.08400356  0.21249385  1
  O  O421  1  0.76369838  0.08412125  0.46181342  1
  O  O422  1  0.76415341  0.08368182  0.71117148  1
  O  O423  1  0.76585551  0.08307242  0.95878129  1
  O  O424  1  0.76642266  0.41704779  0.21273116  1
  O  O425  1  0.76558034  0.41624052  0.46188760  1
  O  O426  1  0.76548877  0.41733149  0.71205614  1
  O  O427  1  0.76759711  0.41744180  0.96052187  1
  O  O428  1  0.76696289  0.74939416  0.21070073  1
  O  O429  1  0.76686500  0.74894516  0.45957602  1
  O  O430  1  0.76775738  0.74975777  0.70971811  1
  O  O431  1  0.76907607  0.74890999  0.96099842  1
  O  O432  1  0.01844248  0.08293098  0.16509005  1
  O  O433  1  0.01667447  0.08363857  0.41563497  1
  O  O434  1  0.01866316  0.08346028  0.66374923  1
  O  O435  1  0.01943580  0.08380229  0.91323097  1
  O  O436  1  0.01482353  0.41700469  0.16322602  1
  O  O437  1  0.01609560  0.41675815  0.41352907  1
  O  O438  1  0.01428633  0.41679670  0.66335049  1
  O  O439  1  0.01714871  0.41653818  0.91227750  1
  O  O440  1  0.01757520  0.74941444  0.16274459  1
  O  O441  1  0.01676942  0.74873180  0.41622864  1
  O  O442  1  0.01579103  0.74944260  0.66587237  1
  O  O443  1  0.01693667  0.74954577  0.91147117  1
  O  O444  1  0.51622662  0.08319578  0.16518847  1
  O  O445  1  0.51747358  0.08401224  0.41463662  1
  O  O446  1  0.51726561  0.08409111  0.66508555  1
  O  O447  1  0.51677913  0.08291509  0.91207449  1
  O  O448  1  0.51387351  0.41719916  0.16366640  1
  O  O449  1  0.51619214  0.41649200  0.41225186  1
  O  O450  1  0.51621602  0.41615226  0.66293043  1
  O  O451  1  0.51621466  0.41748235  0.91315125  1
  O  O452  1  0.51485863  0.74957116  0.16595384  1
  O  O453  1  0.51428541  0.74960285  0.41378145  1
  O  O454  1  0.51538539  0.74967598  0.66286382  1
  O  O455  1  0.51614239  0.74930229  0.91551613  1
  O  O456  1  0.48415651  0.25064068  0.08671055  1
  O  O457  1  0.48339059  0.25053810  0.33643045  1
  O  O458  1  0.48258370  0.25049477  0.58504131  1
  O  O459  1  0.48366867  0.25062431  0.83491062  1
  O  O460  1  0.48219735  0.58309757  0.08800719  1
  O  O461  1  0.48398946  0.58281966  0.33487460  1
  O  O462  1  0.48495280  0.58232545  0.58657206  1
  O  O463  1  0.48268421  0.58309416  0.83499176  1
  O  O464  1  0.48301418  0.91627479  0.08489114  1
  O  O465  1  0.48121443  0.91692763  0.33575965  1
  O  O466  1  0.48451054  0.91746158  0.58717530  1
  O  O467  1  0.48259459  0.91628763  0.83458498  1
  O  O468  1  0.98495878  0.25036873  0.08703403  1
  O  O469  1  0.98417838  0.25054498  0.33473788  1
  O  O470  1  0.98504135  0.25011277  0.58698529  1
  O  O471  1  0.98524283  0.25031808  0.83317008  1
  O  O472  1  0.98440774  0.58285363  0.08643470  1
  O  O473  1  0.98283506  0.58271173  0.33463287  1
  O  O474  1  0.98249521  0.58274200  0.58842032  1
  O  O475  1  0.98558624  0.58289471  0.83632646  1
  O  O476  1  0.98459370  0.91656755  0.08404976  1
  O  O477  1  0.98331793  0.91647728  0.33769760  1
  O  O478  1  0.98604510  0.91650610  0.58712356  1
  O  O479  1  0.98474532  0.91685675  0.83316450  1
  O  O480  1  0.08846367  0.31489102  0.07789927  1
  O  O481  1  0.08749064  0.31708835  0.32717577  1
  O  O482  1  0.08853051  0.31482721  0.57757912  1
  O  O483  1  0.08895085  0.31605247  0.82641433  1
  O  O484  1  0.08802520  0.64860677  0.07739689  1
  O  O485  1  0.08746620  0.64643037  0.32678221  1
  O  O486  1  0.08587307  0.64804064  0.57779325  1
  O  O487  1  0.08954672  0.64744291  0.82797455  1
  O  O488  1  0.08847892  0.98153718  0.07822685  1
  O  O489  1  0.08712056  0.98110973  0.32832213  1
  O  O490  1  0.08949562  0.98262311  0.57776374  1
  O  O491  1  0.08899535  0.98156188  0.82691888  1
  O  O492  1  0.58756041  0.31582858  0.07781539  1
  O  O493  1  0.58712195  0.31577467  0.32711945  1
  O  O494  1  0.58649762  0.31551533  0.57681808  1
  O  O495  1  0.58713815  0.31609505  0.82793849  1
  O  O496  1  0.58566273  0.64837416  0.07742062  1
  O  O497  1  0.58837787  0.64686904  0.32656031  1
  O  O498  1  0.58852677  0.64712166  0.57743493  1
  O  O499  1  0.58707052  0.64751809  0.82676081  1
  O  O500  1  0.58693264  0.98087758  0.07732652  1
  O  O501  1  0.58512503  0.98219175  0.32771729  1
  O  O502  1  0.58802623  0.98266316  0.57899174  1
  O  O503  1  0.58684940  0.98130958  0.82714725  1
  O  O504  1  0.41219868  0.01860008  0.17231875  1
  O  O505  1  0.41371555  0.01871206  0.42290909  1
  O  O506  1  0.41286677  0.01994822  0.67383833  1
  O  O507  1  0.41330665  0.01723189  0.92135773  1
  O  O508  1  0.40985456  0.35301571  0.17298901  1
  O  O509  1  0.41242647  0.35123581  0.42196594  1
  O  O510  1  0.41253631  0.35062599  0.67222529  1
  O  O511  1  0.41209009  0.35313713  0.92283072  1
  O  O512  1  0.41127341  0.68344486  0.17335165  1
  O  O513  1  0.41028203  0.68548693  0.42285360  1
  O  O514  1  0.41183636  0.68474887  0.67234897  1
  O  O515  1  0.41218453  0.68449336  0.92170486  1
  O  O516  1  0.91430927  0.01844329  0.17271686  1
  O  O517  1  0.91306685  0.01796741  0.42288555  1
  O  O518  1  0.91492637  0.01841845  0.67321698  1
  O  O519  1  0.91574311  0.01842973  0.92261788  1
  O  O520  1  0.91056422  0.35291072  0.17298872  1
  O  O521  1  0.91193780  0.35242892  0.42323317  1
  O  O522  1  0.91036642  0.35218291  0.67305163  1
  O  O523  1  0.91337638  0.35144021  0.92247280  1
  O  O524  1  0.91425252  0.68363232  0.17162870  1
  O  O525  1  0.91282767  0.68397511  0.42155577  1
  O  O526  1  0.91187733  0.68400963  0.67337945  1
  O  O527  1  0.91315407  0.68498542  0.92242020  1
  O  O528  1  0.16143105  0.01973461  0.20221742  1
  O  O529  1  0.16288495  0.01736523  0.45356024  1
  O  O530  1  0.16291228  0.01850994  0.70257754  1
  O  O531  1  0.16137620  0.01863695  0.95176333  1
  O  O532  1  0.16313592  0.35137614  0.20322457  1
  O  O533  1  0.16366970  0.35225320  0.45144517  1
  O  O534  1  0.16373376  0.35192586  0.70234188  1
  O  O535  1  0.16311546  0.35281176  0.95106674  1
  O  O536  1  0.16271119  0.68412561  0.20198379  1
  O  O537  1  0.16381329  0.68526698  0.45248272  1
  O  O538  1  0.16182413  0.68431869  0.70376972  1
  O  O539  1  0.16070478  0.68325119  0.95301723  1
  O  O540  1  0.66167525  0.01892667  0.20335020  1
  O  O541  1  0.65957806  0.02012399  0.45216978  1
  O  O542  1  0.66109683  0.01691639  0.70280830  1
  O  O543  1  0.66153337  0.01833387  0.95186194  1
  O  O544  1  0.66271351  0.35207650  0.20323124  1
  O  O545  1  0.66171927  0.35080753  0.45231761  1
  O  O546  1  0.66141559  0.35303711  0.70195998  1
  O  O547  1  0.66336303  0.35271353  0.95173346  1
  O  O548  1  0.66366234  0.68321656  0.20270159  1
  O  O549  1  0.66274693  0.68470280  0.45203777  1
  O  O550  1  0.66413772  0.68410617  0.70239396  1
  O  O551  1  0.66508554  0.68425478  0.95230317  1
  O  O552  1  0.33729159  0.31651219  0.04651915  1
  O  O553  1  0.33713157  0.31573495  0.29790451  1
  O  O554  1  0.33941757  0.31669092  0.54680388  1
  O  O555  1  0.33759027  0.31488911  0.79638197  1
  O  O556  1  0.33733613  0.64711168  0.04787490  1
  O  O557  1  0.33608114  0.64859419  0.29651806  1
  O  O558  1  0.33754195  0.64828058  0.54722034  1
  O  O559  1  0.33689124  0.64736036  0.79889939  1
  O  O560  1  0.33731950  0.98174769  0.04660868  1
  O  O561  1  0.33815327  0.98057337  0.29821513  1
  O  O562  1  0.33713628  0.98100997  0.54801310  1
  O  O563  1  0.33638350  0.98288005  0.79792447  1
  O  O564  1  0.83781580  0.31595974  0.04666426  1
  O  O565  1  0.83558286  0.31606016  0.29803143  1
  O  O566  1  0.83523742  0.31586793  0.54749171  1
  O  O567  1  0.83679406  0.31615047  0.79686509  1
  O  O568  1  0.83957694  0.64788185  0.04758987  1
  O  O569  1  0.83833077  0.64706822  0.29798146  1
  O  O570  1  0.84019229  0.64615540  0.54756697  1
  O  O571  1  0.83720103  0.64811944  0.79659690  1
  O  O572  1  0.83801468  0.98128727  0.04737552  1
  O  O573  1  0.83823374  0.98204107  0.29878207  1
  O  O574  1  0.83793045  0.98220935  0.54772745  1
  O  O575  1  0.83547506  0.98138326  0.79785101  1
  O  O576  1  0.41281790  0.14867961  0.17294560  1
  O  O577  1  0.41368200  0.14889983  0.42240522  1
  O  O578  1  0.41353590  0.14993145  0.67312280  1
  O  O579  1  0.41314751  0.14752694  0.92206748  1
  O  O580  1  0.41024279  0.48294581  0.17254684  1
  O  O581  1  0.41246973  0.48121258  0.42283463  1
  O  O582  1  0.41221162  0.48050781  0.67330206  1
  O  O583  1  0.41255652  0.48314258  0.92224682  1
  O  O584  1  0.41030307  0.81339088  0.17309785  1
  O  O585  1  0.41089679  0.81569308  0.42231669  1
  O  O586  1  0.41184534  0.81484401  0.67224289  1
  O  O587  1  0.41233871  0.81478859  0.92156342  1
  O  O588  1  0.91481082  0.14848903  0.17350056  1
  O  O589  1  0.91278797  0.14833504  0.42326089  1
  O  O590  1  0.91477119  0.14846868  0.67335016  1
  O  O591  1  0.91559799  0.14854850  0.92264705  1
  O  O592  1  0.91137684  0.48286490  0.17202221  1
  O  O593  1  0.91245961  0.48246305  0.42202541  1
  O  O594  1  0.91062340  0.48216287  0.67247773  1
  O  O595  1  0.91330111  0.48138386  0.92260392  1
  O  O596  1  0.91364878  0.81369682  0.17186639  1
  O  O597  1  0.91321640  0.81440620  0.42233625  1
  O  O598  1  0.91175578  0.81410927  0.67356573  1
  O  O599  1  0.91344763  0.81508232  0.92235388  1
  O  O600  1  0.08830608  0.18456304  0.07900852  1
  O  O601  1  0.08901675  0.18713029  0.32735175  1
  O  O602  1  0.08868759  0.18464273  0.57825716  1
  O  O603  1  0.08970163  0.18596688  0.82711852  1
  O  O604  1  0.08842796  0.51856161  0.07673178  1
  O  O605  1  0.08636952  0.51652246  0.32686928  1
  O  O606  1  0.08607319  0.51803584  0.57757283  1
  O  O607  1  0.08903875  0.51732906  0.82732034  1
  O  O608  1  0.08817034  0.85129020  0.07780763  1
  O  O609  1  0.08663435  0.85099650  0.32795711  1
  O  O610  1  0.09008164  0.85249607  0.57725066  1
  O  O611  1  0.08853975  0.85140882  0.82680388  1
  O  O612  1  0.58783307  0.18563984  0.07827810  1
  O  O613  1  0.58740343  0.18567680  0.32793091  1
  O  O614  1  0.58651879  0.18549080  0.57748101  1
  O  O615  1  0.58754151  0.18579369  0.82831400  1
  O  O616  1  0.58582530  0.51839632  0.07741471  1
  O  O617  1  0.58754713  0.51680976  0.32684873  1
  O  O618  1  0.58838555  0.51689017  0.57847925  1
  O  O619  1  0.58665987  0.51758646  0.82705036  1
  O  O620  1  0.58647162  0.85071544  0.07700490  1
  O  O621  1  0.58499237  0.85201907  0.32714816  1
  O  O622  1  0.58792465  0.85234145  0.57729393  1
  O  O623  1  0.58662797  0.85125661  0.82657427  1
  O  O624  1  0.33712366  0.18628021  0.04739149  1
  O  O625  1  0.33687235  0.18577918  0.29866173  1
  O  O626  1  0.34006990  0.18651037  0.54799467  1
  O  O627  1  0.33692868  0.18467330  0.79670471  1
  O  O628  1  0.33702677  0.51711626  0.04716198  1
  O  O629  1  0.33648738  0.51862430  0.29683374  1
  O  O630  1  0.33773295  0.51799116  0.54705742  1
  O  O631  1  0.33687705  0.51744122  0.79829978  1
  O  O632  1  0.33766779  0.85144363  0.04632594  1
  O  O633  1  0.33736370  0.85036724  0.29702138  1
  O  O634  1  0.33703707  0.85073963  0.54718986  1
  O  O635  1  0.33660663  0.85284863  0.79860146  1
  O  O636  1  0.83750842  0.18555106  0.04757094  1
  O  O637  1  0.83537780  0.18598607  0.29869761  1
  O  O638  1  0.83466546  0.18581663  0.54854060  1
  O  O639  1  0.83691250  0.18582704  0.79760397  1
  O  O640  1  0.83924831  0.51781287  0.04745265  1
  O  O641  1  0.83820796  0.51715294  0.29746319  1
  O  O642  1  0.83865348  0.51606378  0.54683077  1
  O  O643  1  0.83730178  0.51806307  0.79672239  1
  O  O644  1  0.83797182  0.85080581  0.04689026  1
  O  O645  1  0.83888619  0.85197142  0.29830120  1
  O  O646  1  0.83797685  0.85198726  0.54735389  1
  O  O647  1  0.83624138  0.85120297  0.79672466  1
  O  O648  1  0.16239786  0.14999050  0.20298531  1
  O  O649  1  0.16219891  0.14761879  0.45328923  1
  O  O650  1  0.16305439  0.14872599  0.70213467  1
  O  O651  1  0.16084759  0.14864995  0.95212077  1
  O  O652  1  0.16273810  0.48153534  0.20285313  1
  O  O653  1  0.16342506  0.48208657  0.45170161  1
  O  O654  1  0.16363604  0.48210634  0.70280599  1
  O  O655  1  0.16330654  0.48248521  0.95168397  1
  O  O656  1  0.16278207  0.81418925  0.20166054  1
  O  O657  1  0.16430225  0.81542205  0.45251547  1
  O  O658  1  0.16183971  0.81482114  0.70385637  1
  O  O659  1  0.16004124  0.81329457  0.95198950  1
  O  O660  1  0.66155266  0.14950188  0.20413709  1
  O  O661  1  0.66030426  0.15028282  0.45323115  1
  O  O662  1  0.65963687  0.14716831  0.70242328  1
  O  O663  1  0.66181468  0.14831898  0.95187794  1
  O  O664  1  0.66296082  0.48227678  0.20305755  1
  O  O665  1  0.66173376  0.48067091  0.45183566  1
  O  O666  1  0.66198022  0.48305008  0.70239100  1
  O  O667  1  0.66361848  0.48258064  0.95175829  1
  O  O668  1  0.66291507  0.81366864  0.20263577  1
  O  O669  1  0.66337438  0.81483258  0.45164580  1
  O  O670  1  0.66354929  0.81433212  0.70259868  1
  O  O671  1  0.66527627  0.81424592  0.95218689  1
