# generated using pymatgen
data_Na2MnFe(PO4)2
_symmetry_space_group_name_H-M   'P 1'
_cell_length_a   21.08679884
_cell_length_b   18.93913009
_cell_length_c   20.04540150
_cell_angle_alpha   90.00012375
_cell_angle_beta   90.00056205
_cell_angle_gamma   89.99861540
_symmetry_Int_Tables_number   1
_chemical_formula_structural   Na2MnFe(PO4)2
_chemical_formula_sum   'Na96 Mn48 Fe48 P96 O384'
_cell_volume   8005.44432441
_cell_formula_units_Z   48
loop_
 _symmetry_equiv_pos_site_id
 _symmetry_equiv_pos_as_xyz
  1  'x, y, z'
loop_
 _atom_site_type_symbol
 _atom_site_label
 _atom_site_symmetry_multiplicity
 _atom_site_fract_x
 _atom_site_fract_y
 _atom_site_fract_z
 _atom_site_occupancy
  Na  Na0  1  -0.00031758  -0.00068285  0.00045602  1
  Na  Na1  1  0.00120554  0.00082976  0.24992954  1
  Na  Na2  1  0.00104629  0.00074360  0.49990541  1
  Na  Na3  1  0.00100596  0.00031598  0.75002427  1
  Na  Na4  1  0.00037167  0.33237662  -0.00006889  1
  Na  Na5  1  0.00175645  0.33336050  0.25014666  1
  Na  Na6  1  0.00317243  0.33355678  0.50076540  1
  Na  Na7  1  0.00256316  0.33335498  0.75074201  1
  Na  Na8  1  0.00051208  0.66708896  -0.00048455  1
  Na  Na9  1  -0.00211011  0.66608206  0.24984177  1
  Na  Na10  1  -0.00269629  0.66569682  0.49962398  1
  Na  Na11  1  -0.00030225  0.66689246  0.75025662  1
  Na  Na12  1  0.49863467  0.00039344  -0.00028522  1
  Na  Na13  1  0.49655239  -0.00027743  0.24951864  1
  Na  Na14  1  0.49857780  0.00033777  0.50067359  1
  Na  Na15  1  0.50016264  0.00083587  0.74967856  1
  Na  Na16  1  0.49981973  0.33387891  -0.00123410  1
  Na  Na17  1  0.50111612  0.33413600  0.24974584  1
  Na  Na18  1  0.49964621  0.33335810  0.50019446  1
  Na  Na19  1  0.49797270  0.33256979  0.75017799  1
  Na  Na20  1  0.50055582  0.66648107  -0.00057767  1
  Na  Na21  1  0.49723358  0.66553903  0.25048702  1
  Na  Na22  1  0.49833472  0.66649546  0.50036417  1
  Na  Na23  1  0.50113352  0.66709223  0.74992506  1
  Na  Na24  1  0.25125340  0.00082038  0.12579452  1
  Na  Na25  1  0.25137743  0.00078039  0.37592715  1
  Na  Na26  1  0.25061315  0.00035892  0.62488872  1
  Na  Na27  1  0.25157870  0.00105615  0.87481237  1
  Na  Na28  1  0.24991261  0.33361090  0.12625537  1
  Na  Na29  1  0.24807476  0.33267357  0.37490782  1
  Na  Na30  1  0.25002337  0.33377989  0.62463272  1
  Na  Na31  1  0.24937897  0.33293507  0.87430946  1
  Na  Na32  1  0.25103105  0.66678530  0.12434205  1
  Na  Na33  1  0.25270135  0.66730529  0.37416341  1
  Na  Na34  1  0.25166141  0.66694747  0.62499816  1
  Na  Na35  1  0.24911940  0.66630033  0.87582923  1
  Na  Na36  1  0.74991494  -0.00018225  0.12381789  1
  Na  Na37  1  0.74971530  0.00030217  0.37602092  1
  Na  Na38  1  0.74914330  0.00009176  0.62461319  1
  Na  Na39  1  0.74909843  -0.00025849  0.87445363  1
  Na  Na40  1  0.74960024  0.33330132  0.12639508  1
  Na  Na41  1  0.74897241  0.33254466  0.37418192  1
  Na  Na42  1  0.74889186  0.33280267  0.62426418  1
  Na  Na43  1  0.74961354  0.33347093  0.87595181  1
  Na  Na44  1  0.75158733  0.66679672  0.12558903  1
  Na  Na45  1  0.75354774  0.66735715  0.37567501  1
  Na  Na46  1  0.74956181  0.66617170  0.62498802  1
  Na  Na47  1  0.74867690  0.66617746  0.87385467  1
  Na  Na48  1  0.00242891  0.16668098  -0.00019565  1
  Na  Na49  1  0.00052463  0.16821148  0.25035337  1
  Na  Na50  1  0.00356007  0.16693861  0.50098444  1
  Na  Na51  1  0.00363698  0.16643592  0.75040726  1
  Na  Na52  1  0.00012297  0.50028562  -0.00022405  1
  Na  Na53  1  -0.00111424  0.50065332  0.24937969  1
  Na  Na54  1  0.00018321  0.49982038  0.50001622  1
  Na  Na55  1  0.00109378  0.50040895  0.75099651  1
  Na  Na56  1  -0.00072130  0.83252892  0.00061024  1
  Na  Na57  1  -0.00029066  0.83248856  0.24982571  1
  Na  Na58  1  -0.00229110  0.83364921  0.49942140  1
  Na  Na59  1  -0.00246911  0.83355122  0.74932424  1
  Na  Na60  1  0.49882255  0.16667098  -0.00066857  1
  Na  Na61  1  0.49791768  0.16730844  0.25038768  1
  Na  Na62  1  0.49871389  0.16638645  0.49908393  1
  Na  Na63  1  0.49881921  0.16659877  0.75052662  1
  Na  Na64  1  0.49954618  0.50006423  -0.00111865  1
  Na  Na65  1  0.49955156  0.49982986  0.24910923  1
  Na  Na66  1  0.49882608  0.50022268  0.50152969  1
  Na  Na67  1  0.49854109  0.50010161  0.74996909  1
  Na  Na68  1  0.50108819  0.83239469  -0.00061605  1
  Na  Na69  1  0.49745905  0.83343884  0.25024025  1
  Na  Na70  1  0.49819580  0.83375618  0.50047640  1
  Na  Na71  1  0.50208410  0.83223326  0.74939952  1
  Na  Na72  1  0.25153159  0.16610934  0.12594491  1
  Na  Na73  1  0.24989367  0.16651408  0.37523795  1
  Na  Na74  1  0.24853473  0.16679123  0.62535635  1
  Na  Na75  1  0.24818362  0.16748756  0.87392260  1
  Na  Na76  1  0.25082967  0.50048396  0.12599562  1
  Na  Na77  1  0.25120163  0.49976031  0.37473375  1
  Na  Na78  1  0.25187664  0.49989378  0.62429343  1
  Na  Na79  1  0.25344695  0.49920241  0.87535545  1
  Na  Na80  1  0.24947591  0.83294676  0.12424835  1
  Na  Na81  1  0.25202735  0.83202770  0.37478184  1
  Na  Na82  1  0.25174458  0.83209373  0.62488069  1
  Na  Na83  1  0.24905507  0.83261624  0.87561436  1
  Na  Na84  1  0.75052691  0.16728266  0.12585774  1
  Na  Na85  1  0.75051082  0.16697345  0.37524338  1
  Na  Na86  1  0.74820898  0.16758357  0.62407964  1
  Na  Na87  1  0.74923935  0.16727850  0.87480477  1
  Na  Na88  1  0.74924472  0.50002555  0.12600299  1
  Na  Na89  1  0.75003155  0.49994302  0.37427765  1
  Na  Na90  1  0.74994262  0.49999288  0.62384883  1
  Na  Na91  1  0.74753294  0.50095674  0.87545368  1
  Na  Na92  1  0.75131625  0.83265614  0.12396144  1
  Na  Na93  1  0.75250472  0.83219190  0.37622712  1
  Na  Na94  1  0.74974688  0.83338054  0.62597157  1
  Na  Na95  1  0.74942156  0.83363231  0.87403566  1
  Mn  Mn96  1  0.64217690  0.91683585  0.49737473  1
  Mn  Mn97  1  0.14239308  0.58383556  0.24789777  1
  Mn  Mn98  1  0.60703529  0.41682062  0.87256179  1
  Mn  Mn99  1  0.89353987  0.25024288  0.62721779  1
  Mn  Mn100  1  0.89177505  0.58369563  0.87757923  1
  Mn  Mn101  1  0.10754657  0.74981055  0.62268438  1
  Mn  Mn102  1  0.89328397  0.24946018  0.87711904  1
  Mn  Mn103  1  0.39247420  0.91583710  0.87682688  1
  Mn  Mn104  1  0.39146536  0.91627084  0.12718476  1
  Mn  Mn105  1  0.85808709  0.08392203  0.75171158  1
  Mn  Mn106  1  0.60797869  0.74937480  0.12323887  1
  Mn  Mn107  1  0.60700440  0.41588922  0.62255515  1
  Mn  Mn108  1  0.64222755  0.91651675  0.99752121  1
  Mn  Mn109  1  0.10912651  0.41723836  0.87314077  1
  Mn  Mn110  1  0.39233425  0.91708923  0.62805638  1
  Mn  Mn111  1  0.14294666  0.91631263  0.24823718  1
  Mn  Mn112  1  0.64130172  0.24989186  0.74714615  1
  Mn  Mn113  1  0.35808409  0.41663948  0.25269227  1
  Mn  Mn114  1  0.39163812  0.25063737  0.37790108  1
  Mn  Mn115  1  0.39239523  0.58313702  0.62785680  1
  Mn  Mn116  1  0.64147441  0.91629781  0.24834912  1
  Mn  Mn117  1  0.14250994  0.91613015  0.49783353  1
  Mn  Mn118  1  0.14318379  0.58316969  0.74789373  1
  Mn  Mn119  1  0.64200929  0.24934318  0.24753127  1
  Mn  Mn120  1  0.60653186  0.08317834  0.37244808  1
  Mn  Mn121  1  0.60670166  0.08393479  0.12283559  1
  Mn  Mn122  1  0.85836441  0.41635661  0.50208791  1
  Mn  Mn123  1  0.35759726  0.75006068  0.00223032  1
  Mn  Mn124  1  0.14208349  0.91610260  0.74759571  1
  Mn  Mn125  1  0.85714377  0.41700873  0.00233612  1
  Mn  Mn126  1  0.10749252  0.74961500  0.37289545  1
  Mn  Mn127  1  0.14261456  0.58357931  0.49763718  1
  Mn  Mn128  1  0.85665852  0.74977374  0.75198452  1
  Mn  Mn129  1  0.85782865  0.41668216  0.25248889  1
  Mn  Mn130  1  0.85850778  0.08289163  0.25256797  1
  Mn  Mn131  1  0.64213921  0.58407778  0.24826468  1
  Mn  Mn132  1  0.85838583  0.08401420  0.00173962  1
  Mn  Mn133  1  0.10793637  0.41772523  0.12231996  1
  Mn  Mn134  1  0.60737134  0.08297491  0.87271286  1
  Mn  Mn135  1  0.85832730  0.08361855  0.50259626  1
  Mn  Mn136  1  0.10855835  0.08285232  0.12262026  1
  Mn  Mn137  1  0.39084498  0.25041062  0.87773408  1
  Mn  Mn138  1  0.14180456  0.91694254  0.99716360  1
  Mn  Mn139  1  0.89243656  0.91787275  0.37741723  1
  Mn  Mn140  1  0.64266398  0.58281490  0.49726857  1
  Mn  Mn141  1  0.85819132  0.41640177  0.75179504  1
  Mn  Mn142  1  0.60721842  0.74967555  0.37283075  1
  Mn  Mn143  1  0.89196286  0.91677229  0.12775551  1
  Fe  Fe144  1  0.10692177  0.74941099  0.12348886  1
  Fe  Fe145  1  0.64272657  0.91687433  0.74769814  1
  Fe  Fe146  1  0.39219308  0.25083818  0.12622921  1
  Fe  Fe147  1  0.35722812  0.41621802  0.00216786  1
  Fe  Fe148  1  0.35687303  0.08314780  0.25229919  1
  Fe  Fe149  1  0.10672403  0.75048250  0.87324191  1
  Fe  Fe150  1  0.10773921  0.41700496  0.37366976  1
  Fe  Fe151  1  0.14317366  0.58285928  0.99870840  1
  Fe  Fe152  1  0.89305390  0.25038250  0.12658581  1
  Fe  Fe153  1  0.14363823  0.25029411  0.49843608  1
  Fe  Fe154  1  0.35660791  0.08318281  0.75149339  1
  Fe  Fe155  1  0.14330351  0.25057116  0.99940749  1
  Fe  Fe156  1  0.89237724  0.58278704  0.12582822  1
  Fe  Fe157  1  0.14304571  0.24977322  0.24818636  1
  Fe  Fe158  1  0.60786277  0.74979114  0.87322372  1
  Fe  Fe159  1  0.14368329  0.25049967  0.74807277  1
  Fe  Fe160  1  0.60635686  0.08350829  0.62312960  1
  Fe  Fe161  1  0.35649371  0.08373629  0.50251228  1
  Fe  Fe162  1  0.35803311  0.74991517  0.75252625  1
  Fe  Fe163  1  0.64210396  0.58318750  0.74774484  1
  Fe  Fe164  1  0.85744844  0.75019763  0.50256543  1
  Fe  Fe165  1  0.85708389  0.74946442  0.00122895  1
  Fe  Fe166  1  0.64217621  0.25009994  0.99914469  1
  Fe  Fe167  1  0.60660768  0.41706828  0.37399781  1
  Fe  Fe168  1  0.39190600  0.24955494  0.62616861  1
  Fe  Fe169  1  0.89292785  0.58199605  0.37682315  1
  Fe  Fe170  1  0.60669177  0.41652360  0.12306093  1
  Fe  Fe171  1  0.89427537  0.25046744  0.37706410  1
  Fe  Fe172  1  0.10816465  0.08280837  0.62331360  1
  Fe  Fe173  1  0.64185822  0.25007711  0.49811571  1
  Fe  Fe174  1  0.39163156  0.91600325  0.37731967  1
  Fe  Fe175  1  0.39257746  0.58326542  0.37698450  1
  Fe  Fe176  1  0.89265887  0.91707453  0.62676565  1
  Fe  Fe177  1  0.39325662  0.58413735  0.87696855  1
  Fe  Fe178  1  0.39273638  0.58291435  0.12593907  1
  Fe  Fe179  1  0.64215884  0.58331491  0.99873273  1
  Fe  Fe180  1  0.85803837  0.75033798  0.25162150  1
  Fe  Fe181  1  0.89295712  0.58263546  0.62700486  1
  Fe  Fe182  1  0.35672554  0.08411571  0.00144494  1
  Fe  Fe183  1  0.89251171  0.91693200  0.87600368  1
  Fe  Fe184  1  0.10828398  0.08188870  0.87335557  1
  Fe  Fe185  1  0.35778668  0.74997216  0.50203836  1
  Fe  Fe186  1  0.35693024  0.41676105  0.75152906  1
  Fe  Fe187  1  0.35709173  0.41609152  0.50158202  1
  Fe  Fe188  1  0.10817271  0.08361243  0.37344607  1
  Fe  Fe189  1  0.60689021  0.75045044  0.62266801  1
  Fe  Fe190  1  0.10868409  0.41743769  0.62328562  1
  Fe  Fe191  1  0.35743071  0.75041831  0.25139869  1
  P  P192  1  0.05447024  0.25027451  0.11065701  1
  P  P193  1  0.05571645  0.25032820  0.36110306  1
  P  P194  1  0.05697758  0.25049845  0.61120568  1
  P  P195  1  0.05697312  0.24928607  0.86097979  1
  P  P196  1  0.05270188  0.58421835  0.10950087  1
  P  P197  1  0.05227151  0.58273132  0.36006608  1
  P  P198  1  0.05271683  0.58299743  0.61011022  1
  P  P199  1  0.05485661  0.58438279  0.86134032  1
  P  P200  1  0.05352715  0.91539840  0.11034587  1
  P  P201  1  0.05354721  0.91715413  0.36003192  1
  P  P202  1  0.05221863  0.91667100  0.60990416  1
  P  P203  1  0.05219206  0.91581750  0.86002903  1
  P  P204  1  0.55193255  0.25068997  0.10933358  1
  P  P205  1  0.55381995  0.25088634  0.36109889  1
  P  P206  1  0.55186808  0.24878089  0.60929470  1
  P  P207  1  0.55350438  0.25002158  0.86095846  1
  P  P208  1  0.55255794  0.58262240  0.10958461  1
  P  P209  1  0.55179725  0.58260631  0.36041030  1
  P  P210  1  0.55457453  0.58396857  0.61104120  1
  P  P211  1  0.55418507  0.58385833  0.86039279  1
  P  P212  1  0.55255497  0.91654134  0.10981903  1
  P  P213  1  0.55089320  0.91651646  0.36013387  1
  P  P214  1  0.55450207  0.91695078  0.61110611  1
  P  P215  1  0.55418561  0.91594048  0.85903355  1
  P  P216  1  0.44371206  0.08491161  0.13921700  1
  P  P217  1  0.44364587  0.08256664  0.38971762  1
  P  P218  1  0.44528743  0.08451570  0.63942681  1
  P  P219  1  0.44413916  0.08323494  0.88930342  1
  P  P220  1  0.44600487  0.41645634  0.13824198  1
  P  P221  1  0.44690660  0.41749737  0.39076228  1
  P  P222  1  0.44428989  0.41518965  0.63944007  1
  P  P223  1  0.44387216  0.41767343  0.88912996  1
  P  P224  1  0.44605754  0.74871791  0.14026111  1
  P  P225  1  0.44454097  0.74980490  0.38958132  1
  P  P226  1  0.44608433  0.75009040  0.63988124  1
  P  P227  1  0.44711137  0.74925770  0.88874530  1
  P  P228  1  0.94727826  0.08457044  0.14001809  1
  P  P229  1  0.94877949  0.08516782  0.39025578  1
  P  P230  1  0.94872948  0.08341850  0.63998504  1
  P  P231  1  0.94873339  0.08274655  0.88964949  1
  P  P232  1  0.94648543  0.41650577  0.13962358  1
  P  P233  1  0.94832371  0.41581526  0.38982025  1
  P  P234  1  0.94897133  0.41706459  0.64021843  1
  P  P235  1  0.94724662  0.41648312  0.89024502  1
  P  P236  1  0.94569006  0.74863092  0.13897020  1
  P  P237  1  0.94453388  0.74916830  0.38941781  1
  P  P238  1  0.94496693  0.74959170  0.63880524  1
  P  P239  1  0.94636021  0.75074074  0.89016981  1
  P  P240  1  0.19672853  0.08386544  0.23672543  1
  P  P241  1  0.19603494  0.08381585  0.48607708  1
  P  P242  1  0.19593018  0.08322163  0.73565533  1
  P  P243  1  0.19750059  0.08435885  0.98475168  1
  P  P244  1  0.19536705  0.41654648  0.23644847  1
  P  P245  1  0.19657691  0.41650705  0.48559292  1
  P  P246  1  0.19790175  0.41690025  0.73449068  1
  P  P247  1  0.19838426  0.41704681  0.98565644  1
  P  P248  1  0.19748534  0.74971312  0.23431159  1
  P  P249  1  0.19837252  0.74962576  0.48480417  1
  P  P250  1  0.19723911  0.74975662  0.73601321  1
  P  P251  1  0.19446235  0.74878193  0.98571718  1
  P  P252  1  0.69669366  0.08293316  0.23480141  1
  P  P253  1  0.69501942  0.08439978  0.48595608  1
  P  P254  1  0.69572861  0.08277943  0.73396013  1
  P  P255  1  0.69650506  0.08457434  0.98506433  1
  P  P256  1  0.69424620  0.41690899  0.23575508  1
  P  P257  1  0.69593381  0.41572040  0.48394893  1
  P  P258  1  0.69631105  0.41734149  0.73461481  1
  P  P259  1  0.69449359  0.41660770  0.98684833  1
  P  P260  1  0.69833373  0.75001176  0.23528621  1
  P  P261  1  0.69679930  0.74984550  0.48614368  1
  P  P262  1  0.69392967  0.74988559  0.73544823  1
  P  P263  1  0.69709737  0.74883850  0.98438105  1
  P  P264  1  0.30240335  0.25034149  0.01557836  1
  P  P265  1  0.30343408  0.24986124  0.26423498  1
  P  P266  1  0.30266239  0.25002435  0.51537973  1
  P  P267  1  0.30354269  0.24985150  0.76318420  1
  P  P268  1  0.30422689  0.58277096  0.01437611  1
  P  P269  1  0.30555640  0.58404957  0.26412393  1
  P  P270  1  0.30513419  0.58321213  0.51365629  1
  P  P271  1  0.30471607  0.58368011  0.76583765  1
  P  P272  1  0.30291420  0.91730791  0.01469213  1
  P  P273  1  0.30407577  0.91637757  0.26559406  1
  P  P274  1  0.30466690  0.91654371  0.51424349  1
  P  P275  1  0.30332465  0.91632786  0.76510630  1
  P  P276  1  0.80270668  0.25036259  0.01581292  1
  P  P277  1  0.80558720  0.25003790  0.26507251  1
  P  P278  1  0.80365815  0.25024470  0.51391598  1
  P  P279  1  0.80313294  0.25015178  0.76500619  1
  P  P280  1  0.80206046  0.58402956  0.01534226  1
  P  P281  1  0.80547572  0.58383270  0.26443405  1
  P  P282  1  0.80573126  0.58334542  0.51444136  1
  P  P283  1  0.80295034  0.58285067  0.76380289  1
  P  P284  1  0.80494392  0.91591069  0.01308429  1
  P  P285  1  0.80304705  0.91611748  0.26545494  1
  P  P286  1  0.80424418  0.91641165  0.51607647  1
  P  P287  1  0.80389022  0.91715769  0.76406195  1
  O  O288  1  0.05937065  0.25020798  0.18735742  1
  O  O289  1  0.06030340  0.25020198  0.43786566  1
  O  O290  1  0.06092280  0.25061808  0.68806942  1
  O  O291  1  0.06089819  0.25044474  0.93779901  1
  O  O292  1  0.05644104  0.58361921  0.18619966  1
  O  O293  1  0.05629447  0.58346825  0.43673370  1
  O  O294  1  0.05676804  0.58381252  0.68680592  1
  O  O295  1  0.05933218  0.58303921  0.93800849  1
  O  O296  1  0.05698076  0.91610780  0.18708669  1
  O  O297  1  0.05660905  0.91644521  0.43682409  1
  O  O298  1  0.05596868  0.91585826  0.68661393  1
  O  O299  1  0.05570099  0.91593611  0.93672436  1
  O  O300  1  0.55566533  0.24986115  0.18608406  1
  O  O301  1  0.55780974  0.24991566  0.43781370  1
  O  O302  1  0.55525662  0.24948686  0.68607080  1
  O  O303  1  0.55820832  0.24999904  0.93760335  1
  O  O304  1  0.55613181  0.58345545  0.18628363  1
  O  O305  1  0.55575755  0.58342392  0.43709264  1
  O  O306  1  0.55824093  0.58308659  0.68780427  1
  O  O307  1  0.55870094  0.58340726  0.93710461  1
  O  O308  1  0.55534854  0.91659171  0.18660746  1
  O  O309  1  0.55532407  0.91665561  0.43684112  1
  O  O310  1  0.55846639  0.91700588  0.68781126  1
  O  O311  1  0.55684545  0.91678612  0.93589698  1
  O  O312  1  0.43984080  0.08417182  0.06238073  1
  O  O313  1  0.43961382  0.08367171  0.31287458  1
  O  O314  1  0.44035536  0.08392491  0.56271806  1
  O  O315  1  0.43970993  0.08349080  0.81252317  1
  O  O316  1  0.44139543  0.41623914  0.06155594  1
  O  O317  1  0.44374157  0.41642622  0.31396093  1
  O  O318  1  0.44023706  0.41589052  0.56268017  1
  O  O319  1  0.43973667  0.41636365  0.81234582  1
  O  O320  1  0.44342165  0.74963703  0.06342894  1
  O  O321  1  0.44084913  0.74999335  0.31281758  1
  O  O322  1  0.44106194  0.75008694  0.56320027  1
  O  O323  1  0.44234263  0.74996073  0.81209461  1
  O  O324  1  0.94418601  0.08404780  0.06323994  1
  O  O325  1  0.94484964  0.08442844  0.31359686  1
  O  O326  1  0.94482565  0.08426575  0.56331107  1
  O  O327  1  0.94490359  0.08378698  0.81299042  1
  O  O328  1  0.94342222  0.41626173  0.06287569  1
  O  O329  1  0.94450866  0.41589094  0.31317583  1
  O  O330  1  0.94493388  0.41625347  0.56354755  1
  O  O331  1  0.94418946  0.41659999  0.81348425  1
  O  O332  1  0.94112687  0.74921789  0.06230231  1
  O  O333  1  0.94114146  0.75018017  0.31257084  1
  O  O334  1  0.94143033  0.74970307  0.56201653  1
  O  O335  1  0.94231772  0.74969615  0.81344007  1
  O  O336  1  0.19430420  0.08326784  0.06153847  1
  O  O337  1  0.19202006  0.08341353  0.31340030  1
  O  O338  1  0.19140054  0.08259562  0.56281229  1
  O  O339  1  0.19139970  0.08203959  0.81235226  1
  O  O340  1  0.19481937  0.41749213  0.06236016  1
  O  O341  1  0.19114783  0.41739136  0.31319098  1
  O  O342  1  0.19222276  0.41785363  0.56229753  1
  O  O343  1  0.19448726  0.41767208  0.81123513  1
  O  O344  1  0.19035290  0.74943689  0.06245433  1
  O  O345  1  0.19346471  0.74929469  0.31102531  1
  O  O346  1  0.19396339  0.74945544  0.56149197  1
  O  O347  1  0.19153322  0.75015593  0.81258551  1
  O  O348  1  0.69323421  0.08397244  0.06180349  1
  O  O349  1  0.69296569  0.08331337  0.31159553  1
  O  O350  1  0.69029583  0.08394960  0.56263578  1
  O  O351  1  0.69279332  0.08346110  0.81076206  1
  O  O352  1  0.69079802  0.41652741  0.06363826  1
  O  O353  1  0.68979315  0.41706055  0.31246165  1
  O  O354  1  0.69255045  0.41641301  0.56072664  1
  O  O355  1  0.69311047  0.41689073  0.81141754  1
  O  O356  1  0.69381984  0.74949162  0.06112674  1
  O  O357  1  0.69407607  0.74966828  0.31198651  1
  O  O358  1  0.69142830  0.74989291  0.56276712  1
  O  O359  1  0.69057567  0.74979870  0.81228113  1
  O  O360  1  0.30809119  0.25085855  0.18763129  1
  O  O361  1  0.30571701  0.25013484  0.43860096  1
  O  O362  1  0.30767937  0.24960940  0.68656278  1
  O  O363  1  0.30515449  0.25044759  0.93876974  1
  O  O364  1  0.30942484  0.58290824  0.18735637  1
  O  O365  1  0.30865712  0.58303428  0.43687330  1
  O  O366  1  0.30715256  0.58402228  0.68896876  1
  O  O367  1  0.30891389  0.58385176  0.93774819  1
  O  O368  1  0.30625422  0.91634874  0.18875609  1
  O  O369  1  0.30793973  0.91642757  0.43748158  1
  O  O370  1  0.30624956  0.91615741  0.68829581  1
  O  O371  1  0.30612638  0.91616110  0.93798005  1
  O  O372  1  0.81020309  0.25035534  0.18834225  1
  O  O373  1  0.80947038  0.25019118  0.43733763  1
  O  O374  1  0.80702101  0.25006939  0.68824155  1
  O  O375  1  0.80701698  0.25027293  0.93909567  1
  O  O376  1  0.80938598  0.58262682  0.18767181  1
  O  O377  1  0.80999353  0.58205825  0.43763219  1
  O  O378  1  0.80844856  0.58252800  0.68718026  1
  O  O379  1  0.80552151  0.58319928  0.93857595  1
  O  O380  1  0.80591558  0.91698358  0.18861188  1
  O  O381  1  0.80750700  0.91744467  0.43927633  1
  O  O382  1  0.80918007  0.91743597  0.68740522  1
  O  O383  1  0.80904664  0.91682892  0.93630973  1
  O  O384  1  0.23251257  0.25023337  0.04081310  1
  O  O385  1  0.23323931  0.24986475  0.28834521  1
  O  O386  1  0.23264670  0.25011393  0.54008143  1
  O  O387  1  0.23324743  0.25005689  0.78737275  1
  O  O388  1  0.23388555  0.58346214  0.03827070  1
  O  O389  1  0.23553989  0.58341236  0.28847527  1
  O  O390  1  0.23533676  0.58336474  0.53864254  1
  O  O391  1  0.23510709  0.58316401  0.79119603  1
  O  O392  1  0.23329463  0.91702792  0.04000141  1
  O  O393  1  0.23458602  0.91646986  0.29146280  1
  O  O394  1  0.23491416  0.91651634  0.53938855  1
  O  O395  1  0.23377066  0.91660312  0.79056417  1
  O  O396  1  0.73253558  0.25047851  0.04004917  1
  O  O397  1  0.73522963  0.24985421  0.28825121  1
  O  O398  1  0.73311128  0.25046000  0.53687282  1
  O  O399  1  0.73328921  0.25018434  0.78953251  1
  O  O400  1  0.73207313  0.58342495  0.04014251  1
  O  O401  1  0.73543900  0.58350574  0.28880113  1
  O  O402  1  0.73552469  0.58286402  0.53806629  1
  O  O403  1  0.73252044  0.58368998  0.78703405  1
  O  O404  1  0.73495618  0.91620342  0.03747268  1
  O  O405  1  0.73369431  0.91608817  0.29151388  1
  O  O406  1  0.73437821  0.91663291  0.54059979  1
  O  O407  1  0.73335553  0.91655437  0.78705533  1
  O  O408  1  0.26707238  0.08333963  0.21304863  1
  O  O409  1  0.26650875  0.08371526  0.46272086  1
  O  O410  1  0.26634437  0.08317681  0.71199636  1
  O  O411  1  0.26748406  0.08437068  0.95991022  1
  O  O412  1  0.26544465  0.41710334  0.21244441  1
  O  O413  1  0.26693869  0.41635060  0.46171186  1
  O  O414  1  0.26802900  0.41706124  0.71012732  1
  O  O415  1  0.26828113  0.41638090  0.96063836  1
  O  O416  1  0.26766254  0.75000971  0.21019240  1
  O  O417  1  0.26852853  0.74967252  0.46089747  1
  O  O418  1  0.26773868  0.74950614  0.71285850  1
  O  O419  1  0.26467428  0.74948135  0.96187293  1
  O  O420  1  0.76644555  0.08337312  0.21005861  1
  O  O421  1  0.76520974  0.08376153  0.46218164  1
  O  O422  1  0.76546396  0.08374906  0.70882240  1
  O  O423  1  0.76615914  0.08387170  0.95970937  1
  O  O424  1  0.76454340  0.41663557  0.21235779  1
  O  O425  1  0.76577242  0.41618027  0.45921794  1
  O  O426  1  0.76585373  0.41660684  0.70910406  1
  O  O427  1  0.76433824  0.41708322  0.96195483  1
  O  O428  1  0.76835346  0.74978154  0.21086584  1
  O  O429  1  0.76731600  0.74990131  0.46319351  1
  O  O430  1  0.76399934  0.74982476  0.71116612  1
  O  O431  1  0.76701591  0.74946024  0.95929357  1
  O  O432  1  0.01697756  0.08435266  0.16515259  1
  O  O433  1  0.01890626  0.08452447  0.41462946  1
  O  O434  1  0.01891500  0.08353864  0.66429011  1
  O  O435  1  0.01880291  0.08259977  0.91434345  1
  O  O436  1  0.01615240  0.41714155  0.16486366  1
  O  O437  1  0.01839298  0.41617666  0.41447869  1
  O  O438  1  0.01904990  0.41691253  0.66475904  1
  O  O439  1  0.01701532  0.41639505  0.91526532  1
  O  O440  1  0.01602526  0.74907829  0.16299812  1
  O  O441  1  0.01452950  0.74970901  0.41402212  1
  O  O442  1  0.01479091  0.74982192  0.66374768  1
  O  O443  1  0.01647734  0.74993636  0.91436703  1
  O  O444  1  0.51365191  0.08388891  0.16376002  1
  O  O445  1  0.51371971  0.08332212  0.41367327  1
  O  O446  1  0.51566751  0.08368352  0.66291001  1
  O  O447  1  0.51427380  0.08309579  0.91300698  1
  O  O448  1  0.51622610  0.41664987  0.16232387  1
  O  O449  1  0.51677093  0.41710255  0.41575151  1
  O  O450  1  0.51430273  0.41601919  0.66366635  1
  O  O451  1  0.51400666  0.41717992  0.91285636  1
  O  O452  1  0.51562664  0.74932848  0.16581252  1
  O  O453  1  0.51446013  0.74989415  0.41437330  1
  O  O454  1  0.51656802  0.75005117  0.66287271  1
  O  O455  1  0.51740168  0.74949348  0.91253967  1
  O  O456  1  0.48186539  0.25059367  0.08474558  1
  O  O457  1  0.48374726  0.25066889  0.33681755  1
  O  O458  1  0.48179267  0.24956066  0.58472443  1
  O  O459  1  0.48332003  0.25005047  0.83727806  1
  O  O460  1  0.48250267  0.58298394  0.08490835  1
  O  O461  1  0.48177228  0.58277182  0.33588280  1
  O  O462  1  0.48453255  0.58362506  0.58686591  1
  O  O463  1  0.48382148  0.58334780  0.83663326  1
  O  O464  1  0.48294295  0.91619343  0.08438743  1
  O  O465  1  0.48075027  0.91632466  0.33613669  1
  O  O466  1  0.48446276  0.91696123  0.58686990  1
  O  O467  1  0.48453829  0.91633745  0.83372895  1
  O  O468  1  0.98412917  0.25007363  0.08702464  1
  O  O469  1  0.98538483  0.25060023  0.33729133  1
  O  O470  1  0.98694120  0.25026153  0.58694204  1
  O  O471  1  0.98694164  0.25000757  0.83667718  1
  O  O472  1  0.98255306  0.58334660  0.08508432  1
  O  O473  1  0.98218095  0.58280882  0.33570827  1
  O  O474  1  0.98267932  0.58297312  0.58566937  1
  O  O475  1  0.98478809  0.58419340  0.83726930  1
  O  O476  1  0.98378399  0.91585176  0.08550624  1
  O  O477  1  0.98391859  0.91700925  0.33475607  1
  O  O478  1  0.98220473  0.91687227  0.58528159  1
  O  O479  1  0.98228856  0.91648130  0.83496096  1
  O  O480  1  0.08778750  0.31535803  0.07729250  1
  O  O481  1  0.08926251  0.31535640  0.32794499  1
  O  O482  1  0.09050782  0.31563748  0.57819033  1
  O  O483  1  0.09117961  0.31401037  0.82760062  1
  O  O484  1  0.08640534  0.64930162  0.07695337  1
  O  O485  1  0.08583809  0.64780755  0.32696997  1
  O  O486  1  0.08632643  0.64796370  0.57682747  1
  O  O487  1  0.08815914  0.64971281  0.82851787  1
  O  O488  1  0.08759875  0.98043988  0.07762250  1
  O  O489  1  0.08763531  0.98245259  0.32817478  1
  O  O490  1  0.08641690  0.98175397  0.57779072  1
  O  O491  1  0.08674630  0.98064017  0.82767887  1
  O  O492  1  0.58598569  0.31573854  0.07690739  1
  O  O493  1  0.58717273  0.31621927  0.32860308  1
  O  O494  1  0.58637033  0.31354717  0.57655954  1
  O  O495  1  0.58668457  0.31511260  0.82755229  1
  O  O496  1  0.58675108  0.64750598  0.07667407  1
  O  O497  1  0.58551377  0.64764577  0.32728078  1
  O  O498  1  0.58791266  0.64918431  0.57818966  1
  O  O499  1  0.58759041  0.64889036  0.82730082  1
  O  O500  1  0.58645837  0.98169241  0.07740795  1
  O  O501  1  0.58429734  0.98161456  0.32710771  1
  O  O502  1  0.58775945  0.98219660  0.57806928  1
  O  O503  1  0.58863204  0.98078451  0.82643134  1
  O  O504  1  0.40932909  0.02020283  0.17226527  1
  O  O505  1  0.41041431  0.01730837  0.42250087  1
  O  O506  1  0.41158468  0.01975521  0.67307601  1
  O  O507  1  0.41055585  0.01830009  0.92240298  1
  O  O508  1  0.41271625  0.35146140  0.17184716  1
  O  O509  1  0.41250923  0.35265756  0.42360029  1
  O  O510  1  0.41104113  0.34984539  0.67216311  1
  O  O511  1  0.41003713  0.35298510  0.92284498  1
  O  O512  1  0.41202338  0.68338233  0.17202750  1
  O  O513  1  0.41094588  0.68450384  0.42233820  1
  O  O514  1  0.41284762  0.68510660  0.67338859  1
  O  O515  1  0.41382948  0.68413932  0.92190010  1
  O  O516  1  0.91328512  0.01935447  0.17249505  1
  O  O517  1  0.91465766  0.02023262  0.42301196  1
  O  O518  1  0.91491325  0.01826827  0.67236434  1
  O  O519  1  0.91460006  0.01771996  0.92184839  1
  O  O520  1  0.91285862  0.35134054  0.17237425  1
  O  O521  1  0.91494354  0.35068011  0.42296542  1
  O  O522  1  0.91525861  0.35199855  0.67315535  1
  O  O523  1  0.91311603  0.35148697  0.92258057  1
  O  O524  1  0.91237351  0.68339849  0.17184328  1
  O  O525  1  0.91100805  0.68375774  0.42168407  1
  O  O526  1  0.91140496  0.68431222  0.67160914  1
  O  O527  1  0.91205655  0.68608909  0.92343782  1
  O  O528  1  0.16345115  0.01892426  0.20318015  1
  O  O529  1  0.16267356  0.01908926  0.45220644  1
  O  O530  1  0.16257623  0.01840867  0.70175929  1
  O  O531  1  0.16348485  0.01942235  0.95163306  1
  O  O532  1  0.16222039  0.35116885  0.20374313  1
  O  O533  1  0.16313197  0.35116891  0.45311724  1
  O  O534  1  0.16403147  0.35190517  0.70205979  1
  O  O535  1  0.16425351  0.35201601  0.95338051  1
  O  O536  1  0.16379930  0.68470588  0.20124257  1
  O  O537  1  0.16482543  0.68466173  0.45161164  1
  O  O538  1  0.16411750  0.68469871  0.70246199  1
  O  O539  1  0.16137995  0.68348002  0.95279582  1
  O  O540  1  0.66283958  0.01776967  0.20245453  1
  O  O541  1  0.66145833  0.01934626  0.45263959  1
  O  O542  1  0.66194044  0.01736273  0.70186022  1
  O  O543  1  0.66209145  0.01962515  0.95254477  1
  O  O544  1  0.66059491  0.35199586  0.20244453  1
  O  O545  1  0.66170800  0.35065918  0.45179673  1
  O  O546  1  0.66173836  0.35241774  0.70222850  1
  O  O547  1  0.66098124  0.35141407  0.95390214  1
  O  O548  1  0.66450162  0.68499747  0.20236055  1
  O  O549  1  0.66389023  0.68478141  0.45242114  1
  O  O550  1  0.66022226  0.68491765  0.70243130  1
  O  O551  1  0.66314103  0.68353635  0.95219214  1
  O  O552  1  0.33654410  0.31533269  0.04823137  1
  O  O553  1  0.33663738  0.31492152  0.29790272  1
  O  O554  1  0.33677301  0.31499124  0.54779112  1
  O  O555  1  0.33674125  0.31497022  0.79646947  1
  O  O556  1  0.33814943  0.64744322  0.04789444  1
  O  O557  1  0.33894315  0.64947725  0.29648714  1
  O  O558  1  0.33902333  0.64822240  0.54652558  1
  O  O559  1  0.33884906  0.64870554  0.79844773  1
  O  O560  1  0.33679146  0.98261347  0.04662042  1
  O  O561  1  0.33852141  0.98130671  0.29781354  1
  O  O562  1  0.33836143  0.98181885  0.54686716  1
  O  O563  1  0.33764515  0.98154946  0.79681104  1
  O  O564  1  0.83655285  0.31534938  0.04879042  1
  O  O565  1  0.83885005  0.31512726  0.29857292  1
  O  O566  1  0.83685228  0.31522605  0.54757915  1
  O  O567  1  0.83711780  0.31509830  0.79767917  1
  O  O568  1  0.83600615  0.64931610  0.04742589  1
  O  O569  1  0.83912641  0.64902130  0.29683324  1
  O  O570  1  0.83889636  0.64864141  0.54728324  1
  O  O571  1  0.83635075  0.64789911  0.79714990  1
  O  O572  1  0.83869655  0.98071847  0.04647474  1
  O  O573  1  0.83736013  0.98120411  0.29796981  1
  O  O574  1  0.83847350  0.98137083  0.54884030  1
  O  O575  1  0.83691105  0.98220092  0.79770464  1
  O  O576  1  0.41058684  0.15041588  0.17192408  1
  O  O577  1  0.40968760  0.14742604  0.42307220  1
  O  O578  1  0.41218199  0.14973254  0.67256984  1
  O  O579  1  0.41060292  0.14824541  0.92261960  1
  O  O580  1  0.41258972  0.48158516  0.17129125  1
  O  O581  1  0.41277926  0.48253631  0.42291072  1
  O  O582  1  0.41031878  0.48005054  0.67263988  1
  O  O583  1  0.41077173  0.48305727  0.92185458  1
  O  O584  1  0.41117461  0.81339422  0.17279965  1
  O  O585  1  0.41064328  0.81473345  0.42270133  1
  O  O586  1  0.41283263  0.81501817  0.67347311  1
  O  O587  1  0.41364195  0.81406907  0.92235608  1
  O  O588  1  0.91329160  0.14964044  0.17227990  1
  O  O589  1  0.91541355  0.15036315  0.42312087  1
  O  O590  1  0.91522871  0.14845858  0.67314757  1
  O  O591  1  0.91520356  0.14784292  0.92281630  1
  O  O592  1  0.91206562  0.48162652  0.17163007  1
  O  O593  1  0.91425350  0.48077113  0.42241364  1
  O  O594  1  0.91506095  0.48223119  0.67269892  1
  O  O595  1  0.91312033  0.48160599  0.92252345  1
  O  O596  1  0.91205526  0.81347977  0.17262625  1
  O  O597  1  0.91035655  0.81388753  0.42261375  1
  O  O598  1  0.91103492  0.81470241  0.67138403  1
  O  O599  1  0.91290435  0.81610265  0.92248891  1
  O  O600  1  0.08831079  0.18551626  0.07740171  1
  O  O601  1  0.08900306  0.18523145  0.32764186  1
  O  O602  1  0.09077624  0.18543497  0.57837127  1
  O  O603  1  0.09030639  0.18384098  0.82854678  1
  O  O604  1  0.08713086  0.51949041  0.07647965  1
  O  O605  1  0.08606421  0.51767582  0.32754979  1
  O  O606  1  0.08668717  0.51785545  0.57771962  1
  O  O607  1  0.08848320  0.51943253  0.82787955  1
  O  O608  1  0.08721513  0.85018007  0.07804876  1
  O  O609  1  0.08759744  0.85203410  0.32761436  1
  O  O610  1  0.08588347  0.85162936  0.57685812  1
  O  O611  1  0.08562402  0.85045530  0.82728588  1
  O  O612  1  0.58590163  0.18579369  0.07627586  1
  O  O613  1  0.58724757  0.18596553  0.32753389  1
  O  O614  1  0.58558992  0.18364434  0.57672316  1
  O  O615  1  0.58678274  0.18500971  0.82761421  1
  O  O616  1  0.58629173  0.51753979  0.07691808  1
  O  O617  1  0.58551949  0.51751036  0.32791659  1
  O  O618  1  0.58806522  0.51893792  0.57786865  1
  O  O619  1  0.58771533  0.51893112  0.82685289  1
  O  O620  1  0.58702796  0.85148014  0.07779731  1
  O  O621  1  0.58468215  0.85143869  0.32739420  1
  O  O622  1  0.58783764  0.85170162  0.57799851  1
  O  O623  1  0.58841129  0.85073132  0.82724306  1
  O  O624  1  0.33663482  0.18534653  0.04782223  1
  O  O625  1  0.33687476  0.18486053  0.29726819  1
  O  O626  1  0.33653879  0.18500759  0.54813069  1
  O  O627  1  0.33662606  0.18483396  0.79671102  1
  O  O628  1  0.33728956  0.51744538  0.04749904  1
  O  O629  1  0.33963480  0.51940434  0.29767993  1
  O  O630  1  0.33878879  0.51801812  0.54635825  1
  O  O631  1  0.33930823  0.51860773  0.79754719  1
  O  O632  1  0.33709646  0.85231141  0.04733551  1
  O  O633  1  0.33839231  0.85112034  0.29748244  1
  O  O634  1  0.33862314  0.85151789  0.54693466  1
  O  O635  1  0.33742551  0.85122925  0.79757483  1
  O  O636  1  0.83669844  0.18535479  0.04854382  1
  O  O637  1  0.83923111  0.18518927  0.29844086  1
  O  O638  1  0.83667047  0.18525839  0.54775908  1
  O  O639  1  0.83702725  0.18498700  0.79763917  1
  O  O640  1  0.83649819  0.51939029  0.04839873  1
  O  O641  1  0.83929180  0.51893577  0.29798333  1
  O  O642  1  0.83951041  0.51852821  0.54798439  1
  O  O643  1  0.83575843  0.51788340  0.79770393  1
  O  O644  1  0.83815164  0.85038038  0.04563992  1
  O  O645  1  0.83766484  0.85100117  0.29695393  1
  O  O646  1  0.83821800  0.85122500  0.54825830  1
  O  O647  1  0.83732767  0.85218547  0.79746420  1
  O  O648  1  0.16381040  0.14904890  0.20341012  1
  O  O649  1  0.16302314  0.14922599  0.45324828  1
  O  O650  1  0.16263473  0.14841880  0.70287644  1
  O  O651  1  0.16352171  0.14947472  0.95278120  1
  O  O652  1  0.16177286  0.48137442  0.20298489  1
  O  O653  1  0.16311811  0.48123584  0.45167958  1
  O  O654  1  0.16415281  0.48184265  0.70133185  1
  O  O655  1  0.16484705  0.48216974  0.95267867  1
  O  O656  1  0.16339373  0.81465567  0.20176579  1
  O  O657  1  0.16473588  0.81469971  0.45203081  1
  O  O658  1  0.16421420  0.81473841  0.70215947  1
  O  O659  1  0.16058602  0.81353907  0.95214496  1
  O  O660  1  0.66244489  0.14790395  0.20220929  1
  O  O661  1  0.66180481  0.14960438  0.45284571  1
  O  O662  1  0.66079172  0.14738404  0.70135088  1
  O  O663  1  0.66264035  0.14993515  0.95295130  1
  O  O664  1  0.66090893  0.48195348  0.20242835  1
  O  O665  1  0.66167779  0.48069970  0.45119762  1
  O  O666  1  0.66236286  0.48254196  0.70238303  1
  O  O667  1  0.66060676  0.48174949  0.95414644  1
  O  O668  1  0.66460205  0.81499229  0.20244081  1
  O  O669  1  0.66366747  0.81483347  0.45252342  1
  O  O670  1  0.66042298  0.81513888  0.70261828  1
  O  O671  1  0.66258673  0.81357623  0.95153903  1
