# generated using pymatgen
data_Na2MnFe(PO4)2
_symmetry_space_group_name_H-M   'P 1'
_cell_length_a   21.09077001
_cell_length_b   18.94479132
_cell_length_c   20.04982924
_cell_angle_alpha   89.99978527
_cell_angle_beta   90.00113185
_cell_angle_gamma   89.99930422
_symmetry_Int_Tables_number   1
_chemical_formula_structural   Na2MnFe(PO4)2
_chemical_formula_sum   'Na96 Mn48 Fe48 P96 O384'
_cell_volume   8011.11451601
_cell_formula_units_Z   48
loop_
 _symmetry_equiv_pos_site_id
 _symmetry_equiv_pos_as_xyz
  1  'x, y, z'
loop_
 _atom_site_type_symbol
 _atom_site_label
 _atom_site_symmetry_multiplicity
 _atom_site_fract_x
 _atom_site_fract_y
 _atom_site_fract_z
 _atom_site_occupancy
  Na  Na0  1  0.00171706  0.00011840  0.00074074  1
  Na  Na1  1  -0.00095327  -0.00091070  0.25066261  1
  Na  Na2  1  -0.00057071  -0.00022691  0.50007309  1
  Na  Na3  1  0.00056255  0.00039692  0.74893171  1
  Na  Na4  1  0.00103305  0.33320688  -0.00086749  1
  Na  Na5  1  -0.00115654  0.33375272  0.25019594  1
  Na  Na6  1  -0.00158811  0.33365563  0.50043207  1
  Na  Na7  1  0.00133103  0.33388128  0.75011492  1
  Na  Na8  1  0.00067728  0.66687650  -0.00092614  1
  Na  Na9  1  -0.00187520  0.66645139  0.25074360  1
  Na  Na10  1  -0.00277219  0.66621614  0.49943507  1
  Na  Na11  1  0.00035634  0.66718918  0.75022190  1
  Na  Na12  1  0.49850241  -0.00061059  0.00084160  1
  Na  Na13  1  0.49969267  -0.00087490  0.25031983  1
  Na  Na14  1  0.50300038  0.00046653  0.49873465  1
  Na  Na15  1  0.50203012  0.00043995  0.74982219  1
  Na  Na16  1  0.49890673  0.33358162  -0.00049193  1
  Na  Na17  1  0.49933452  0.33359824  0.25073153  1
  Na  Na18  1  0.50117440  0.33398870  0.50044987  1
  Na  Na19  1  0.49932918  0.33333018  0.74959002  1
  Na  Na20  1  0.50070560  0.66673921  0.00020143  1
  Na  Na21  1  0.50142839  0.66727623  0.25131576  1
  Na  Na22  1  0.50153504  0.66727787  0.49975681  1
  Na  Na23  1  0.50015088  0.66650749  0.74923815  1
  Na  Na24  1  0.25066566  -0.00042870  0.12561080  1
  Na  Na25  1  0.25087184  -0.00065477  0.37490138  1
  Na  Na26  1  0.24884594  -0.00073883  0.62465017  1
  Na  Na27  1  0.24868318  -0.00039505  0.87486615  1
  Na  Na28  1  0.25064328  0.33337632  0.12539121  1
  Na  Na29  1  0.25056260  0.33398159  0.37454649  1
  Na  Na30  1  0.24996721  0.33371254  0.62486401  1
  Na  Na31  1  0.25025011  0.33367011  0.87488102  1
  Na  Na32  1  0.24709073  0.66567261  0.12532141  1
  Na  Na33  1  0.25087022  0.66772477  0.37521291  1
  Na  Na34  1  0.24957031  0.66642807  0.62425782  1
  Na  Na35  1  0.24824153  0.66643519  0.87521405  1
  Na  Na36  1  0.75126535  0.00038020  0.12608203  1
  Na  Na37  1  0.74959264  -0.00024309  0.37449583  1
  Na  Na38  1  0.74855018  -0.00060702  0.62432850  1
  Na  Na39  1  0.74964654  0.00016903  0.87535235  1
  Na  Na40  1  0.75012825  0.33418844  0.12519755  1
  Na  Na41  1  0.74951064  0.33337996  0.37379159  1
  Na  Na42  1  0.75014270  0.33368173  0.62559986  1
  Na  Na43  1  0.74782534  0.33264757  0.87557515  1
  Na  Na44  1  0.75064498  0.66708330  0.12563374  1
  Na  Na45  1  0.75128557  0.66706982  0.37329218  1
  Na  Na46  1  0.75032927  0.66616111  0.62400486  1
  Na  Na47  1  0.75190330  0.66756446  0.87628822  1
  Na  Na48  1  0.00245949  0.16673655  -0.00040462  1
  Na  Na49  1  -0.00113932  0.16751800  0.25037869  1
  Na  Na50  1  -0.00252913  0.16782951  0.50106898  1
  Na  Na51  1  0.00169117  0.16665186  0.74951577  1
  Na  Na52  1  0.00075434  0.49885353  -0.00021419  1
  Na  Na53  1  -0.00379827  0.50098959  0.24986027  1
  Na  Na54  1  -0.00087006  0.49863364  0.50043906  1
  Na  Na55  1  -0.00072569  0.49965548  0.74988898  1
  Na  Na56  1  0.00119365  0.83335406  -0.00020952  1
  Na  Na57  1  -0.00034016  0.83398246  0.25085610  1
  Na  Na58  1  -0.00060930  0.83295604  0.49894686  1
  Na  Na59  1  0.00035037  0.83332281  0.74975534  1
  Na  Na60  1  0.49877029  0.16779693  0.00002550  1
  Na  Na61  1  0.49904633  0.16745070  0.25084838  1
  Na  Na62  1  0.50344593  0.16582118  0.49927439  1
  Na  Na63  1  0.50223350  0.16702505  0.75007467  1
  Na  Na64  1  0.49998790  0.49854052  -0.00000745  1
  Na  Na65  1  0.49987404  0.49968520  0.25049260  1
  Na  Na66  1  0.50067960  0.49938390  0.49975714  1
  Na  Na67  1  0.49937395  0.49914101  0.74933813  1
  Na  Na68  1  0.49951465  0.83345512  0.00062070  1
  Na  Na69  1  0.50085952  0.83346340  0.25079491  1
  Na  Na70  1  0.50134932  0.83335935  0.49994529  1
  Na  Na71  1  0.49987685  0.83324382  0.74933752  1
  Na  Na72  1  0.25155082  0.16635195  0.12468686  1
  Na  Na73  1  0.25088304  0.16680681  0.37446873  1
  Na  Na74  1  0.24998115  0.16700551  0.62505208  1
  Na  Na75  1  0.24875259  0.16794336  0.87523045  1
  Na  Na76  1  0.25060787  0.49846058  0.12574863  1
  Na  Na77  1  0.24991346  0.49943839  0.37553923  1
  Na  Na78  1  0.25023479  0.49853368  0.62459852  1
  Na  Na79  1  0.24873384  0.49949577  0.87455335  1
  Na  Na80  1  0.24810971  0.83408733  0.12553067  1
  Na  Na81  1  0.25024620  0.83367878  0.37508418  1
  Na  Na82  1  0.24938538  0.83338053  0.62385815  1
  Na  Na83  1  0.24891902  0.83302681  0.87550060  1
  Na  Na84  1  0.74985689  0.16691882  0.12615232  1
  Na  Na85  1  0.74916833  0.16727871  0.37437641  1
  Na  Na86  1  0.74937258  0.16722466  0.62502510  1
  Na  Na87  1  0.74844312  0.16795663  0.87463080  1
  Na  Na88  1  0.75068481  0.49915038  0.12517194  1
  Na  Na89  1  0.75039921  0.49987790  0.37335061  1
  Na  Na90  1  0.75019594  0.49945570  0.62481979  1
  Na  Na91  1  0.74887449  0.49953512  0.87611900  1
  Na  Na92  1  0.75109809  0.83313371  0.12560990  1
  Na  Na93  1  0.75017761  0.83355722  0.37393228  1
  Na  Na94  1  0.75073778  0.83324744  0.62398218  1
  Na  Na95  1  0.75109087  0.83311539  0.87652696  1
  Mn  Mn96  1  0.85850447  0.75031259  0.00334174  1
  Mn  Mn97  1  0.64211272  0.91748068  0.99864979  1
  Mn  Mn98  1  0.39249885  0.58341253  0.62667236  1
  Mn  Mn99  1  0.85796358  0.08330649  0.25245268  1
  Mn  Mn100  1  0.35714955  0.08337785  0.00218041  1
  Mn  Mn101  1  0.60835908  0.41663355  0.62255541  1
  Mn  Mn102  1  0.14194858  0.91688440  0.74696954  1
  Mn  Mn103  1  0.35879051  0.08333959  0.50256297  1
  Mn  Mn104  1  0.14267468  0.24942218  0.24789578  1
  Mn  Mn105  1  0.10738629  0.08356110  0.62173886  1
  Mn  Mn106  1  0.10679804  0.74918656  0.37292877  1
  Mn  Mn107  1  0.85744903  0.08354593  0.75272473  1
  Mn  Mn108  1  0.39144422  0.58302270  0.87768122  1
  Mn  Mn109  1  0.35775424  0.74983069  0.25205061  1
  Mn  Mn110  1  0.14125819  0.58344071  0.24822653  1
  Mn  Mn111  1  0.89193364  0.91698273  0.62672577  1
  Mn  Mn112  1  0.10789668  0.75002715  0.87236919  1
  Mn  Mn113  1  0.10737270  0.08388741  0.37299517  1
  Mn  Mn114  1  0.39170748  0.91683655  0.87719972  1
  Mn  Mn115  1  0.10820357  0.08339666  0.12338856  1
  Mn  Mn116  1  0.64300827  0.58385507  0.24729725  1
  Mn  Mn117  1  0.89269207  0.91767005  0.87730044  1
  Mn  Mn118  1  0.64202212  0.25014772  0.24685986  1
  Mn  Mn119  1  0.14178174  0.24944551  0.49780739  1
  Mn  Mn120  1  0.35747417  0.74942674  0.75193789  1
  Mn  Mn121  1  0.64255439  0.91643154  0.74801657  1
  Mn  Mn122  1  0.35687623  0.74933965  0.00288071  1
  Mn  Mn123  1  0.64185855  0.58289632  0.99810634  1
  Mn  Mn124  1  0.10741350  0.41719419  0.12326183  1
  Mn  Mn125  1  0.14183751  0.58350336  0.49738374  1
  Mn  Mn126  1  0.60904094  0.75033951  0.62228781  1
  Mn  Mn127  1  0.39300681  0.58405828  0.37757467  1
  Mn  Mn128  1  0.60771336  0.08381467  0.87329745  1
  Mn  Mn129  1  0.39310200  0.91734466  0.62647584  1
  Mn  Mn130  1  0.60676540  0.08367044  0.12245420  1
  Mn  Mn131  1  0.89278744  0.24961533  0.87707924  1
  Mn  Mn132  1  0.89255123  0.58279243  0.87734100  1
  Mn  Mn133  1  0.14185300  0.58263609  0.74669659  1
  Mn  Mn134  1  0.85870202  0.08403012  0.00201478  1
  Mn  Mn135  1  0.39317125  0.24939067  0.62686890  1
  Mn  Mn136  1  0.60813742  0.74938038  0.87252158  1
  Mn  Mn137  1  0.64257465  0.58349302  0.74813794  1
  Mn  Mn138  1  0.89145432  0.58291762  0.62731209  1
  Mn  Mn139  1  0.39326326  0.24961196  0.37787211  1
  Mn  Mn140  1  0.89151249  0.24994669  0.37784827  1
  Mn  Mn141  1  0.39166435  0.58368272  0.12728699  1
  Mn  Mn142  1  0.85742944  0.41605548  0.00181134  1
  Mn  Mn143  1  0.35828267  0.08383021  0.75192365  1
  Fe  Fe144  1  0.10835033  0.08383088  0.87286161  1
  Fe  Fe145  1  0.60820697  0.75010820  0.37325154  1
  Fe  Fe146  1  0.60649197  0.41678399  0.12339964  1
  Fe  Fe147  1  0.35719980  0.41698672  0.50146086  1
  Fe  Fe148  1  0.89270896  0.58331139  0.12603868  1
  Fe  Fe149  1  0.60787030  0.41698717  0.37321194  1
  Fe  Fe150  1  0.10642139  0.74986305  0.12437131  1
  Fe  Fe151  1  0.89351345  0.91675654  0.12712559  1
  Fe  Fe152  1  0.39386047  0.91622848  0.37683729  1
  Fe  Fe153  1  0.14291227  0.91694829  0.24881486  1
  Fe  Fe154  1  0.64247896  0.25045181  0.74832390  1
  Fe  Fe155  1  0.89186506  0.58325705  0.37713333  1
  Fe  Fe156  1  0.14171051  0.58254107  0.99873943  1
  Fe  Fe157  1  0.14313981  0.25018993  0.74806737  1
  Fe  Fe158  1  0.14292651  0.91655334  0.49774840  1
  Fe  Fe159  1  0.89254583  0.24997933  0.12553632  1
  Fe  Fe160  1  0.39199499  0.91644770  0.12735314  1
  Fe  Fe161  1  0.89239601  0.91665411  0.37714058  1
  Fe  Fe162  1  0.35790279  0.08302070  0.25193908  1
  Fe  Fe163  1  0.64329218  0.91638754  0.24776073  1
  Fe  Fe164  1  0.64335475  0.58311017  0.49779192  1
  Fe  Fe165  1  0.10690145  0.74957469  0.62242734  1
  Fe  Fe166  1  0.10636255  0.41673738  0.37366905  1
  Fe  Fe167  1  0.85703113  0.41668020  0.75227976  1
  Fe  Fe168  1  0.85810086  0.74968300  0.75105223  1
  Fe  Fe169  1  0.64369496  0.25058334  0.49852597  1
  Fe  Fe170  1  0.89189008  0.25040460  0.62734932  1
  Fe  Fe171  1  0.39220572  0.25002804  0.12638797  1
  Fe  Fe172  1  0.10802806  0.41588083  0.87267446  1
  Fe  Fe173  1  0.64339812  0.91634044  0.49726686  1
  Fe  Fe174  1  0.35773759  0.74986239  0.50165420  1
  Fe  Fe175  1  0.14236727  0.91688438  0.99885167  1
  Fe  Fe176  1  0.60750905  0.74987157  0.12369533  1
  Fe  Fe177  1  0.14300250  0.25020657  0.99836089  1
  Fe  Fe178  1  0.39262370  0.25003870  0.87638092  1
  Fe  Fe179  1  0.35763559  0.41671184  0.25241522  1
  Fe  Fe180  1  0.85640315  0.75016168  0.50148969  1
  Fe  Fe181  1  0.60801064  0.08291370  0.37278550  1
  Fe  Fe182  1  0.85766134  0.75011392  0.25135870  1
  Fe  Fe183  1  0.60882145  0.08332840  0.62270634  1
  Fe  Fe184  1  0.85717428  0.41678875  0.25153557  1
  Fe  Fe185  1  0.35666588  0.41695968  0.00147732  1
  Fe  Fe186  1  0.10654814  0.41696003  0.62289593  1
  Fe  Fe187  1  0.85662115  0.41639331  0.50163004  1
  Fe  Fe188  1  0.85593090  0.08364712  0.50162163  1
  Fe  Fe189  1  0.60622679  0.41664484  0.87319941  1
  Fe  Fe190  1  0.35663555  0.41637318  0.75173013  1
  Fe  Fe191  1  0.64165932  0.24993893  0.99888085  1
  P  P192  1  0.05297488  0.25039839  0.10973409  1
  P  P193  1  0.05295379  0.25111023  0.36032411  1
  P  P194  1  0.05285449  0.25137940  0.61122525  1
  P  P195  1  0.05600332  0.25007056  0.86042223  1
  P  P196  1  0.05207581  0.58412906  0.11005864  1
  P  P197  1  0.05123239  0.58212948  0.36044968  1
  P  P198  1  0.05269069  0.58306995  0.60969288  1
  P  P199  1  0.05492295  0.58198412  0.86081780  1
  P  P200  1  0.05417980  0.91594759  0.11157781  1
  P  P201  1  0.05380227  0.91665670  0.36089409  1
  P  P202  1  0.05385550  0.91572227  0.60860673  1
  P  P203  1  0.05491882  0.91782635  0.86082073  1
  P  P204  1  0.55188260  0.25102272  0.10982348  1
  P  P205  1  0.55583182  0.25048865  0.36156309  1
  P  P206  1  0.55595439  0.24959912  0.61027543  1
  P  P207  1  0.55383930  0.25126886  0.86070113  1
  P  P208  1  0.55312378  0.58312244  0.11055475  1
  P  P209  1  0.55568083  0.58328910  0.36136270  1
  P  P210  1  0.55475245  0.58309689  0.60877686  1
  P  P211  1  0.55276781  0.58197124  0.85982774  1
  P  P212  1  0.55296145  0.91599413  0.11176906  1
  P  P213  1  0.55551597  0.91619161  0.36056289  1
  P  P214  1  0.55523610  0.91739703  0.60876970  1
  P  P215  1  0.55313383  0.91656031  0.86011004  1
  P  P216  1  0.44540719  0.08352100  0.14064175  1
  P  P217  1  0.44737586  0.08219045  0.38871626  1
  P  P218  1  0.44934240  0.08337757  0.63975450  1
  P  P219  1  0.44661860  0.08453038  0.89002878  1
  P  P220  1  0.44539822  0.41608999  0.13941828  1
  P  P221  1  0.44661289  0.41679498  0.38977013  1
  P  P222  1  0.44512378  0.41648627  0.63933498  1
  P  P223  1  0.44506383  0.41560638  0.88913981  1
  P  P224  1  0.44787089  0.75026308  0.14047850  1
  P  P225  1  0.44779449  0.75106393  0.39039230  1
  P  P226  1  0.44625167  0.75018413  0.63858502  1
  P  P227  1  0.44653104  0.74971147  0.89043727  1
  P  P228  1  0.94704965  0.08376585  0.14002480  1
  P  P229  1  0.94552926  0.08254743  0.39112807  1
  P  P230  1  0.94461461  0.08429959  0.63868304  1
  P  P231  1  0.94896368  0.08386158  0.88998166  1
  P  P232  1  0.94569660  0.41612156  0.13994172  1
  P  P233  1  0.94510329  0.41734138  0.38965049  1
  P  P234  1  0.94487640  0.41584135  0.63963645  1
  P  P235  1  0.94712518  0.41598150  0.88878352  1
  P  P236  1  0.94730905  0.75022644  0.14055817  1
  P  P237  1  0.94381107  0.75016439  0.38909530  1
  P  P238  1  0.94588392  0.75004128  0.63887317  1
  P  P239  1  0.94555069  0.75021920  0.88893432  1
  P  P240  1  0.19829010  0.08251676  0.23555901  1
  P  P241  1  0.19716997  0.08263606  0.48445323  1
  P  P242  1  0.19575664  0.08458947  0.73552175  1
  P  P243  1  0.19582812  0.08328320  0.98502065  1
  P  P244  1  0.19652259  0.41647967  0.23653909  1
  P  P245  1  0.19553341  0.41643335  0.48527992  1
  P  P246  1  0.19566671  0.41533962  0.73514695  1
  P  P247  1  0.19661488  0.41627968  0.98500673  1
  P  P248  1  0.19548642  0.75091149  0.23502534  1
  P  P249  1  0.19645928  0.75050718  0.48568789  1
  P  P250  1  0.19567074  0.74979752  0.73348615  1
  P  P251  1  0.19420037  0.74979706  0.98709673  1
  P  P252  1  0.69516761  0.08238905  0.23605917  1
  P  P253  1  0.69614249  0.08377121  0.48534297  1
  P  P254  1  0.69592595  0.08434355  0.73453277  1
  P  P255  1  0.69687638  0.08454566  0.98561310  1
  P  P256  1  0.69595482  0.41706169  0.23507084  1
  P  P257  1  0.69757102  0.41656514  0.48459630  1
  P  P258  1  0.69636645  0.41625501  0.73630784  1
  P  P259  1  0.69397444  0.41548753  0.98596020  1
  P  P260  1  0.69640196  0.75090762  0.23566214  1
  P  P261  1  0.69756964  0.74972863  0.48400024  1
  P  P262  1  0.69883268  0.74972229  0.73484831  1
  P  P263  1  0.69566616  0.75020908  0.98670052  1
  P  P264  1  0.30384265  0.25106455  0.01396762  1
  P  P265  1  0.30559190  0.24996913  0.26382092  1
  P  P266  1  0.30358611  0.25089898  0.51485835  1
  P  P267  1  0.30322206  0.25070148  0.76511857  1
  P  P268  1  0.30110419  0.58224439  0.01512976  1
  P  P269  1  0.30312816  0.58270566  0.26543806  1
  P  P270  1  0.30353789  0.58322079  0.51451822  1
  P  P271  1  0.30294586  0.58221563  0.76469886  1
  P  P272  1  0.30228024  0.91634967  0.01577274  1
  P  P273  1  0.30466721  0.91691566  0.26484276  1
  P  P274  1  0.30407652  0.91590313  0.51349385  1
  P  P275  1  0.30311361  0.91664114  0.76469289  1
  P  P276  1  0.80224644  0.25009542  0.01561574  1
  P  P277  1  0.80467298  0.25086846  0.26339177  1
  P  P278  1  0.80270619  0.25026128  0.51536864  1
  P  P279  1  0.80321034  0.25104108  0.76420005  1
  P  P280  1  0.80390363  0.58288625  0.01602034  1
  P  P281  1  0.80600652  0.58336310  0.26348286  1
  P  P282  1  0.80336819  0.58307463  0.51309430  1
  P  P283  1  0.80369342  0.58288734  0.76520482  1
  P  P284  1  0.80437324  0.91741192  0.01643465  1
  P  P285  1  0.80478050  0.91601876  0.26429375  1
  P  P286  1  0.80324301  0.91682351  0.51298284  1
  P  P287  1  0.80352561  0.91601398  0.76509865  1
  O  O288  1  0.05674639  0.25039176  0.18645698  1
  O  O289  1  0.05587268  0.25044000  0.43704496  1
  O  O290  1  0.05815605  0.25053902  0.68777464  1
  O  O291  1  0.05999494  0.25043500  0.93720121  1
  O  O292  1  0.05532426  0.58324970  0.18678389  1
  O  O293  1  0.05528881  0.58266490  0.43708708  1
  O  O294  1  0.05561819  0.58325725  0.68649812  1
  O  O295  1  0.05882489  0.58219717  0.93761286  1
  O  O296  1  0.05875962  0.91701823  0.18826984  1
  O  O297  1  0.05896685  0.91664042  0.43752102  1
  O  O298  1  0.05674418  0.91655426  0.68542198  1
  O  O299  1  0.05877320  0.91713562  0.93761452  1
  O  O300  1  0.55574164  0.25054434  0.18653522  1
  O  O301  1  0.56008656  0.25068804  0.43831688  1
  O  O302  1  0.55945358  0.25074905  0.68709212  1
  O  O303  1  0.55795133  0.25047848  0.93737704  1
  O  O304  1  0.55630446  0.58313843  0.18731107  1
  O  O305  1  0.55981996  0.58310219  0.43808551  1
  O  O306  1  0.55762209  0.58292069  0.68561944  1
  O  O307  1  0.55587712  0.58249099  0.93656922  1
  O  O308  1  0.55823930  0.91637791  0.18836871  1
  O  O309  1  0.56036259  0.91629854  0.43727799  1
  O  O310  1  0.55782387  0.91625000  0.68557408  1
  O  O311  1  0.55611869  0.91657377  0.93690488  1
  O  O312  1  0.44246893  0.08340953  0.06382895  1
  O  O313  1  0.44207310  0.08282120  0.31214729  1
  O  O314  1  0.44531878  0.08348836  0.56301337  1
  O  O315  1  0.44420759  0.08407304  0.81325001  1
  O  O316  1  0.44049243  0.41682247  0.06272151  1
  O  O317  1  0.44163300  0.41690372  0.31308050  1
  O  O318  1  0.44066258  0.41652536  0.56250011  1
  O  O319  1  0.44049552  0.41632789  0.81246979  1
  O  O320  1  0.44353859  0.74964442  0.06384003  1
  O  O321  1  0.44366216  0.75033903  0.31375543  1
  O  O322  1  0.44157556  0.74996278  0.56181460  1
  O  O323  1  0.44328369  0.74951434  0.81363989  1
  O  O324  1  0.94479613  0.08372226  0.06328798  1
  O  O325  1  0.94295151  0.08324260  0.31428985  1
  O  O326  1  0.93953925  0.08375710  0.56203875  1
  O  O327  1  0.94449989  0.08393204  0.81330577  1
  O  O328  1  0.94330375  0.41585886  0.06315039  1
  O  O329  1  0.94063441  0.41658376  0.31300134  1
  O  O330  1  0.93972763  0.41622025  0.56292367  1
  O  O331  1  0.94180478  0.41610713  0.81217419  1
  O  O332  1  0.94469895  0.75046569  0.06378422  1
  O  O333  1  0.94038105  0.75049692  0.31232348  1
  O  O334  1  0.94029732  0.75002212  0.56219152  1
  O  O335  1  0.94130122  0.75014559  0.81215417  1
  O  O336  1  0.19343592  0.08339305  0.06186843  1
  O  O337  1  0.19422289  0.08322197  0.31215067  1
  O  O338  1  0.19349075  0.08338038  0.56131299  1
  O  O339  1  0.19196922  0.08391472  0.81223969  1
  O  O340  1  0.19326760  0.41610318  0.06177155  1
  O  O341  1  0.19101162  0.41680983  0.31307427  1
  O  O342  1  0.19041549  0.41646175  0.56196629  1
  O  O343  1  0.19131515  0.41621155  0.81182218  1
  O  O344  1  0.19019009  0.74976577  0.06383998  1
  O  O345  1  0.19260322  0.75012377  0.31177434  1
  O  O346  1  0.19121307  0.74963641  0.56229319  1
  O  O347  1  0.19254263  0.74982455  0.81029031  1
  O  O348  1  0.69362562  0.08379938  0.06238084  1
  O  O349  1  0.69112128  0.08301981  0.31284608  1
  O  O350  1  0.69242050  0.08343580  0.56205144  1
  O  O351  1  0.69289461  0.08381274  0.81134285  1
  O  O352  1  0.68985833  0.41635661  0.06269034  1
  O  O353  1  0.69125194  0.41686344  0.31185003  1
  O  O354  1  0.69431868  0.41678582  0.56090201  1
  O  O355  1  0.69132576  0.41657700  0.81315017  1
  O  O356  1  0.69088350  0.75008407  0.06346751  1
  O  O357  1  0.69170430  0.75018633  0.31230710  1
  O  O358  1  0.69454912  0.74981258  0.56056630  1
  O  O359  1  0.69504347  0.74976225  0.81160279  1
  O  O360  1  0.30906906  0.25008766  0.18696241  1
  O  O361  1  0.30709459  0.25024263  0.43817872  1
  O  O362  1  0.30715744  0.24981670  0.68841390  1
  O  O363  1  0.30836782  0.25033175  0.93736698  1
  O  O364  1  0.30603761  0.58311927  0.18864641  1
  O  O365  1  0.30671356  0.58350500  0.43782219  1
  O  O366  1  0.30631102  0.58275611  0.68794281  1
  O  O367  1  0.30481808  0.58308576  0.93847832  1
  O  O368  1  0.30920169  0.91605644  0.18810406  1
  O  O369  1  0.30937389  0.91646852  0.43686652  1
  O  O370  1  0.30669901  0.91689728  0.68790918  1
  O  O371  1  0.30606283  0.91613030  0.93908860  1
  O  O372  1  0.80906167  0.25023010  0.18681560  1
  O  O373  1  0.80586514  0.25026913  0.43842605  1
  O  O374  1  0.80800520  0.25053533  0.68760834  1
  O  O375  1  0.80642553  0.25006642  0.93889202  1
  O  O376  1  0.80993663  0.58344363  0.18673861  1
  O  O377  1  0.80758077  0.58292382  0.43629812  1
  O  O378  1  0.80596574  0.58255309  0.68848319  1
  O  O379  1  0.80715476  0.58285288  0.93923443  1
  O  O380  1  0.80990281  0.91667183  0.18766853  1
  O  O381  1  0.80762200  0.91702168  0.43633236  1
  O  O382  1  0.80631745  0.91682169  0.68830329  1
  O  O383  1  0.80751342  0.91737977  0.93963832  1
  O  O384  1  0.23346019  0.25009961  0.03785968  1
  O  O385  1  0.23571818  0.25021791  0.28854307  1
  O  O386  1  0.23389466  0.25037391  0.53988855  1
  O  O387  1  0.23313099  0.25078192  0.78936044  1
  O  O388  1  0.23109149  0.58195825  0.03988739  1
  O  O389  1  0.23350219  0.58353293  0.29077308  1
  O  O390  1  0.23386497  0.58263135  0.53970174  1
  O  O391  1  0.23321844  0.58258123  0.78955483  1
  O  O392  1  0.23206760  0.91693256  0.03989648  1
  O  O393  1  0.23422808  0.91650727  0.28834105  1
  O  O394  1  0.23367154  0.91625707  0.53698221  1
  O  O395  1  0.23337225  0.91647587  0.78946965  1
  O  O396  1  0.73219330  0.25049592  0.04002168  1
  O  O397  1  0.73462525  0.25024373  0.28740932  1
  O  O398  1  0.73264271  0.25042389  0.53983347  1
  O  O399  1  0.73288488  0.25058529  0.78792245  1
  O  O400  1  0.73418169  0.58287038  0.04087398  1
  O  O401  1  0.73587642  0.58359533  0.28742481  1
  O  O402  1  0.73321247  0.58297389  0.53737742  1
  O  O403  1  0.73436390  0.58322998  0.79147377  1
  O  O404  1  0.73464172  0.91705112  0.04137989  1
  O  O405  1  0.73427560  0.91649511  0.28747609  1
  O  O406  1  0.73291722  0.91646339  0.53693017  1
  O  O407  1  0.73402787  0.91653682  0.79077930  1
  O  O408  1  0.26828214  0.08267801  0.21098214  1
  O  O409  1  0.26694243  0.08311152  0.45979741  1
  O  O410  1  0.26558884  0.08392384  0.71072425  1
  O  O411  1  0.26545478  0.08349711  0.95952716  1
  O  O412  1  0.26693002  0.41612232  0.21314939  1
  O  O413  1  0.26607101  0.41684463  0.46212944  1
  O  O414  1  0.26604118  0.41575072  0.71153118  1
  O  O415  1  0.26665416  0.41663698  0.96022704  1
  O  O416  1  0.26516632  0.74993852  0.20986171  1
  O  O417  1  0.26685567  0.75033439  0.46209938  1
  O  O418  1  0.26541276  0.74976627  0.70868040  1
  O  O419  1  0.26405799  0.74978663  0.96227336  1
  O  O420  1  0.76523370  0.08308864  0.21214927  1
  O  O421  1  0.76642511  0.08379692  0.46097312  1
  O  O422  1  0.76563660  0.08361001  0.70952479  1
  O  O423  1  0.76638008  0.08442804  0.95998881  1
  O  O424  1  0.76639791  0.41707722  0.21190584  1
  O  O425  1  0.76772182  0.41645160  0.45964160  1
  O  O426  1  0.76661950  0.41648508  0.71253220  1
  O  O427  1  0.76408773  0.41604342  0.96189693  1
  O  O428  1  0.76693031  0.75015744  0.21239901  1
  O  O429  1  0.76763421  0.75002362  0.45913340  1
  O  O430  1  0.76870107  0.74950045  0.70983175  1
  O  O431  1  0.76586427  0.75028117  0.96328955  1
  O  O432  1  0.01650206  0.08357688  0.16609015  1
  O  O433  1  0.01513065  0.08369303  0.41639906  1
  O  O434  1  0.01490291  0.08374294  0.66211091  1
  O  O435  1  0.01896515  0.08405842  0.91425451  1
  O  O436  1  0.01535047  0.41701057  0.16543762  1
  O  O437  1  0.01532472  0.41643503  0.41369787  1
  O  O438  1  0.01538803  0.41681350  0.66281614  1
  O  O439  1  0.01749227  0.41557969  0.91215438  1
  O  O440  1  0.01712813  0.75029795  0.16602114  1
  O  O441  1  0.01383425  0.74973163  0.41346441  1
  O  O442  1  0.01639187  0.75009503  0.66196544  1
  O  O443  1  0.01554557  0.75001440  0.91288697  1
  O  O444  1  0.51514595  0.08356730  0.16579386  1
  O  O445  1  0.51795269  0.08259043  0.41176343  1
  O  O446  1  0.51932814  0.08344520  0.66410674  1
  O  O447  1  0.51600256  0.08404483  0.91604144  1
  O  O448  1  0.51587948  0.41661931  0.16299553  1
  O  O449  1  0.51716138  0.41676673  0.41296449  1
  O  O450  1  0.51521868  0.41644793  0.66280731  1
  O  O451  1  0.51538647  0.41596666  0.91290671  1
  O  O452  1  0.51795005  0.75010956  0.16497597  1
  O  O453  1  0.51814566  0.75045027  0.41413963  1
  O  O454  1  0.51632472  0.75002280  0.66236734  1
  O  O455  1  0.51619986  0.74983900  0.91545928  1
  O  O456  1  0.48171543  0.25041905  0.08557807  1
  O  O457  1  0.48584090  0.25041667  0.33745977  1
  O  O458  1  0.48601376  0.25002982  0.58563301  1
  O  O459  1  0.48364690  0.25065713  0.83645232  1
  O  O460  1  0.48351048  0.58285364  0.08512672  1
  O  O461  1  0.48571617  0.58363462  0.33702353  1
  O  O462  1  0.48498404  0.58318792  0.58382819  1
  O  O463  1  0.48325628  0.58236480  0.83435652  1
  O  O464  1  0.48249968  0.91652706  0.08831662  1
  O  O465  1  0.48498961  0.91622975  0.33729267  1
  O  O466  1  0.48561033  0.91711691  0.58338143  1
  O  O467  1  0.48364142  0.91692347  0.83454549  1
  O  O468  1  0.98292938  0.25016102  0.08508518  1
  O  O469  1  0.98318818  0.25064129  0.33537870  1
  O  O470  1  0.98246140  0.25103259  0.58770191  1
  O  O471  1  0.98596217  0.25019799  0.83611898  1
  O  O472  1  0.98207302  0.58308724  0.08515345  1
  O  O473  1  0.98115054  0.58337328  0.33622293  1
  O  O474  1  0.98307218  0.58267901  0.58452325  1
  O  O475  1  0.98505646  0.58291976  0.83623817  1
  O  O476  1  0.98380682  0.91663179  0.08777719  1
  O  O477  1  0.98321706  0.91638413  0.33796203  1
  O  O478  1  0.98402298  0.91627212  0.58391472  1
  O  O479  1  0.98514808  0.91728618  0.83588613  1
  O  O480  1  0.08686189  0.31540373  0.07700025  1
  O  O481  1  0.08681306  0.31627389  0.32806372  1
  O  O482  1  0.08583244  0.31664303  0.57804083  1
  O  O483  1  0.08974352  0.31501487  0.82723903  1
  O  O484  1  0.08558116  0.64948711  0.07787862  1
  O  O485  1  0.08544008  0.64693024  0.32766857  1
  O  O486  1  0.08653122  0.64816814  0.57705666  1
  O  O487  1  0.08891332  0.64685127  0.82797795  1
  O  O488  1  0.08804689  0.98058950  0.07795954  1
  O  O489  1  0.08683792  0.98172412  0.32727800  1
  O  O490  1  0.08832776  0.98060564  0.57602858  1
  O  O491  1  0.08835554  0.98316394  0.82821491  1
  O  O492  1  0.58551056  0.31605601  0.07713318  1
  O  O493  1  0.58904853  0.31574087  0.32839265  1
  O  O494  1  0.59001513  0.31425453  0.57703796  1
  O  O495  1  0.58714516  0.31651454  0.82754674  1
  O  O496  1  0.58719079  0.64829754  0.07835432  1
  O  O497  1  0.58937600  0.64844059  0.32858466  1
  O  O498  1  0.58921841  0.64800827  0.57653374  1
  O  O499  1  0.58721226  0.64690077  0.82739535  1
  O  O500  1  0.58606136  0.98110895  0.07818952  1
  O  O501  1  0.58882939  0.98112435  0.32707837  1
  O  O502  1  0.58941956  0.98266359  0.57690638  1
  O  O503  1  0.58761444  0.98162706  0.82818279  1
  O  O504  1  0.41125777  0.01848275  0.17311591  1
  O  O505  1  0.41460366  0.01696260  0.42207176  1
  O  O506  1  0.41539850  0.01843504  0.67236274  1
  O  O507  1  0.41195316  0.01975079  0.92234792  1
  O  O508  1  0.41242792  0.35078555  0.17251813  1
  O  O509  1  0.41332211  0.35189689  0.42325948  1
  O  O510  1  0.41163044  0.35148624  0.67258104  1
  O  O511  1  0.41181126  0.35040195  0.92220854  1
  O  O512  1  0.41422630  0.68515158  0.17340720  1
  O  O513  1  0.41372080  0.68633728  0.42354015  1
  O  O514  1  0.41277893  0.68513990  0.67176243  1
  O  O515  1  0.41251274  0.68458112  0.92300475  1
  O  O516  1  0.91264162  0.01876274  0.17227698  1
  O  O517  1  0.91168894  0.01713013  0.42298770  1
  O  O518  1  0.91146075  0.01915992  0.67203212  1
  O  O519  1  0.91527178  0.01892638  0.92290181  1
  O  O520  1  0.91188966  0.35085454  0.17236813  1
  O  O521  1  0.91113766  0.35265540  0.42326656  1
  O  O522  1  0.91201028  0.35074668  0.67322957  1
  O  O523  1  0.91367065  0.35113031  0.92221821  1
  O  O524  1  0.91306491  0.68508818  0.17259615  1
  O  O525  1  0.90990645  0.68512708  0.42183544  1
  O  O526  1  0.91276781  0.68499123  0.67239174  1
  O  O527  1  0.91202838  0.68522062  0.92207448  1
  O  O528  1  0.16442601  0.01735828  0.20316532  1
  O  O529  1  0.16332362  0.01746490  0.45224465  1
  O  O530  1  0.16151078  0.01994145  0.70238661  1
  O  O531  1  0.16168520  0.01810753  0.95294344  1
  O  O532  1  0.16326991  0.35157894  0.20294491  1
  O  O533  1  0.16246131  0.35140159  0.45176541  1
  O  O534  1  0.16238652  0.35017914  0.70210590  1
  O  O535  1  0.16307244  0.35107925  0.95220944  1
  O  O536  1  0.16044211  0.68635412  0.20253745  1
  O  O537  1  0.16318837  0.68546844  0.45207502  1
  O  O538  1  0.16136444  0.68480899  0.70102498  1
  O  O539  1  0.16065151  0.68458284  0.95427806  1
  O  O540  1  0.66207571  0.01707765  0.20327695  1
  O  O541  1  0.66257737  0.01881330  0.45201583  1
  O  O542  1  0.66143197  0.01957886  0.70186453  1
  O  O543  1  0.66269198  0.01951539  0.95320890  1
  O  O544  1  0.66243726  0.35227306  0.20161100  1
  O  O545  1  0.66368790  0.35139220  0.45183718  1
  O  O546  1  0.66311140  0.35124709  0.70309967  1
  O  O547  1  0.66064313  0.35018797  0.95319514  1
  O  O548  1  0.66277030  0.68620318  0.20203191  1
  O  O549  1  0.66380468  0.68463737  0.45124205  1
  O  O550  1  0.66476638  0.68481107  0.70224102  1
  O  O551  1  0.66258206  0.68502288  0.95337030  1
  O  O552  1  0.33674182  0.31644926  0.04709877  1
  O  O553  1  0.33948275  0.31494896  0.29661797  1
  O  O554  1  0.33736287  0.31618344  0.54702853  1
  O  O555  1  0.33714218  0.31579360  0.79762966  1
  O  O556  1  0.33473223  0.64726350  0.04828845  1
  O  O557  1  0.33772329  0.64768154  0.29755855  1
  O  O558  1  0.33732221  0.64849008  0.54692259  1
  O  O559  1  0.33692923  0.64715807  0.79747656  1
  O  O560  1  0.33650716  0.98126577  0.04830810  1
  O  O561  1  0.33812176  0.98202443  0.29783076  1
  O  O562  1  0.33727066  0.98094015  0.54717517  1
  O  O563  1  0.33686248  0.98184049  0.79723619  1
  O  O564  1  0.83650735  0.31494360  0.04826791  1
  O  O565  1  0.83764176  0.31625469  0.29647145  1
  O  O566  1  0.83661561  0.31527995  0.54788383  1
  O  O567  1  0.83635323  0.31608344  0.79761011  1
  O  O568  1  0.83824196  0.64776079  0.04853986  1
  O  O569  1  0.83959771  0.64833344  0.29660929  1
  O  O570  1  0.83673707  0.64823811  0.54602285  1
  O  O571  1  0.83836732  0.64803155  0.79677505  1
  O  O572  1  0.83849325  0.98251099  0.04871842  1
  O  O573  1  0.83819971  0.98083904  0.29810334  1
  O  O574  1  0.83618663  0.98187954  0.54652300  1
  O  O575  1  0.83778114  0.98110227  0.79760152  1
  O  O576  1  0.41135560  0.14874052  0.17281719  1
  O  O577  1  0.41440703  0.14711271  0.42259668  1
  O  O578  1  0.41549326  0.14838780  0.67252406  1
  O  O579  1  0.41252306  0.14990566  0.92181931  1
  O  O580  1  0.41182934  0.48084740  0.17319246  1
  O  O581  1  0.41328442  0.48177672  0.42310839  1
  O  O582  1  0.41151381  0.48141816  0.67253682  1
  O  O583  1  0.41143793  0.48029092  0.92304553  1
  O  O584  1  0.41408771  0.81527856  0.17316942  1
  O  O585  1  0.41435016  0.81630195  0.42308677  1
  O  O586  1  0.41293183  0.81532087  0.67154448  1
  O  O587  1  0.41226509  0.81467613  0.92280625  1
  O  O588  1  0.91272685  0.14896805  0.17192878  1
  O  O589  1  0.91046936  0.14720288  0.42345843  1
  O  O590  1  0.91174933  0.14954138  0.67203159  1
  O  O591  1  0.91514378  0.14885788  0.92284960  1
  O  O592  1  0.91093774  0.48094807  0.17205856  1
  O  O593  1  0.91199022  0.48266078  0.42267113  1
  O  O594  1  0.91122263  0.48069112  0.67302498  1
  O  O595  1  0.91403560  0.48096515  0.92233658  1
  O  O596  1  0.91299840  0.81510401  0.17315450  1
  O  O597  1  0.91039836  0.81529259  0.42221785  1
  O  O598  1  0.91265168  0.81499785  0.67238569  1
  O  O599  1  0.91230627  0.81527693  0.92215786  1
  O  O600  1  0.08734526  0.18553265  0.07729331  1
  O  O601  1  0.08712095  0.18612392  0.32770629  1
  O  O602  1  0.08617776  0.18651070  0.57735439  1
  O  O603  1  0.08961899  0.18492772  0.82755329  1
  O  O604  1  0.08666953  0.51947803  0.07723276  1
  O  O605  1  0.08435745  0.51684717  0.32756030  1
  O  O606  1  0.08691780  0.51781616  0.57778842  1
  O  O607  1  0.08802501  0.51661184  0.82792738  1
  O  O608  1  0.08709243  0.85061023  0.07855976  1
  O  O609  1  0.08716253  0.85177976  0.32741824  1
  O  O610  1  0.08772587  0.85054287  0.57633421  1
  O  O611  1  0.08872890  0.85286739  0.82781652  1
  O  O612  1  0.58596237  0.18616832  0.07689803  1
  O  O613  1  0.58919470  0.18530436  0.32857677  1
  O  O614  1  0.58959092  0.18430366  0.57787051  1
  O  O615  1  0.58803213  0.18664451  0.82740856  1
  O  O616  1  0.58721304  0.51798339  0.07827490  1
  O  O617  1  0.58897749  0.51808998  0.32825267  1
  O  O618  1  0.58895105  0.51819362  0.57635953  1
  O  O619  1  0.58673459  0.51662285  0.82772715  1
  O  O620  1  0.58610717  0.85098647  0.07847983  1
  O  O621  1  0.58868649  0.85099363  0.32735384  1
  O  O622  1  0.58980570  0.85265290  0.57603643  1
  O  O623  1  0.58716988  0.85149924  0.82759560  1
  O  O624  1  0.33784972  0.18647212  0.04752853  1
  O  O625  1  0.33913704  0.18468503  0.29651815  1
  O  O626  1  0.33788490  0.18592381  0.54747008  1
  O  O627  1  0.33710198  0.18589199  0.79836872  1
  O  O628  1  0.33529081  0.51719380  0.04729528  1
  O  O629  1  0.33712453  0.51753238  0.29756970  1
  O  O630  1  0.33781732  0.51809948  0.54665814  1
  O  O631  1  0.33659593  0.51684461  0.79697440  1
  O  O632  1  0.33579475  0.85136853  0.04900103  1
  O  O633  1  0.33823234  0.85203451  0.29835170  1
  O  O634  1  0.33718406  0.85076739  0.54667577  1
  O  O635  1  0.33693652  0.85151762  0.79718382  1
  O  O636  1  0.83625736  0.18520833  0.04849842  1
  O  O637  1  0.83830484  0.18606625  0.29696162  1
  O  O638  1  0.83651747  0.18523823  0.54789710  1
  O  O639  1  0.83658909  0.18601009  0.79768259  1
  O  O640  1  0.83815129  0.51785839  0.04819516  1
  O  O641  1  0.83922694  0.51813829  0.29667712  1
  O  O642  1  0.83677854  0.51810754  0.54631215  1
  O  O643  1  0.83780678  0.51758653  0.79747836  1
  O  O644  1  0.83886712  0.85257624  0.04894690  1
  O  O645  1  0.83781553  0.85084046  0.29749399  1
  O  O646  1  0.83667006  0.85172674  0.54602230  1
  O  O647  1  0.83758304  0.85075765  0.79687383  1
  O  O648  1  0.16453346  0.14748181  0.20247319  1
  O  O649  1  0.16306044  0.14770519  0.45197213  1
  O  O650  1  0.16235932  0.15004612  0.70290968  1
  O  O651  1  0.16153183  0.14833172  0.95284800  1
  O  O652  1  0.16351695  0.48160895  0.20294527  1
  O  O653  1  0.16191273  0.48126600  0.45176199  1
  O  O654  1  0.16194354  0.47999652  0.70137258  1
  O  O655  1  0.16227154  0.48109125  0.95245769  1
  O  O656  1  0.16177854  0.81641156  0.20310914  1
  O  O657  1  0.16316800  0.81551030  0.45248166  1
  O  O658  1  0.16137726  0.81465880  0.70096682  1
  O  O659  1  0.16074990  0.81511773  0.95428101  1
  O  O660  1  0.66133452  0.14718665  0.20292162  1
  O  O661  1  0.66271999  0.14900368  0.45254408  1
  O  O662  1  0.66211799  0.14966945  0.70237281  1
  O  O663  1  0.66260470  0.14977911  0.95372841  1
  O  O664  1  0.66263218  0.48203427  0.20187641  1
  O  O665  1  0.66366597  0.48145390  0.45132718  1
  O  O666  1  0.66315377  0.48117055  0.70282641  1
  O  O667  1  0.66007186  0.48018623  0.95244983  1
  O  O668  1  0.66339002  0.81613231  0.20251073  1
  O  O669  1  0.66345891  0.81469561  0.45125240  1
  O  O670  1  0.66499501  0.81475589  0.70216262  1
  O  O671  1  0.66243688  0.81529149  0.95356028  1
