# generated using pymatgen
data_Na2MnFe(PO4)2
_symmetry_space_group_name_H-M   'P 1'
_cell_length_a   21.09602361
_cell_length_b   18.95052852
_cell_length_c   20.05367130
_cell_angle_alpha   89.99993602
_cell_angle_beta   89.99860454
_cell_angle_gamma   89.99916509
_symmetry_Int_Tables_number   1
_chemical_formula_structural   Na2MnFe(PO4)2
_chemical_formula_sum   'Na96 Mn48 Fe48 P96 O384'
_cell_volume   8017.07269272
_cell_formula_units_Z   48
loop_
 _symmetry_equiv_pos_site_id
 _symmetry_equiv_pos_as_xyz
  1  'x, y, z'
loop_
 _atom_site_type_symbol
 _atom_site_label
 _atom_site_symmetry_multiplicity
 _atom_site_fract_x
 _atom_site_fract_y
 _atom_site_fract_z
 _atom_site_occupancy
  Na  Na0  1  -0.00295793  -0.00145498  0.00094986  1
  Na  Na1  1  0.00201704  0.00064095  0.24927066  1
  Na  Na2  1  0.00273729  0.00051917  0.49928643  1
  Na  Na3  1  -0.00130615  -0.00065429  0.75025211  1
  Na  Na4  1  -0.00065672  0.33282037  0.00007137  1
  Na  Na5  1  0.00223801  0.33381707  0.24899601  1
  Na  Na6  1  0.00303082  0.33378592  0.50012153  1
  Na  Na7  1  0.00058121  0.33299519  0.75084254  1
  Na  Na8  1  -0.00017516  0.66675546  0.00066737  1
  Na  Na9  1  0.00199779  0.66696089  0.25109107  1
  Na  Na10  1  0.00144084  0.66698056  0.50007655  1
  Na  Na11  1  -0.00071506  0.66666306  0.74898106  1
  Na  Na12  1  0.50238464  0.00051494  -0.00095491  1
  Na  Na13  1  0.50094377  -0.00026924  0.25031263  1
  Na  Na14  1  0.49996700  -0.00049764  0.50073888  1
  Na  Na15  1  0.50285607  0.00062658  0.75017868  1
  Na  Na16  1  0.50160306  0.33349223  -0.00026865  1
  Na  Na17  1  0.49762506  0.33289338  0.25096923  1
  Na  Na18  1  0.49804166  0.33342328  0.49933418  1
  Na  Na19  1  0.50160864  0.33342499  0.74957503  1
  Na  Na20  1  0.50013084  0.66732770  0.00018261  1
  Na  Na21  1  0.50094034  0.66779155  0.24892634  1
  Na  Na22  1  0.49823057  0.66663269  0.50087707  1
  Na  Na23  1  0.49751212  0.66627147  0.74928849  1
  Na  Na24  1  0.25107338  0.00048490  0.12527928  1
  Na  Na25  1  0.24760120  -0.00135540  0.37368066  1
  Na  Na26  1  0.24813216  -0.00070295  0.62522117  1
  Na  Na27  1  0.25046590  0.00001492  0.87540975  1
  Na  Na28  1  0.24951967  0.33298522  0.12457335  1
  Na  Na29  1  0.25096627  0.33400231  0.37556388  1
  Na  Na30  1  0.25000010  0.33290192  0.62516726  1
  Na  Na31  1  0.24996246  0.33293728  0.87519192  1
  Na  Na32  1  0.24853410  0.66664235  0.12426877  1
  Na  Na33  1  0.24806058  0.66581988  0.37434418  1
  Na  Na34  1  0.25008980  0.66696033  0.62512892  1
  Na  Na35  1  0.25060405  0.66750290  0.87597134  1
  Na  Na36  1  0.74888980  -0.00026843  0.12433990  1
  Na  Na37  1  0.74923462  -0.00040631  0.37470648  1
  Na  Na38  1  0.74986111  -0.00009218  0.62549630  1
  Na  Na39  1  0.74987009  0.00024490  0.87581606  1
  Na  Na40  1  0.75029042  0.33351752  0.12486319  1
  Na  Na41  1  0.74940030  0.33327063  0.37472668  1
  Na  Na42  1  0.74782151  0.33301385  0.62535117  1
  Na  Na43  1  0.74891201  0.33295376  0.87473883  1
  Na  Na44  1  0.74853774  0.66625911  0.12396563  1
  Na  Na45  1  0.74979387  0.66705813  0.37485280  1
  Na  Na46  1  0.75208731  0.66795379  0.62551744  1
  Na  Na47  1  0.75041750  0.66691061  0.87578041  1
  Na  Na48  1  -0.00193352  0.16762831  0.00057438  1
  Na  Na49  1  0.00164164  0.16668117  0.24844987  1
  Na  Na50  1  0.00267756  0.16666366  0.50021195  1
  Na  Na51  1  -0.00047209  0.16723590  0.75081592  1
  Na  Na52  1  -0.00106623  0.50069351  0.00069769  1
  Na  Na53  1  0.00348688  0.49888266  0.24984201  1
  Na  Na54  1  0.00359789  0.49943405  0.50019058  1
  Na  Na55  1  0.00114287  0.49990745  0.75006104  1
  Na  Na56  1  0.00029257  0.83204566  0.00055032  1
  Na  Na57  1  0.00148285  0.83244849  0.25096386  1
  Na  Na58  1  0.00055094  0.83274589  0.49906561  1
  Na  Na59  1  -0.00139899  0.83295580  0.74933959  1
  Na  Na60  1  0.50346224  0.16606535  -0.00052801  1
  Na  Na61  1  0.50022321  0.16690997  0.25024271  1
  Na  Na62  1  0.49885746  0.16781473  0.50055538  1
  Na  Na63  1  0.50132087  0.16781368  0.75000344  1
  Na  Na64  1  0.49936254  0.50052546  0.00085724  1
  Na  Na65  1  0.49853969  0.50042993  0.25027121  1
  Na  Na66  1  0.49814035  0.50026813  0.49883547  1
  Na  Na67  1  0.50119106  0.49872860  0.74905286  1
  Na  Na68  1  0.50107127  0.83280310  -0.00149266  1
  Na  Na69  1  0.50054235  0.83255902  0.24957293  1
  Na  Na70  1  0.49887947  0.83272679  0.50145981  1
  Na  Na71  1  0.50003907  0.83267114  0.75018241  1
  Na  Na72  1  0.24837335  0.16794552  0.12476631  1
  Na  Na73  1  0.24962357  0.16722347  0.37506781  1
  Na  Na74  1  0.25131048  0.16707612  0.62495527  1
  Na  Na75  1  0.24981083  0.16783463  0.87453731  1
  Na  Na76  1  0.24955370  0.50027680  0.12430479  1
  Na  Na77  1  0.25013709  0.49937683  0.37517254  1
  Na  Na78  1  0.24716951  0.50123148  0.62447558  1
  Na  Na79  1  0.24956412  0.49989625  0.87611756  1
  Na  Na80  1  0.24952144  0.83320345  0.12530372  1
  Na  Na81  1  0.24786751  0.83374704  0.37326601  1
  Na  Na82  1  0.25004650  0.83235385  0.62612815  1
  Na  Na83  1  0.25103644  0.83248952  0.87600154  1
  Na  Na84  1  0.75005038  0.16734467  0.12467371  1
  Na  Na85  1  0.74954712  0.16752085  0.37385518  1
  Na  Na86  1  0.74933262  0.16725776  0.62595360  1
  Na  Na87  1  0.74976948  0.16721277  0.87604505  1
  Na  Na88  1  0.74923211  0.50064881  0.12424360  1
  Na  Na89  1  0.74869442  0.50052075  0.37575671  1
  Na  Na90  1  0.74863559  0.50026430  0.62520689  1
  Na  Na91  1  0.75190200  0.49878413  0.87456884  1
  Na  Na92  1  0.74777842  0.83333181  0.12435805  1
  Na  Na93  1  0.75041222  0.83209286  0.37454414  1
  Na  Na94  1  0.75105128  0.83247284  0.62535374  1
  Na  Na95  1  0.74777689  0.83346854  0.87557217  1
  Mn  Mn96  1  0.60816359  0.08406548  0.62220347  1
  Mn  Mn97  1  0.14220758  0.58342189  0.99721893  1
  Mn  Mn98  1  0.60624272  0.41760435  0.37270489  1
  Mn  Mn99  1  0.89255426  0.58316312  0.12803141  1
  Mn  Mn100  1  0.35812346  0.08312412  0.75278848  1
  Mn  Mn101  1  0.89239129  0.25043996  0.62674977  1
  Mn  Mn102  1  0.14148265  0.91670446  0.74861457  1
  Mn  Mn103  1  0.89306486  0.58254806  0.62671050  1
  Mn  Mn104  1  0.89352484  0.25026598  0.37711907  1
  Mn  Mn105  1  0.85740507  0.08321699  0.75272606  1
  Mn  Mn106  1  0.64209652  0.58346233  0.74804961  1
  Mn  Mn107  1  0.39256112  0.24893337  0.12671296  1
  Mn  Mn108  1  0.14235866  0.91742347  0.99754214  1
  Mn  Mn109  1  0.64168438  0.91597376  0.24755462  1
  Mn  Mn110  1  0.35904863  0.08299835  0.00202317  1
  Mn  Mn111  1  0.89332260  0.58265897  0.37700100  1
  Mn  Mn112  1  0.89224596  0.91708963  0.62663133  1
  Mn  Mn113  1  0.10806778  0.74981437  0.62277890  1
  Mn  Mn114  1  0.89168710  0.91594847  0.12771824  1
  Mn  Mn115  1  0.85778624  0.08277789  0.25251841  1
  Mn  Mn116  1  0.14331069  0.24971625  0.49743254  1
  Mn  Mn117  1  0.10658054  0.08251970  0.87337804  1
  Mn  Mn118  1  0.64177404  0.25084504  0.24779864  1
  Mn  Mn119  1  0.39137032  0.91762205  0.62754804  1
  Mn  Mn120  1  0.60757046  0.41647317  0.12308958  1
  Mn  Mn121  1  0.64222598  0.91669186  0.49769846  1
  Mn  Mn122  1  0.60732721  0.74911128  0.62304152  1
  Mn  Mn123  1  0.35776082  0.08382365  0.25202799  1
  Mn  Mn124  1  0.35756470  0.41728154  0.75231888  1
  Mn  Mn125  1  0.60743160  0.08288254  0.37302019  1
  Mn  Mn126  1  0.39234217  0.58396691  0.12776484  1
  Mn  Mn127  1  0.35820175  0.41655119  0.00190066  1
  Mn  Mn128  1  0.64167498  0.58355535  0.49740955  1
  Mn  Mn129  1  0.10838880  0.08338327  0.62326855  1
  Mn  Mn130  1  0.85838556  0.41675156  0.50206822  1
  Mn  Mn131  1  0.10761911  0.08321287  0.12156218  1
  Mn  Mn132  1  0.85846160  0.41794422  0.25254663  1
  Mn  Mn133  1  0.85863531  0.08356573  0.50153773  1
  Mn  Mn134  1  0.35730943  0.74941944  0.25215285  1
  Mn  Mn135  1  0.64200630  0.58261077  0.99666988  1
  Mn  Mn136  1  0.10700170  0.41705848  0.87279417  1
  Mn  Mn137  1  0.85712986  0.74998545  0.00238439  1
  Mn  Mn138  1  0.39133426  0.91602355  0.37746019  1
  Mn  Mn139  1  0.39346971  0.91714657  0.87730816  1
  Mn  Mn140  1  0.89340351  0.91703860  0.37684035  1
  Mn  Mn141  1  0.35720126  0.08264423  0.50235250  1
  Mn  Mn142  1  0.85756379  0.41678419  0.75178533  1
  Mn  Mn143  1  0.39081303  0.58258059  0.62763984  1
  Fe  Fe144  1  0.39392179  0.25037828  0.87659883  1
  Fe  Fe145  1  0.14328649  0.58397357  0.49776407  1
  Fe  Fe146  1  0.64198344  0.58346534  0.24896449  1
  Fe  Fe147  1  0.85682012  0.74954421  0.25161645  1
  Fe  Fe148  1  0.14233178  0.58323567  0.74919694  1
  Fe  Fe149  1  0.89196909  0.25020297  0.87726431  1
  Fe  Fe150  1  0.39391275  0.91703065  0.12582209  1
  Fe  Fe151  1  0.35666333  0.74983798  0.75233231  1
  Fe  Fe152  1  0.85606705  0.08385893  0.00161965  1
  Fe  Fe153  1  0.60715565  0.75058703  0.12296291  1
  Fe  Fe154  1  0.64216009  0.25013081  0.49801680  1
  Fe  Fe155  1  0.10716525  0.74973099  0.12329774  1
  Fe  Fe156  1  0.10856241  0.08366773  0.37243341  1
  Fe  Fe157  1  0.89142252  0.91615977  0.87694899  1
  Fe  Fe158  1  0.10768083  0.41659612  0.12268966  1
  Fe  Fe159  1  0.39168172  0.25010256  0.37688395  1
  Fe  Fe160  1  0.85722563  0.41610267  0.00157075  1
  Fe  Fe161  1  0.14322049  0.25027167  0.24796180  1
  Fe  Fe162  1  0.14271499  0.25035160  0.74877840  1
  Fe  Fe163  1  0.14274507  0.91664136  0.24712181  1
  Fe  Fe164  1  0.64333544  0.91637257  0.74845265  1
  Fe  Fe165  1  0.60680382  0.41678417  0.62244116  1
  Fe  Fe166  1  0.39171176  0.58384343  0.37622770  1
  Fe  Fe167  1  0.35636992  0.41733865  0.50209504  1
  Fe  Fe168  1  0.89281406  0.58332807  0.87618600  1
  Fe  Fe169  1  0.39238477  0.58269509  0.87593041  1
  Fe  Fe170  1  0.14237332  0.24959994  0.99764083  1
  Fe  Fe171  1  0.60798336  0.08298119  0.12335230  1
  Fe  Fe172  1  0.10911490  0.41618630  0.37254540  1
  Fe  Fe173  1  0.85778392  0.74985833  0.50087707  1
  Fe  Fe174  1  0.14315363  0.58303173  0.24818094  1
  Fe  Fe175  1  0.60845357  0.08369186  0.87303667  1
  Fe  Fe176  1  0.10830010  0.41628127  0.62371660  1
  Fe  Fe177  1  0.64343900  0.25042933  0.99822567  1
  Fe  Fe178  1  0.10781827  0.75004358  0.37285143  1
  Fe  Fe179  1  0.89323614  0.25044763  0.12683927  1
  Fe  Fe180  1  0.85726303  0.75011926  0.75261103  1
  Fe  Fe181  1  0.39341507  0.25010596  0.62733381  1
  Fe  Fe182  1  0.60770519  0.41728098  0.87339578  1
  Fe  Fe183  1  0.60641481  0.74922812  0.87246825  1
  Fe  Fe184  1  0.35626029  0.74989411  0.50063611  1
  Fe  Fe185  1  0.10676264  0.75011198  0.87354792  1
  Fe  Fe186  1  0.60716554  0.74956007  0.37378219  1
  Fe  Fe187  1  0.64226232  0.91722237  0.99789501  1
  Fe  Fe188  1  0.14238661  0.91590805  0.49815207  1
  Fe  Fe189  1  0.35748879  0.75048454  0.00166820  1
  Fe  Fe190  1  0.64262546  0.24982461  0.74823240  1
  Fe  Fe191  1  0.35625136  0.41674673  0.25114135  1
  P  P192  1  0.05470742  0.25082944  0.11019759  1
  P  P193  1  0.05518556  0.25014894  0.35905909  1
  P  P194  1  0.05534612  0.25077773  0.61135806  1
  P  P195  1  0.05320002  0.24962207  0.86118149  1
  P  P196  1  0.05524967  0.58337522  0.11149922  1
  P  P197  1  0.05638513  0.58317232  0.36077907  1
  P  P198  1  0.05610723  0.58263601  0.61064614  1
  P  P199  1  0.05250166  0.58441349  0.85979002  1
  P  P200  1  0.05432249  0.91546445  0.11093487  1
  P  P201  1  0.05615174  0.91652595  0.36027219  1
  P  P202  1  0.05401793  0.91614612  0.60913440  1
  P  P203  1  0.05101325  0.91573606  0.86057401  1
  P  P204  1  0.55431022  0.24942951  0.10944830  1
  P  P205  1  0.55245395  0.25045375  0.36130494  1
  P  P206  1  0.55421449  0.25125160  0.61032438  1
  P  P207  1  0.55508770  0.25059609  0.86084197  1
  P  P208  1  0.55464438  0.58398285  0.11114373  1
  P  P209  1  0.55173663  0.58453533  0.35957539  1
  P  P210  1  0.55259975  0.58255850  0.60985074  1
  P  P211  1  0.55171906  0.58339187  0.85980248  1
  P  P212  1  0.55350541  0.91664894  0.10926247  1
  P  P213  1  0.55281834  0.91497831  0.36036114  1
  P  P214  1  0.55427704  0.91614981  0.61140933  1
  P  P215  1  0.55600806  0.91640095  0.86043070  1
  P  P216  1  0.44862207  0.08228319  0.13962401  1
  P  P217  1  0.44627592  0.08361819  0.39021758  1
  P  P218  1  0.44672065  0.08427051  0.64027898  1
  P  P219  1  0.44903234  0.08451269  0.88943134  1
  P  P220  1  0.44577701  0.41630128  0.14084103  1
  P  P221  1  0.44305251  0.41732014  0.38887495  1
  P  P222  1  0.44606892  0.41592588  0.63861894  1
  P  P223  1  0.44807818  0.41649958  0.88945377  1
  P  P224  1  0.44662665  0.75152964  0.13838762  1
  P  P225  1  0.44672400  0.74892461  0.39030843  1
  P  P226  1  0.44350054  0.75005072  0.63967004  1
  P  P227  1  0.44553029  0.74907771  0.88900334  1
  P  P228  1  0.94484142  0.08410060  0.13849291  1
  P  P229  1  0.94930607  0.08361340  0.38944767  1
  P  P230  1  0.94702288  0.08369479  0.64024798  1
  P  P231  1  0.94493852  0.08317813  0.89106691  1
  P  P232  1  0.94692753  0.41595977  0.13874297  1
  P  P233  1  0.94953750  0.41673980  0.38992597  1
  P  P234  1  0.94871894  0.41654770  0.64008964  1
  P  P235  1  0.94563606  0.41682769  0.89047296  1
  P  P236  1  0.94710509  0.74952356  0.14120139  1
  P  P237  1  0.94681543  0.74953583  0.38895537  1
  P  P238  1  0.94487901  0.74982809  0.63916589  1
  P  P239  1  0.94604686  0.74967397  0.88904978  1
  P  P240  1  0.19540854  0.08386249  0.23547060  1
  P  P241  1  0.19626712  0.08243617  0.48433585  1
  P  P242  1  0.19666675  0.08431614  0.73565577  1
  P  P243  1  0.19717887  0.08415121  0.98467597  1
  P  P244  1  0.19609369  0.41656204  0.23538152  1
  P  P245  1  0.19615948  0.41717986  0.48585854  1
  P  P246  1  0.19592665  0.41683163  0.73515351  1
  P  P247  1  0.19530448  0.41573072  0.98597144  1
  P  P248  1  0.19468877  0.74948607  0.23517764  1
  P  P249  1  0.19689701  0.75002458  0.48474558  1
  P  P250  1  0.19590841  0.74913564  0.73680619  1
  P  P251  1  0.19588259  0.75036653  0.98559519  1
  P  P252  1  0.69586376  0.08333917  0.23411791  1
  P  P253  1  0.69700346  0.08457897  0.48470158  1
  P  P254  1  0.69516994  0.08333467  0.73673897  1
  P  P255  1  0.69552418  0.08381105  0.98609552  1
  P  P256  1  0.69658693  0.41801466  0.23512676  1
  P  P257  1  0.69513098  0.41592565  0.48584483  1
  P  P258  1  0.69431657  0.41612045  0.73554501  1
  P  P259  1  0.69723142  0.41587885  0.98452783  1
  P  P260  1  0.69546200  0.74878386  0.23537269  1
  P  P261  1  0.69724554  0.74991173  0.48459102  1
  P  P262  1  0.69652164  0.75028403  0.73653206  1
  P  P263  1  0.69397261  0.75046675  0.98532042  1
  P  P264  1  0.30380847  0.24987958  0.01364627  1
  P  P265  1  0.30272376  0.25076368  0.26499594  1
  P  P266  1  0.30560740  0.25087938  0.51467301  1
  P  P267  1  0.30429358  0.25056631  0.76466230  1
  P  P268  1  0.30512349  0.58418452  0.01371414  1
  P  P269  1  0.30238331  0.58277182  0.26495556  1
  P  P270  1  0.30308311  0.58376874  0.51333304  1
  P  P271  1  0.30201340  0.58356317  0.76585819  1
  P  P272  1  0.30460816  0.91592477  0.01574887  1
  P  P273  1  0.30347336  0.91659665  0.26297505  1
  P  P274  1  0.30134480  0.91536529  0.51481230  1
  P  P275  1  0.30301339  0.91595377  0.76560117  1
  P  P276  1  0.80434101  0.25042090  0.01420918  1
  P  P277  1  0.80466803  0.25057710  0.26393601  1
  P  P278  1  0.80215398  0.25029114  0.51491456  1
  P  P279  1  0.80260435  0.25029507  0.76558644  1
  P  P280  1  0.80488189  0.58242998  0.01362973  1
  P  P281  1  0.80208743  0.58438864  0.26506069  1
  P  P282  1  0.80353814  0.58382484  0.51488598  1
  P  P283  1  0.80408641  0.58387468  0.76542398  1
  P  P284  1  0.80285676  0.91703291  0.01387236  1
  P  P285  1  0.80303897  0.91524297  0.26489451  1
  P  P286  1  0.80361120  0.91605453  0.51454310  1
  P  P287  1  0.80285140  0.91591899  0.76578134  1
  O  O288  1  0.05970125  0.25036703  0.18683416  1
  O  O289  1  0.05794136  0.25016469  0.43572691  1
  O  O290  1  0.05909606  0.25013598  0.68818900  1
  O  O291  1  0.05810728  0.24957056  0.93782064  1
  O  O292  1  0.05941072  0.58302136  0.18824627  1
  O  O293  1  0.06015443  0.58353413  0.43758209  1
  O  O294  1  0.05956276  0.58368242  0.68744445  1
  O  O295  1  0.05612793  0.58397636  0.93647488  1
  O  O296  1  0.05892072  0.91648638  0.18766062  1
  O  O297  1  0.05966063  0.91611531  0.43705470  1
  O  O298  1  0.05667828  0.91586954  0.68600903  1
  O  O299  1  0.05521328  0.91615330  0.93719914  1
  O  O300  1  0.55654452  0.25049693  0.18620524  1
  O  O301  1  0.55738704  0.25056803  0.43792595  1
  O  O302  1  0.55896620  0.25042336  0.68699731  1
  O  O303  1  0.55974894  0.25043597  0.93752065  1
  O  O304  1  0.55855079  0.58336702  0.18778119  1
  O  O305  1  0.55534576  0.58369121  0.43627541  1
  O  O306  1  0.55625140  0.58341313  0.68655314  1
  O  O307  1  0.55529040  0.58349890  0.93658688  1
  O  O308  1  0.55635959  0.91628159  0.18576792  1
  O  O309  1  0.55584377  0.91556038  0.43718973  1
  O  O310  1  0.55914785  0.91585652  0.68814348  1
  O  O311  1  0.55952266  0.91674533  0.93725059  1
  O  O312  1  0.44514900  0.08317011  0.06290538  1
  O  O313  1  0.44345633  0.08314553  0.31343129  1
  O  O314  1  0.44307585  0.08306460  0.56354194  1
  O  O315  1  0.44482957  0.08401215  0.81284301  1
  O  O316  1  0.44314608  0.41644567  0.06400942  1
  O  O317  1  0.43904761  0.41710243  0.31213337  1
  O  O318  1  0.44083506  0.41721484  0.56200938  1
  O  O319  1  0.44441534  0.41632274  0.81281202  1
  O  O320  1  0.44195333  0.75054261  0.06170416  1
  O  O321  1  0.44313698  0.74966319  0.31364786  1
  O  O322  1  0.43890642  0.75003991  0.56293270  1
  O  O323  1  0.44053900  0.74968788  0.81232282  1
  O  O324  1  0.93970757  0.08332399  0.06181807  1
  O  O325  1  0.94482258  0.08342303  0.31277980  1
  O  O326  1  0.94438899  0.08382056  0.56349781  1
  O  O327  1  0.94272737  0.08329164  0.81414516  1
  O  O328  1  0.94154343  0.41654396  0.06220401  1
  O  O329  1  0.94500437  0.41717761  0.31325689  1
  O  O330  1  0.94491243  0.41653253  0.56343966  1
  O  O331  1  0.94313274  0.41653654  0.81366295  1
  O  O332  1  0.94263948  0.74960560  0.06453603  1
  O  O333  1  0.94154196  0.74929345  0.31238728  1
  O  O334  1  0.94073677  0.74979327  0.56231351  1
  O  O335  1  0.94149491  0.74999749  0.81235444  1
  O  O336  1  0.19377196  0.08354497  0.06129026  1
  O  O337  1  0.19189941  0.08364168  0.31228940  1
  O  O338  1  0.19370048  0.08355428  0.56112540  1
  O  O339  1  0.19313812  0.08375885  0.81239205  1
  O  O340  1  0.19133201  0.41640004  0.06271220  1
  O  O341  1  0.19245469  0.41640793  0.31216359  1
  O  O342  1  0.19188363  0.41635474  0.56250238  1
  O  O343  1  0.19305013  0.41653631  0.81198366  1
  O  O344  1  0.19097563  0.75011804  0.06219420  1
  O  O345  1  0.19102865  0.74969524  0.31205113  1
  O  O346  1  0.19404416  0.74999732  0.56102506  1
  O  O347  1  0.19088085  0.74994773  0.81369486  1
  O  O348  1  0.69131872  0.08341643  0.06275740  1
  O  O349  1  0.69255792  0.08339393  0.31090867  1
  O  O350  1  0.69407042  0.08400638  0.56155119  1
  O  O351  1  0.69170911  0.08376999  0.81353388  1
  O  O352  1  0.69327332  0.41690361  0.06114113  1
  O  O353  1  0.69279200  0.41723385  0.31185288  1
  O  O354  1  0.69088371  0.41670703  0.56260519  1
  O  O355  1  0.69041222  0.41723249  0.81232171  1
  O  O356  1  0.68990332  0.74982678  0.06211188  1
  O  O357  1  0.69095051  0.74949033  0.31203763  1
  O  O358  1  0.69318087  0.74971816  0.56129549  1
  O  O359  1  0.69118855  0.74898323  0.81310739  1
  O  O360  1  0.30641037  0.24979421  0.18829590  1
  O  O361  1  0.30911238  0.25006240  0.43781881  1
  O  O362  1  0.30933154  0.25042521  0.68801643  1
  O  O363  1  0.30970189  0.24992558  0.93705175  1
  O  O364  1  0.30615826  0.58379451  0.18826166  1
  O  O365  1  0.30742258  0.58364153  0.43665823  1
  O  O366  1  0.30524980  0.58277374  0.68919353  1
  O  O367  1  0.30951707  0.58326859  0.93698592  1
  O  O368  1  0.30936315  0.91673202  0.18653191  1
  O  O369  1  0.30482972  0.91608562  0.43795927  1
  O  O370  1  0.30572893  0.91669880  0.68904550  1
  O  O371  1  0.30799828  0.91671857  0.93890041  1
  O  O372  1  0.80926963  0.25076638  0.18718189  1
  O  O373  1  0.80665627  0.25051601  0.43824180  1
  O  O374  1  0.80662749  0.25044207  0.68892278  1
  O  O375  1  0.80857783  0.25050473  0.93749558  1
  O  O376  1  0.80594492  0.58355057  0.18835007  1
  O  O377  1  0.80701227  0.58294554  0.43816903  1
  O  O378  1  0.80718663  0.58314885  0.68866505  1
  O  O379  1  0.80938596  0.58322294  0.93699218  1
  O  O380  1  0.80576120  0.91590584  0.18802515  1
  O  O381  1  0.80700301  0.91667439  0.43781853  1
  O  O382  1  0.80661309  0.91643948  0.68910136  1
  O  O383  1  0.80782570  0.91599100  0.93726639  1
  O  O384  1  0.23339851  0.25013157  0.03681373  1
  O  O385  1  0.23264754  0.25051667  0.28942100  1
  O  O386  1  0.23559561  0.25000651  0.53875920  1
  O  O387  1  0.23376485  0.25087595  0.78785406  1
  O  O388  1  0.23507766  0.58373120  0.03758359  1
  O  O389  1  0.23224741  0.58284098  0.28912869  1
  O  O390  1  0.23286684  0.58392158  0.53748722  1
  O  O391  1  0.23207402  0.58335116  0.79081824  1
  O  O392  1  0.23484981  0.91681587  0.04036546  1
  O  O393  1  0.23282122  0.91623184  0.28559074  1
  O  O394  1  0.23148176  0.91571112  0.53972524  1
  O  O395  1  0.23343472  0.91617593  0.79125017  1
  O  O396  1  0.73390441  0.25038510  0.03787110  1
  O  O397  1  0.73454232  0.25049415  0.28763922  1
  O  O398  1  0.73213848  0.25030961  0.53931834  1
  O  O399  1  0.73240756  0.25000156  0.78958013  1
  O  O400  1  0.73466510  0.58315986  0.03728776  1
  O  O401  1  0.73217676  0.58389259  0.28983577  1
  O  O402  1  0.73386917  0.58400441  0.54003004  1
  O  O403  1  0.73432805  0.58317319  0.79038276  1
  O  O404  1  0.73239767  0.91687377  0.03723788  1
  O  O405  1  0.73353985  0.91560735  0.29011499  1
  O  O406  1  0.73405364  0.91615755  0.53999190  1
  O  O407  1  0.73279420  0.91654672  0.79017594  1
  O  O408  1  0.26529351  0.08401952  0.21073874  1
  O  O409  1  0.26586432  0.08281178  0.45884800  1
  O  O410  1  0.26628233  0.08358092  0.71046643  1
  O  O411  1  0.26690243  0.08369287  0.95967541  1
  O  O412  1  0.26630606  0.41678449  0.21095869  1
  O  O413  1  0.26648515  0.41685012  0.46206620  1
  O  O414  1  0.26552810  0.41710805  0.70977127  1
  O  O415  1  0.26525479  0.41616783  0.96161583  1
  O  O416  1  0.26468353  0.74961454  0.21095886  1
  O  O417  1  0.26676195  0.74966982  0.45898956  1
  O  O418  1  0.26623037  0.74939633  0.71324443  1
  O  O419  1  0.26637508  0.75025817  0.96241838  1
  O  O420  1  0.76564108  0.08320804  0.20934971  1
  O  O421  1  0.76645057  0.08398094  0.45898032  1
  O  O422  1  0.76500792  0.08339887  0.71189074  1
  O  O423  1  0.76589570  0.08398930  0.96224346  1
  O  O424  1  0.76629149  0.41760805  0.21014912  1
  O  O425  1  0.76506842  0.41657134  0.46142696  1
  O  O426  1  0.76440084  0.41697822  0.71136933  1
  O  O427  1  0.76734940  0.41582616  0.96033200  1
  O  O428  1  0.76568552  0.74968173  0.21109058  1
  O  O429  1  0.76744257  0.74955921  0.46050333  1
  O  O430  1  0.76694097  0.75014818  0.71319358  1
  O  O431  1  0.76416662  0.74982551  0.96175376  1
  O  O432  1  0.01502359  0.08380932  0.16175213  1
  O  O433  1  0.01946948  0.08359041  0.41336004  1
  O  O434  1  0.01644223  0.08338177  0.66597234  1
  O  O435  1  0.01443814  0.08305098  0.91685985  1
  O  O436  1  0.01742665  0.41635283  0.16196045  1
  O  O437  1  0.01978745  0.41668926  0.41359884  1
  O  O438  1  0.01859737  0.41655396  0.66487170  1
  O  O439  1  0.01532384  0.41688094  0.91576153  1
  O  O440  1  0.01736499  0.74954392  0.16480537  1
  O  O441  1  0.01744313  0.74972566  0.41198396  1
  O  O442  1  0.01490244  0.74974163  0.66287129  1
  O  O443  1  0.01629826  0.74963759  0.91323256  1
  O  O444  1  0.51849501  0.08300836  0.16452873  1
  O  O445  1  0.51576285  0.08349616  0.41588259  1
  O  O446  1  0.51651906  0.08430256  0.66488853  1
  O  O447  1  0.51927783  0.08376083  0.91334260  1
  O  O448  1  0.51537785  0.41635826  0.16604599  1
  O  O449  1  0.51316084  0.41734772  0.41292743  1
  O  O450  1  0.51636713  0.41607389  0.66214981  1
  O  O451  1  0.51805707  0.41684932  0.91436693  1
  O  O452  1  0.51696740  0.75077088  0.16202940  1
  O  O453  1  0.51662399  0.74938094  0.41526499  1
  O  O454  1  0.51377122  0.74943129  0.66317964  1
  O  O455  1  0.51605224  0.74996905  0.91214720  1
  O  O456  1  0.48474122  0.24976355  0.08386081  1
  O  O457  1  0.48203913  0.25052737  0.33774786  1
  O  O458  1  0.48383211  0.25067983  0.58685300  1
  O  O459  1  0.48470477  0.25052649  0.83697302  1
  O  O460  1  0.48466745  0.58381015  0.08683240  1
  O  O461  1  0.48169488  0.58402394  0.33495088  1
  O  O462  1  0.48279415  0.58293612  0.58530473  1
  O  O463  1  0.48182474  0.58291202  0.83477576  1
  O  O464  1  0.48372311  0.91664759  0.08365567  1
  O  O465  1  0.48325131  0.91555007  0.33493422  1
  O  O466  1  0.48424654  0.91637320  0.58764534  1
  O  O467  1  0.48595908  0.91645614  0.83606723  1
  O  O468  1  0.98416309  0.25032100  0.08707286  1
  O  O469  1  0.98560010  0.25034388  0.33344239  1
  O  O470  1  0.98560107  0.25052382  0.58641826  1
  O  O471  1  0.98262086  0.25004372  0.83806897  1
  O  O472  1  0.98527628  0.58352831  0.08728664  1
  O  O473  1  0.98644422  0.58286293  0.33622952  1
  O  O474  1  0.98617607  0.58318202  0.58597769  1
  O  O475  1  0.98250708  0.58338022  0.83521482  1
  O  O476  1  0.98419206  0.91541643  0.08718439  1
  O  O477  1  0.98620734  0.91664157  0.33563586  1
  O  O478  1  0.98443633  0.91657529  0.58378509  1
  O  O479  1  0.98097090  0.91623076  0.83611932  1
  O  O480  1  0.08777465  0.31592719  0.07689495  1
  O  O481  1  0.08959642  0.31525754  0.32680777  1
  O  O482  1  0.08914880  0.31588370  0.57880237  1
  O  O483  1  0.08674836  0.31450836  0.82787698  1
  O  O484  1  0.08862195  0.64863944  0.07862125  1
  O  O485  1  0.08993851  0.64829917  0.32780361  1
  O  O486  1  0.09009727  0.64727149  0.57732717  1
  O  O487  1  0.08609021  0.64949854  0.82703006  1
  O  O488  1  0.08749954  0.98040719  0.07731541  1
  O  O489  1  0.08999713  0.98152171  0.32745124  1
  O  O490  1  0.08872718  0.98105004  0.57722435  1
  O  O491  1  0.08489000  0.98078430  0.82780761  1
  O  O492  1  0.58893544  0.31419794  0.07683621  1
  O  O493  1  0.58555431  0.31547219  0.32776661  1
  O  O494  1  0.58719388  0.31642799  0.57706600  1
  O  O495  1  0.58823848  0.31573702  0.82763910  1
  O  O496  1  0.58817379  0.64898485  0.07822498  1
  O  O497  1  0.58568186  0.64970076  0.32734494  1
  O  O498  1  0.58654111  0.64757453  0.57712993  1
  O  O499  1  0.58530850  0.64855090  0.82704248  1
  O  O500  1  0.58775346  0.98181006  0.07692376  1
  O  O501  1  0.58732632  0.97978125  0.32800707  1
  O  O502  1  0.58779680  0.98125851  0.57845208  1
  O  O503  1  0.58982818  0.98137261  0.82770129  1
  O  O504  1  0.41495736  0.01702943  0.17187764  1
  O  O505  1  0.41218915  0.01839059  0.42249128  1
  O  O506  1  0.41289704  0.01938978  0.67324427  1
  O  O507  1  0.41526477  0.01952089  0.92236259  1
  O  O508  1  0.41139430  0.35128492  0.17284869  1
  O  O509  1  0.40952686  0.35240105  0.42214597  1
  O  O510  1  0.41303959  0.35077382  0.67180852  1
  O  O511  1  0.41447124  0.35136211  0.92229726  1
  O  O512  1  0.41300442  0.68689460  0.17219772  1
  O  O513  1  0.41267337  0.68370729  0.42258045  1
  O  O514  1  0.40968393  0.68514344  0.67278162  1
  O  O515  1  0.41270767  0.68386899  0.92226636  1
  O  O516  1  0.91170752  0.01907433  0.17211947  1
  O  O517  1  0.91568901  0.01858569  0.42234108  1
  O  O518  1  0.91252745  0.01864194  0.67226158  1
  O  O519  1  0.91032025  0.01819967  0.92296920  1
  O  O520  1  0.91402785  0.35081157  0.17205247  1
  O  O521  1  0.91596653  0.35168281  0.42275970  1
  O  O522  1  0.91457864  0.35175784  0.67285176  1
  O  O523  1  0.91144182  0.35179229  0.92287880  1
  O  O524  1  0.91350004  0.68454160  0.17427770  1
  O  O525  1  0.91385863  0.68457766  0.42272217  1
  O  O526  1  0.91128110  0.68489831  0.67234241  1
  O  O527  1  0.91284634  0.68444442  0.92206224  1
  O  O528  1  0.16165125  0.01889363  0.20256090  1
  O  O529  1  0.16218471  0.01723180  0.45252161  1
  O  O530  1  0.16224696  0.01934419  0.70342677  1
  O  O531  1  0.16294876  0.01906734  0.95221047  1
  O  O532  1  0.16264693  0.35149597  0.20231618  1
  O  O533  1  0.16283848  0.35232513  0.45212977  1
  O  O534  1  0.16182003  0.35177588  0.70270784  1
  O  O535  1  0.16179072  0.35071984  0.95313517  1
  O  O536  1  0.16129225  0.68417659  0.20251276  1
  O  O537  1  0.16247768  0.68514731  0.45202270  1
  O  O538  1  0.16303008  0.68391130  0.70378058  1
  O  O539  1  0.16247614  0.68552819  0.95197265  1
  O  O540  1  0.66167737  0.01830312  0.20179910  1
  O  O541  1  0.66246331  0.01951637  0.45270557  1
  O  O542  1  0.66165590  0.01809258  0.70419298  1
  O  O543  1  0.66217338  0.01893559  0.95255330  1
  O  O544  1  0.66248560  0.35308517  0.20237857  1
  O  O545  1  0.66165641  0.35074502  0.45305373  1
  O  O546  1  0.66123409  0.35053715  0.70313854  1
  O  O547  1  0.66325240  0.35085469  0.95217127  1
  O  O548  1  0.66225399  0.68349134  0.20249006  1
  O  O549  1  0.66311446  0.68517689  0.45155134  1
  O  O550  1  0.66337736  0.68542928  0.70257855  1
  O  O551  1  0.66018474  0.68564008  0.95184161  1
  O  O552  1  0.33697513  0.31479355  0.04722022  1
  O  O553  1  0.33634929  0.31594172  0.29741689  1
  O  O554  1  0.33864294  0.31633023  0.54733517  1
  O  O555  1  0.33764055  0.31555751  0.79805067  1
  O  O556  1  0.33820252  0.64959112  0.04658270  1
  O  O557  1  0.33616767  0.64762460  0.29817857  1
  O  O558  1  0.33634462  0.64881237  0.54637522  1
  O  O559  1  0.33634777  0.64841726  0.79818464  1
  O  O560  1  0.33936498  0.98060219  0.04826836  1
  O  O561  1  0.33603701  0.98163609  0.29695736  1
  O  O562  1  0.33539280  0.98028400  0.54761465  1
  O  O563  1  0.33747740  0.98088090  0.79812795  1
  O  O564  1  0.83778619  0.31543786  0.04750209  1
  O  O565  1  0.83801433  0.31556879  0.29723671  1
  O  O566  1  0.83591341  0.31530392  0.54791519  1
  O  O567  1  0.83624466  0.31536091  0.79841776  1
  O  O568  1  0.83840246  0.64724149  0.04718168  1
  O  O569  1  0.83585168  0.64966765  0.29725728  1
  O  O570  1  0.83781551  0.64894457  0.54674044  1
  O  O571  1  0.83791775  0.64901568  0.79788278  1
  O  O572  1  0.83597217  0.98216369  0.04686855  1
  O  O573  1  0.83745285  0.98016841  0.29730027  1
  O  O574  1  0.83760266  0.98116667  0.54712326  1
  O  O575  1  0.83691342  0.98078004  0.79868145  1
  O  O576  1  0.41425567  0.14708482  0.17234281  1
  O  O577  1  0.41198520  0.14871069  0.42206348  1
  O  O578  1  0.41301577  0.14968708  0.67231163  1
  O  O579  1  0.41578832  0.14958320  0.92243698  1
  O  O580  1  0.41129472  0.48121031  0.17310036  1
  O  O581  1  0.40963354  0.48262174  0.42180962  1
  O  O582  1  0.41278206  0.48072763  0.67249248  1
  O  O583  1  0.41389059  0.48144399  0.92190314  1
  O  O584  1  0.41385378  0.81680961  0.17144219  1
  O  O585  1  0.41226481  0.81362991  0.42327478  1
  O  O586  1  0.41038326  0.81501376  0.67311484  1
  O  O587  1  0.41207205  0.81393908  0.92267237  1
  O  O588  1  0.91194828  0.14951456  0.17140330  1
  O  O589  1  0.91579903  0.14865504  0.42241289  1
  O  O590  1  0.91278349  0.14866134  0.67259289  1
  O  O591  1  0.91057500  0.14838341  0.92292107  1
  O  O592  1  0.91398609  0.48093350  0.17272734  1
  O  O593  1  0.91593950  0.48165163  0.42305747  1
  O  O594  1  0.91481571  0.48159824  0.67266685  1
  O  O595  1  0.91149839  0.48192481  0.92263371  1
  O  O596  1  0.91325381  0.81438759  0.17417736  1
  O  O597  1  0.91360616  0.81454353  0.42236002  1
  O  O598  1  0.91128196  0.81482236  0.67232048  1
  O  O599  1  0.91257957  0.81457175  0.92253687  1
  O  O600  1  0.08802668  0.18601304  0.07643218  1
  O  O601  1  0.08939341  0.18513551  0.32658881  1
  O  O602  1  0.08923388  0.18595070  0.57829116  1
  O  O603  1  0.08627717  0.18463950  0.82771087  1
  O  O604  1  0.08875469  0.51839465  0.07829827  1
  O  O605  1  0.09037182  0.51821172  0.32799790  1
  O  O606  1  0.08971413  0.51726695  0.57839196  1
  O  O607  1  0.08702808  0.51964170  0.82720328  1
  O  O608  1  0.08767859  0.85022720  0.07830343  1
  O  O609  1  0.08978122  0.85132207  0.32742825  1
  O  O610  1  0.08806313  0.85119800  0.57671450  1
  O  O611  1  0.08468620  0.85074435  0.82771036  1
  O  O612  1  0.58864704  0.18429404  0.07763003  1
  O  O613  1  0.58580345  0.18552944  0.32806238  1
  O  O614  1  0.58784332  0.18648295  0.57672150  1
  O  O615  1  0.58851929  0.18561288  0.82744030  1
  O  O616  1  0.58811149  0.51892416  0.07779547  1
  O  O617  1  0.58598708  0.51979238  0.32659655  1
  O  O618  1  0.58632673  0.51742742  0.57740932  1
  O  O619  1  0.58606076  0.51848981  0.82766760  1
  O  O620  1  0.58783524  0.85180228  0.07653136  1
  O  O621  1  0.58663536  0.84966502  0.32826100  1
  O  O622  1  0.58750161  0.85107866  0.57814225  1
  O  O623  1  0.58942606  0.85110258  0.82773980  1
  O  O624  1  0.33671318  0.18477607  0.04733555  1
  O  O625  1  0.33685443  0.18602676  0.29808529  1
  O  O626  1  0.33976323  0.18625919  0.54784101  1
  O  O627  1  0.33758792  0.18567832  0.79827391  1
  O  O628  1  0.33871452  0.51930459  0.04696444  1
  O  O629  1  0.33612812  0.51777455  0.29741827  1
  O  O630  1  0.33618294  0.51867040  0.54689123  1
  O  O631  1  0.33617396  0.51859838  0.79864560  1
  O  O632  1  0.33819509  0.85049945  0.04788818  1
  O  O633  1  0.33628067  0.85157987  0.29681345  1
  O  O634  1  0.33514420  0.85022630  0.54688576  1
  O  O635  1  0.33717493  0.85081434  0.79769243  1
  O  O636  1  0.83764315  0.18536959  0.04739662  1
  O  O637  1  0.83797682  0.18539422  0.29696222  1
  O  O638  1  0.83593528  0.18518783  0.54756583  1
  O  O639  1  0.83654979  0.18546188  0.79853468  1
  O  O640  1  0.83778832  0.51701940  0.04663031  1
  O  O641  1  0.83638214  0.51967431  0.29805732  1
  O  O642  1  0.83741445  0.51872025  0.54768578  1
  O  O643  1  0.83867114  0.51908033  0.79785852  1
  O  O644  1  0.83593808  0.85205822  0.04765022  1
  O  O645  1  0.83721866  0.85002710  0.29667658  1
  O  O646  1  0.83764041  0.85080220  0.54655319  1
  O  O647  1  0.83647219  0.85084315  0.79865757  1
  O  O648  1  0.16180368  0.14911525  0.20297430  1
  O  O649  1  0.16190505  0.14732990  0.45174260  1
  O  O650  1  0.16316936  0.14969189  0.70330894  1
  O  O651  1  0.16306208  0.14916840  0.95243930  1
  O  O652  1  0.16238167  0.48159196  0.20252087  1
  O  O653  1  0.16293554  0.48226714  0.45279290  1
  O  O654  1  0.16156402  0.48195102  0.70322701  1
  O  O655  1  0.16165556  0.48077469  0.95298726  1
  O  O656  1  0.16080983  0.81428829  0.20215777  1
  O  O657  1  0.16283798  0.81500669  0.45188156  1
  O  O658  1  0.16252932  0.81393084  0.70335426  1
  O  O659  1  0.16263421  0.81536209  0.95216206  1
  O  O660  1  0.66171967  0.14828994  0.20165010  1
  O  O661  1  0.66285752  0.14977029  0.45272560  1
  O  O662  1  0.66151934  0.14849481  0.70395241  1
  O  O663  1  0.66227412  0.14900775  0.95299132  1
  O  O664  1  0.66275510  0.48327392  0.20297461  1
  O  O665  1  0.66114194  0.48084480  0.45283353  1
  O  O666  1  0.66003630  0.48060131  0.70216449  1
  O  O667  1  0.66343490  0.48073161  0.95103410  1
  O  O668  1  0.66140338  0.81346506  0.20193182  1
  O  O669  1  0.66359551  0.81485867  0.45162848  1
  O  O670  1  0.66351217  0.81553404  0.70348025  1
  O  O671  1  0.66073916  0.81565026  0.95258378  1
