# generated using pymatgen
data_Na2MnFe(PO4)2
_symmetry_space_group_name_H-M   'P 1'
_cell_length_a   21.07810235
_cell_length_b   18.92953703
_cell_length_c   20.03744432
_cell_angle_alpha   90.00035698
_cell_angle_beta   89.99754462
_cell_angle_gamma   89.99734041
_symmetry_Int_Tables_number   1
_chemical_formula_structural   Na2MnFe(PO4)2
_chemical_formula_sum   'Na96 Mn48 Fe48 P96 O384'
_cell_volume   7994.91459534
_cell_formula_units_Z   48
loop_
 _symmetry_equiv_pos_site_id
 _symmetry_equiv_pos_as_xyz
  1  'x, y, z'
loop_
 _atom_site_type_symbol
 _atom_site_label
 _atom_site_symmetry_multiplicity
 _atom_site_fract_x
 _atom_site_fract_y
 _atom_site_fract_z
 _atom_site_occupancy
  Na  Na0  1  -0.00060843  -0.00052971  0.00000842  1
  Na  Na1  1  0.00009467  -0.00048535  0.25005972  1
  Na  Na2  1  0.00000998  -0.00026422  0.50081967  1
  Na  Na3  1  -0.00032567  -0.00008291  0.74903219  1
  Na  Na4  1  0.00308337  0.33404120  -0.00004399  1
  Na  Na5  1  0.00083550  0.33329959  0.24971058  1
  Na  Na6  1  -0.00149635  0.33284297  0.50067877  1
  Na  Na7  1  0.00142059  0.33406465  0.75022907  1
  Na  Na8  1  0.00151667  0.66730753  0.00016597  1
  Na  Na9  1  -0.00158437  0.66622041  0.25104006  1
  Na  Na10  1  0.00128610  0.66693758  0.49992483  1
  Na  Na11  1  0.00250789  0.66672849  0.74950526  1
  Na  Na12  1  0.49689336  -0.00086770  0.00140346  1
  Na  Na13  1  0.49786475  -0.00086318  0.24913810  1
  Na  Na14  1  0.49882153  -0.00021842  0.49871880  1
  Na  Na15  1  0.49741427  -0.00060374  0.75024619  1
  Na  Na16  1  0.49976653  0.33321057  -0.00025497  1
  Na  Na17  1  0.50139991  0.33387334  0.25023850  1
  Na  Na18  1  0.50029986  0.33344842  0.49980536  1
  Na  Na19  1  0.49896729  0.33274242  0.74969617  1
  Na  Na20  1  0.49789749  0.66586767  0.00007933  1
  Na  Na21  1  0.49837407  0.66610666  0.25113176  1
  Na  Na22  1  0.50202125  0.66801251  0.49896846  1
  Na  Na23  1  0.50046453  0.66701486  0.74957653  1
  Na  Na24  1  0.25189363  0.00020409  0.12506789  1
  Na  Na25  1  0.25075637  -0.00031131  0.37438264  1
  Na  Na26  1  0.24917862  -0.00122977  0.62477073  1
  Na  Na27  1  0.25127759  -0.00008233  0.87516997  1
  Na  Na28  1  0.25010089  0.33339010  0.12387531  1
  Na  Na29  1  0.24905466  0.33274351  0.37536331  1
  Na  Na30  1  0.25013902  0.33361896  0.62556262  1
  Na  Na31  1  0.25008136  0.33320128  0.87540937  1
  Na  Na32  1  0.25116994  0.66667382  0.12491988  1
  Na  Na33  1  0.25161182  0.66737535  0.37443683  1
  Na  Na34  1  0.24715916  0.66482464  0.62429128  1
  Na  Na35  1  0.25044089  0.66650441  0.87603150  1
  Na  Na36  1  0.75164654  0.00014918  0.12555764  1
  Na  Na37  1  0.75180462  0.00003376  0.37440982  1
  Na  Na38  1  0.75221371  0.00077742  0.62477564  1
  Na  Na39  1  0.75221466  0.00072851  0.87518496  1
  Na  Na40  1  0.74822073  0.33370709  0.12483520  1
  Na  Na41  1  0.74831651  0.33280671  0.37509671  1
  Na  Na42  1  0.75092150  0.33399168  0.62455009  1
  Na  Na43  1  0.74802600  0.33272154  0.87546003  1
  Na  Na44  1  0.74987901  0.66745158  0.12550746  1
  Na  Na45  1  0.74980210  0.66734344  0.37533523  1
  Na  Na46  1  0.74719863  0.66583157  0.62419570  1
  Na  Na47  1  0.75014076  0.66734849  0.87560700  1
  Na  Na48  1  0.00007847  0.16685384  -0.00007636  1
  Na  Na49  1  0.00085797  0.16586646  0.24921225  1
  Na  Na50  1  -0.00323718  0.16830809  0.50096245  1
  Na  Na51  1  -0.00019373  0.16645637  0.74974758  1
  Na  Na52  1  0.00234344  0.49941051  -0.00049442  1
  Na  Na53  1  -0.00023401  0.50040259  0.25056906  1
  Na  Na54  1  0.00146812  0.49945900  0.50082967  1
  Na  Na55  1  0.00134732  0.49963000  0.74983206  1
  Na  Na56  1  0.00044972  0.83390951  0.00049235  1
  Na  Na57  1  -0.00057225  0.83405588  0.25115272  1
  Na  Na58  1  0.00072356  0.83364276  0.49941324  1
  Na  Na59  1  0.00322170  0.83240555  0.74946593  1
  Na  Na60  1  0.49669155  0.16828598  0.00098163  1
  Na  Na61  1  0.49955181  0.16628264  0.24981062  1
  Na  Na62  1  0.49877973  0.16723357  0.49916291  1
  Na  Na63  1  0.49949146  0.16679263  0.74989635  1
  Na  Na64  1  0.49912421  0.49907066  -0.00018536  1
  Na  Na65  1  0.49849288  0.50050247  0.25103615  1
  Na  Na66  1  0.50096349  0.49930244  0.49959821  1
  Na  Na67  1  0.49807016  0.50021363  0.74946617  1
  Na  Na68  1  0.49905066  0.83394424  0.00049873  1
  Na  Na69  1  0.50082154  0.83285148  0.24996751  1
  Na  Na70  1  0.50034781  0.83343351  0.49852794  1
  Na  Na71  1  0.49908613  0.83404553  0.75012427  1
  Na  Na72  1  0.25065513  0.16665168  0.12463190  1
  Na  Na73  1  0.25002569  0.16667417  0.37445130  1
  Na  Na74  1  0.25056623  0.16677747  0.62538394  1
  Na  Na75  1  0.25172268  0.16674940  0.87550968  1
  Na  Na76  1  0.25107143  0.49993086  0.12479156  1
  Na  Na77  1  0.25132682  0.49961228  0.37479097  1
  Na  Na78  1  0.24861579  0.49997940  0.62463261  1
  Na  Na79  1  0.24975947  0.49965711  0.87571025  1
  Na  Na80  1  0.25065229  0.83356527  0.12447638  1
  Na  Na81  1  0.24953603  0.83419316  0.37519721  1
  Na  Na82  1  0.24882244  0.83390363  0.62432522  1
  Na  Na83  1  0.25030644  0.83355496  0.87546537  1
  Na  Na84  1  0.74997779  0.16694342  0.12531533  1
  Na  Na85  1  0.75118563  0.16692090  0.37523799  1
  Na  Na86  1  0.75215201  0.16685673  0.62464904  1
  Na  Na87  1  0.75160868  0.16634002  0.87450162  1
  Na  Na88  1  0.74821510  0.49991274  0.12537637  1
  Na  Na89  1  0.74962907  0.50001733  0.37443437  1
  Na  Na90  1  0.74888538  0.50007555  0.62528562  1
  Na  Na91  1  0.74916858  0.49917824  0.87569266  1
  Na  Na92  1  0.75038260  0.83306775  0.12547005  1
  Na  Na93  1  0.74915230  0.83341820  0.37504024  1
  Na  Na94  1  0.74856188  0.83371009  0.62377145  1
  Na  Na95  1  0.74970746  0.83352936  0.87591753  1
  Mn  Mn96  1  0.39206617  0.25012929  0.37659191  1
  Mn  Mn97  1  0.85833306  0.75022514  0.00288831  1
  Mn  Mn98  1  0.64145742  0.91773156  0.74786252  1
  Mn  Mn99  1  0.64136715  0.24910007  0.99798917  1
  Mn  Mn100  1  0.14299147  0.58353934  0.24778588  1
  Mn  Mn101  1  0.10899681  0.74982754  0.87239134  1
  Mn  Mn102  1  0.64188992  0.91712681  0.49741930  1
  Mn  Mn103  1  0.64258928  0.24999364  0.49821183  1
  Mn  Mn104  1  0.89287231  0.91610613  0.62750901  1
  Mn  Mn105  1  0.35762768  0.74981887  0.50235756  1
  Mn  Mn106  1  0.60790699  0.08299611  0.37235015  1
  Mn  Mn107  1  0.85736778  0.41676347  0.50212427  1
  Mn  Mn108  1  0.35784995  0.08339933  0.50225060  1
  Mn  Mn109  1  0.10750978  0.74999351  0.37209118  1
  Mn  Mn110  1  0.35740537  0.74895365  0.75145237  1
  Mn  Mn111  1  0.60713276  0.74984805  0.87255188  1
  Mn  Mn112  1  0.89301057  0.25007043  0.12727156  1
  Mn  Mn113  1  0.85804504  0.74972685  0.75159745  1
  Mn  Mn114  1  0.14287207  0.91697464  0.99838979  1
  Mn  Mn115  1  0.35831003  0.41611521  0.00225097  1
  Mn  Mn116  1  0.35761041  0.41650205  0.50208882  1
  Mn  Mn117  1  0.60677949  0.08320413  0.12264092  1
  Mn  Mn118  1  0.10746918  0.08364855  0.62268348  1
  Mn  Mn119  1  0.14319758  0.24949298  0.99784167  1
  Mn  Mn120  1  0.89274342  0.58324873  0.87712954  1
  Mn  Mn121  1  0.35785518  0.08369998  0.75233004  1
  Mn  Mn122  1  0.85835362  0.08340479  0.25233062  1
  Mn  Mn123  1  0.64142655  0.58303008  0.74807655  1
  Mn  Mn124  1  0.60785479  0.08281012  0.62277502  1
  Mn  Mn125  1  0.89267829  0.25059958  0.87702942  1
  Mn  Mn126  1  0.60730565  0.08366919  0.87333943  1
  Mn  Mn127  1  0.64070955  0.58355350  0.99793390  1
  Mn  Mn128  1  0.64222971  0.91755925  0.99853823  1
  Mn  Mn129  1  0.39199256  0.58365623  0.62703224  1
  Mn  Mn130  1  0.10729656  0.08367834  0.37298004  1
  Mn  Mn131  1  0.10755796  0.41636119  0.37232681  1
  Mn  Mn132  1  0.89264032  0.58314360  0.62727830  1
  Mn  Mn133  1  0.60727998  0.41692317  0.62333333  1
  Mn  Mn134  1  0.85699916  0.74985685  0.50252247  1
  Mn  Mn135  1  0.85744257  0.41712328  0.25176768  1
  Mn  Mn136  1  0.35858309  0.75037909  0.00278011  1
  Mn  Mn137  1  0.14149858  0.24945257  0.49792534  1
  Mn  Mn138  1  0.89245827  0.58366834  0.12697135  1
  Mn  Mn139  1  0.14278298  0.58347612  0.99844303  1
  Mn  Mn140  1  0.64176627  0.58362016  0.24749696  1
  Mn  Mn141  1  0.10832021  0.08371183  0.87266217  1
  Mn  Mn142  1  0.89261601  0.91611239  0.87662252  1
  Mn  Mn143  1  0.85776994  0.41638633  0.00225923  1
  Fe  Fe144  1  0.10841286  0.74946349  0.62274555  1
  Fe  Fe145  1  0.35775976  0.08341201  0.00217996  1
  Fe  Fe146  1  0.14337093  0.24998204  0.74829703  1
  Fe  Fe147  1  0.64270424  0.24970419  0.74827260  1
  Fe  Fe148  1  0.35763877  0.75026334  0.25160328  1
  Fe  Fe149  1  0.39263052  0.91607180  0.12810246  1
  Fe  Fe150  1  0.89209890  0.25027391  0.37595083  1
  Fe  Fe151  1  0.60680918  0.75020069  0.37229431  1
  Fe  Fe152  1  0.10826275  0.41654911  0.87228495  1
  Fe  Fe153  1  0.39264261  0.91601498  0.37598917  1
  Fe  Fe154  1  0.39261619  0.58316587  0.12745380  1
  Fe  Fe155  1  0.60705564  0.41694902  0.37285420  1
  Fe  Fe156  1  0.60591983  0.41706343  0.12382027  1
  Fe  Fe157  1  0.85823644  0.08345040  0.00195996  1
  Fe  Fe158  1  0.85734649  0.41677411  0.75232813  1
  Fe  Fe159  1  0.39220686  0.24969023  0.62713031  1
  Fe  Fe160  1  0.39180849  0.58301099  0.87592972  1
  Fe  Fe161  1  0.39319272  0.58369387  0.37705724  1
  Fe  Fe162  1  0.39207905  0.91668083  0.62615855  1
  Fe  Fe163  1  0.64305073  0.91724440  0.24804672  1
  Fe  Fe164  1  0.10852928  0.41701065  0.12400973  1
  Fe  Fe165  1  0.35746064  0.41629565  0.25170039  1
  Fe  Fe166  1  0.14300549  0.91658203  0.49778452  1
  Fe  Fe167  1  0.14296196  0.58299935  0.74830410  1
  Fe  Fe168  1  0.39244625  0.25056903  0.12818281  1
  Fe  Fe169  1  0.10803230  0.08262463  0.12323236  1
  Fe  Fe170  1  0.60655641  0.74958000  0.12405260  1
  Fe  Fe171  1  0.60713685  0.75065229  0.62365165  1
  Fe  Fe172  1  0.89336426  0.91624004  0.12714959  1
  Fe  Fe173  1  0.35645661  0.08344034  0.25136943  1
  Fe  Fe174  1  0.64192572  0.58310646  0.49784554  1
  Fe  Fe175  1  0.14252438  0.24962886  0.24819768  1
  Fe  Fe176  1  0.14257814  0.58338168  0.49738636  1
  Fe  Fe177  1  0.39269996  0.24998678  0.87613529  1
  Fe  Fe178  1  0.14329392  0.91674701  0.74811658  1
  Fe  Fe179  1  0.10734752  0.41668395  0.62371291  1
  Fe  Fe180  1  0.89221951  0.58314365  0.37745238  1
  Fe  Fe181  1  0.64241898  0.24921686  0.24841921  1
  Fe  Fe182  1  0.85738944  0.08376756  0.75189478  1
  Fe  Fe183  1  0.89281040  0.91668779  0.37687895  1
  Fe  Fe184  1  0.85711580  0.75010638  0.25172722  1
  Fe  Fe185  1  0.89261539  0.25097726  0.62796925  1
  Fe  Fe186  1  0.85784924  0.08314944  0.50141628  1
  Fe  Fe187  1  0.35650330  0.41678455  0.75151032  1
  Fe  Fe188  1  0.39175963  0.91668818  0.87673298  1
  Fe  Fe189  1  0.14300908  0.91697023  0.24807266  1
  Fe  Fe190  1  0.60632461  0.41634215  0.87290299  1
  Fe  Fe191  1  0.10754951  0.75007937  0.12468870  1
  P  P192  1  0.05568685  0.24955583  0.11118081  1
  P  P193  1  0.05217036  0.24971422  0.35940576  1
  P  P194  1  0.05332480  0.25092641  0.61162868  1
  P  P195  1  0.05476267  0.25029268  0.85922659  1
  P  P196  1  0.05394410  0.58388830  0.11066255  1
  P  P197  1  0.05312112  0.58331275  0.36098104  1
  P  P198  1  0.05590785  0.58285021  0.61056427  1
  P  P199  1  0.05482342  0.58259828  0.85929969  1
  P  P200  1  0.05426033  0.91636523  0.11178315  1
  P  P201  1  0.05407257  0.91702126  0.36051141  1
  P  P202  1  0.05592569  0.91595687  0.61032273  1
  P  P203  1  0.05460268  0.91717057  0.85917122  1
  P  P204  1  0.55273389  0.25050262  0.11158361  1
  P  P205  1  0.55408237  0.25040667  0.35949985  1
  P  P206  1  0.55294292  0.24974996  0.61102974  1
  P  P207  1  0.55249265  0.25026711  0.85952265  1
  P  P208  1  0.55148478  0.58340442  0.11073392  1
  P  P209  1  0.55352174  0.58344457  0.36119745  1
  P  P210  1  0.55357238  0.58400357  0.60911986  1
  P  P211  1  0.55115519  0.58223259  0.86000351  1
  P  P212  1  0.55306488  0.91594189  0.11173755  1
  P  P213  1  0.55291980  0.91633348  0.35880924  1
  P  P214  1  0.55165056  0.91659048  0.60959188  1
  P  P215  1  0.55136293  0.91734632  0.86058599  1
  P  P216  1  0.44409412  0.08357672  0.13969962  1
  P  P217  1  0.44499702  0.08243957  0.38808030  1
  P  P218  1  0.44634814  0.08316349  0.63970866  1
  P  P219  1  0.44560377  0.08377205  0.89082786  1
  P  P220  1  0.44670866  0.41648959  0.14082051  1
  P  P221  1  0.44636729  0.41705310  0.38879224  1
  P  P222  1  0.44532597  0.41601508  0.64044391  1
  P  P223  1  0.44572229  0.41628374  0.88821847  1
  P  P224  1  0.44698072  0.74986411  0.14102577  1
  P  P225  1  0.44593063  0.75041582  0.38834239  1
  P  P226  1  0.44772274  0.75084685  0.63940037  1
  P  P227  1  0.44588607  0.74980859  0.88966525  1
  P  P228  1  0.94726365  0.08248548  0.13883317  1
  P  P229  1  0.94594800  0.08326090  0.39046678  1
  P  P230  1  0.94460990  0.08411670  0.63941965  1
  P  P231  1  0.94533092  0.08343666  0.88956055  1
  P  P232  1  0.94864716  0.41669816  0.13986307  1
  P  P233  1  0.94629123  0.41672465  0.38997002  1
  P  P234  1  0.94698117  0.41655733  0.64079019  1
  P  P235  1  0.94752451  0.41663520  0.88909864  1
  P  P236  1  0.94752530  0.75086047  0.14113313  1
  P  P237  1  0.94484473  0.75007564  0.38899637  1
  P  P238  1  0.94872957  0.74964472  0.63965171  1
  P  P239  1  0.94757703  0.74988936  0.89008126  1
  P  P240  1  0.19690037  0.08306495  0.23464098  1
  P  P241  1  0.19668494  0.08262357  0.48470883  1
  P  P242  1  0.19691496  0.08360689  0.73509087  1
  P  P243  1  0.19748367  0.08302387  0.98605542  1
  P  P244  1  0.19783375  0.41613328  0.23463741  1
  P  P245  1  0.19507162  0.41700232  0.48592119  1
  P  P246  1  0.19607661  0.41638592  0.73578017  1
  P  P247  1  0.19523545  0.41666051  0.98547921  1
  P  P248  1  0.19790142  0.75083816  0.23467911  1
  P  P249  1  0.19531699  0.74984927  0.48545556  1
  P  P250  1  0.19655566  0.74971711  0.73428107  1
  P  P251  1  0.19604337  0.75021655  0.98660740  1
  P  P252  1  0.69667007  0.08315287  0.23500123  1
  P  P253  1  0.69823910  0.08348810  0.48474285  1
  P  P254  1  0.69780728  0.08450168  0.73502043  1
  P  P255  1  0.69818390  0.08322668  0.98505092  1
  P  P256  1  0.69432586  0.41594666  0.23548918  1
  P  P257  1  0.69536043  0.41736802  0.48434567  1
  P  P258  1  0.69623232  0.41548860  0.73626608  1
  P  P259  1  0.69364969  0.41653118  0.98557427  1
  P  P260  1  0.69564208  0.75102329  0.23574470  1
  P  P261  1  0.69377113  0.74946129  0.48514276  1
  P  P262  1  0.69594646  0.75035344  0.73412835  1
  P  P263  1  0.69501894  0.75038469  0.98649887  1
  P  P264  1  0.30594883  0.24935834  0.01455492  1
  P  P265  1  0.30299971  0.25024285  0.26356443  1
  P  P266  1  0.30359750  0.25008537  0.51579080  1
  P  P267  1  0.30388577  0.25099003  0.76451608  1
  P  P268  1  0.30569940  0.58299331  0.01487733  1
  P  P269  1  0.30583199  0.58322642  0.26443228  1
  P  P270  1  0.30317411  0.58328263  0.51377334  1
  P  P271  1  0.30222532  0.58230618  0.76516943  1
  P  P272  1  0.30576209  0.91747453  0.01492454  1
  P  P273  1  0.30403160  0.91643235  0.26415744  1
  P  P274  1  0.30389054  0.91637152  0.51410012  1
  P  P275  1  0.30382505  0.91621129  0.76413067  1
  P  P276  1  0.80345436  0.24961566  0.01521865  1
  P  P277  1  0.80256324  0.25050109  0.26516507  1
  P  P278  1  0.80567913  0.24956343  0.51447342  1
  P  P279  1  0.80371728  0.25081600  0.76399548  1
  P  P280  1  0.80256840  0.58300695  0.01551405  1
  P  P281  1  0.80376335  0.58435872  0.26550318  1
  P  P282  1  0.80267423  0.58322232  0.51420771  1
  P  P283  1  0.80297741  0.58253399  0.76519437  1
  P  P284  1  0.80467315  0.91741591  0.01609392  1
  P  P285  1  0.80445864  0.91564947  0.26437976  1
  P  P286  1  0.80466238  0.91710621  0.51371239  1
  P  P287  1  0.80305419  0.91689290  0.76485475  1
  O  O288  1  0.05936611  0.24940839  0.18802908  1
  O  O289  1  0.05571807  0.24975778  0.43616937  1
  O  O290  1  0.05876822  0.25000165  0.68821130  1
  O  O291  1  0.05786200  0.24928665  0.93605547  1
  O  O292  1  0.05643301  0.58373320  0.18750995  1
  O  O293  1  0.05827037  0.58344748  0.43763703  1
  O  O294  1  0.05987380  0.58294030  0.68736915  1
  O  O295  1  0.05769138  0.58337953  0.93609566  1
  O  O296  1  0.05884423  0.91671680  0.18852983  1
  O  O297  1  0.05906830  0.91694169  0.43719319  1
  O  O298  1  0.06017018  0.91684543  0.68711740  1
  O  O299  1  0.05758181  0.91741896  0.93603534  1
  O  O300  1  0.55794975  0.24934340  0.18817991  1
  O  O301  1  0.55694956  0.24951753  0.43634863  1
  O  O302  1  0.55816946  0.24954466  0.68767843  1
  O  O303  1  0.55575327  0.24952570  0.93632462  1
  O  O304  1  0.55513444  0.58355087  0.18745433  1
  O  O305  1  0.55780019  0.58327022  0.43783789  1
  O  O306  1  0.55616188  0.58304293  0.68597664  1
  O  O307  1  0.55443553  0.58259388  0.93672564  1
  O  O308  1  0.55835129  0.91687268  0.18832345  1
  O  O309  1  0.55647146  0.91742183  0.43556549  1
  O  O310  1  0.55523368  0.91744575  0.68633057  1
  O  O311  1  0.55546332  0.91763865  0.93729763  1
  O  O312  1  0.44087061  0.08371102  0.06287497  1
  O  O313  1  0.44045481  0.08321539  0.31134941  1
  O  O314  1  0.44390734  0.08350027  0.56287566  1
  O  O315  1  0.44302786  0.08369990  0.81397953  1
  O  O316  1  0.44381308  0.41599859  0.06395944  1
  O  O317  1  0.44148814  0.41618600  0.31214612  1
  O  O318  1  0.44289451  0.41657978  0.56358473  1
  O  O319  1  0.44095711  0.41645606  0.81161859  1
  O  O320  1  0.44397113  0.75024193  0.06418561  1
  O  O321  1  0.44116762  0.75038937  0.31170123  1
  O  O322  1  0.44421843  0.75016343  0.56264979  1
  O  O323  1  0.44317092  0.74990719  0.81289079  1
  O  O324  1  0.94264576  0.08328237  0.06215411  1
  O  O325  1  0.94384843  0.08298147  0.31353614  1
  O  O326  1  0.94094676  0.08330952  0.56262761  1
  O  O327  1  0.94082886  0.08352090  0.81273624  1
  O  O328  1  0.94485557  0.41648823  0.06315367  1
  O  O329  1  0.94341699  0.41691016  0.31318220  1
  O  O330  1  0.94297780  0.41716829  0.56408379  1
  O  O331  1  0.94200546  0.41657526  0.81247088  1
  O  O332  1  0.94435936  0.75044385  0.06434900  1
  O  O333  1  0.94087549  0.75008346  0.31224802  1
  O  O334  1  0.94397586  0.74986475  0.56297226  1
  O  O335  1  0.94426685  0.74980087  0.81329954  1
  O  O336  1  0.19240269  0.08283735  0.06271912  1
  O  O337  1  0.19330532  0.08303474  0.31135553  1
  O  O338  1  0.19353578  0.08335944  0.56147262  1
  O  O339  1  0.19463852  0.08376276  0.81191084  1
  O  O340  1  0.19108818  0.41695911  0.06225250  1
  O  O341  1  0.19404805  0.41663504  0.31141307  1
  O  O342  1  0.19115406  0.41638118  0.56269288  1
  O  O343  1  0.19231888  0.41624324  0.81259461  1
  O  O344  1  0.19154851  0.75014335  0.06329029  1
  O  O345  1  0.19391062  0.75035342  0.31141464  1
  O  O346  1  0.19177104  0.74958424  0.56223193  1
  O  O347  1  0.19473617  0.74991920  0.81119089  1
  O  O348  1  0.69340197  0.08319680  0.06172297  1
  O  O349  1  0.69386431  0.08303936  0.31177228  1
  O  O350  1  0.69431771  0.08328393  0.56146168  1
  O  O351  1  0.69371205  0.08378086  0.81170385  1
  O  O352  1  0.68875199  0.41686412  0.06238936  1
  O  O353  1  0.69046032  0.41696888  0.31229339  1
  O  O354  1  0.69256482  0.41676462  0.56119560  1
  O  O355  1  0.69094177  0.41614710  0.81295281  1
  O  O356  1  0.68999528  0.74999899  0.06328525  1
  O  O357  1  0.69075726  0.75019144  0.31249346  1
  O  O358  1  0.68956696  0.75044748  0.56194527  1
  O  O359  1  0.69293270  0.75039047  0.81102418  1
  O  O360  1  0.30752837  0.25072564  0.18685293  1
  O  O361  1  0.30697784  0.25015547  0.43895133  1
  O  O362  1  0.30835790  0.25015949  0.68780386  1
  O  O363  1  0.30974524  0.25035768  0.93775872  1
  O  O364  1  0.30959054  0.58330219  0.18753043  1
  O  O365  1  0.30882779  0.58358045  0.43711026  1
  O  O366  1  0.30574792  0.58294788  0.68841039  1
  O  O367  1  0.30958822  0.58287253  0.93807221  1
  O  O368  1  0.30861642  0.91580860  0.18740494  1
  O  O369  1  0.30888354  0.91624264  0.43741558  1
  O  O370  1  0.30850670  0.91620418  0.68739081  1
  O  O371  1  0.30931852  0.91650164  0.93805154  1
  O  O372  1  0.80672649  0.25075393  0.18845498  1
  O  O373  1  0.80940795  0.25061210  0.43765781  1
  O  O374  1  0.80814258  0.25133257  0.68723404  1
  O  O375  1  0.80669510  0.25050790  0.93843889  1
  O  O376  1  0.80688933  0.58360615  0.18869584  1
  O  O377  1  0.80798723  0.58333039  0.43753678  1
  O  O378  1  0.80618679  0.58300026  0.68835077  1
  O  O379  1  0.80614400  0.58287889  0.93872757  1
  O  O380  1  0.80932965  0.91612944  0.18768779  1
  O  O381  1  0.80870369  0.91623853  0.43692968  1
  O  O382  1  0.80632662  0.91591049  0.68803737  1
  O  O383  1  0.80751920  0.91633206  0.93929161  1
  O  O384  1  0.23586501  0.25007682  0.03854141  1
  O  O385  1  0.23270817  0.24979588  0.28777106  1
  O  O386  1  0.23377758  0.24991359  0.54043590  1
  O  O387  1  0.23359041  0.25030567  0.78847800  1
  O  O388  1  0.23571731  0.58309501  0.03901740  1
  O  O389  1  0.23572249  0.58341049  0.28870710  1
  O  O390  1  0.23277710  0.58292845  0.53694539  1
  O  O391  1  0.23220879  0.58280731  0.78989133  1
  O  O392  1  0.23578711  0.91692097  0.03922777  1
  O  O393  1  0.23353159  0.91685522  0.28775904  1
  O  O394  1  0.23344253  0.91621661  0.53736694  1
  O  O395  1  0.23345316  0.91667663  0.78787329  1
  O  O396  1  0.73368469  0.24988893  0.04020224  1
  O  O397  1  0.73240526  0.24970286  0.28933307  1
  O  O398  1  0.73558111  0.25047708  0.53874660  1
  O  O399  1  0.73358007  0.24997144  0.78842954  1
  O  O400  1  0.73283414  0.58335602  0.04052998  1
  O  O401  1  0.73380227  0.58385419  0.29008228  1
  O  O402  1  0.73226087  0.58310278  0.53750703  1
  O  O403  1  0.73327383  0.58289040  0.79044719  1
  O  O404  1  0.73491233  0.91685692  0.04126247  1
  O  O405  1  0.73399804  0.91672871  0.28795568  1
  O  O406  1  0.73462846  0.91692663  0.53797217  1
  O  O407  1  0.73344198  0.91722508  0.79035917  1
  O  O408  1  0.26713191  0.08311620  0.21033450  1
  O  O409  1  0.26628840  0.08307139  0.45940728  1
  O  O410  1  0.26644346  0.08316184  0.70933130  1
  O  O411  1  0.26778085  0.08322116  0.96238669  1
  O  O412  1  0.26795879  0.41665498  0.21014719  1
  O  O413  1  0.26501353  0.41652779  0.46136514  1
  O  O414  1  0.26631310  0.41661095  0.71141923  1
  O  O415  1  0.26549437  0.41630482  0.96182616  1
  O  O416  1  0.26817112  0.75030105  0.21059941  1
  O  O417  1  0.26521718  0.75037243  0.46075627  1
  O  O418  1  0.26600676  0.74933176  0.70807863  1
  O  O419  1  0.26614665  0.75022843  0.96252256  1
  O  O420  1  0.76645798  0.08345670  0.20991881  1
  O  O421  1  0.76823910  0.08346872  0.46016781  1
  O  O422  1  0.76793788  0.08424789  0.71065170  1
  O  O423  1  0.76832765  0.08335641  0.96105989  1
  O  O424  1  0.76440382  0.41692177  0.21117551  1
  O  O425  1  0.76511833  0.41658338  0.45933538  1
  O  O426  1  0.76649092  0.41636995  0.71232485  1
  O  O427  1  0.76393888  0.41613048  0.96218842  1
  O  O428  1  0.76611221  0.75027103  0.21234296  1
  O  O429  1  0.76397989  0.75023876  0.46141656  1
  O  O430  1  0.76555819  0.74978324  0.70866690  1
  O  O431  1  0.76521784  0.75054347  0.96293845  1
  O  O432  1  0.01752920  0.08251999  0.16290964  1
  O  O433  1  0.01540374  0.08366126  0.41646484  1
  O  O434  1  0.01473083  0.08338509  0.66354051  1
  O  O435  1  0.01549029  0.08354997  0.91337255  1
  O  O436  1  0.01870928  0.41679447  0.16456466  1
  O  O437  1  0.01589937  0.41648619  0.41546749  1
  O  O438  1  0.01729699  0.41689857  0.66465846  1
  O  O439  1  0.01804241  0.41651648  0.91216473  1
  O  O440  1  0.01748377  0.75022026  0.16622224  1
  O  O441  1  0.01490555  0.75018920  0.41323278  1
  O  O442  1  0.01901347  0.74932961  0.66329504  1
  O  O443  1  0.01731782  0.75031229  0.91502649  1
  O  O444  1  0.51409676  0.08301492  0.16417702  1
  O  O445  1  0.51503365  0.08322162  0.41230905  1
  O  O446  1  0.51574185  0.08301013  0.66577984  1
  O  O447  1  0.51511406  0.08387027  0.91677719  1
  O  O448  1  0.51672144  0.41694818  0.16563970  1
  O  O449  1  0.51669800  0.41664289  0.41256617  1
  O  O450  1  0.51502355  0.41661835  0.66562892  1
  O  O451  1  0.51591008  0.41598381  0.91251700  1
  O  O452  1  0.51697660  0.74956881  0.16591651  1
  O  O453  1  0.51635994  0.75054224  0.41183173  1
  O  O454  1  0.51758004  0.75053456  0.66450478  1
  O  O455  1  0.51534094  0.74982807  0.91558840  1
  O  O456  1  0.48228031  0.25052286  0.08818398  1
  O  O457  1  0.48426832  0.25001470  0.33457616  1
  O  O458  1  0.48257398  0.25023462  0.58737052  1
  O  O459  1  0.48231471  0.24993158  0.83513397  1
  O  O460  1  0.48140488  0.58304452  0.08602998  1
  O  O461  1  0.48320129  0.58367165  0.33721320  1
  O  O462  1  0.48389710  0.58338645  0.58368415  1
  O  O463  1  0.48124068  0.58304121  0.83482418  1
  O  O464  1  0.48247222  0.91646021  0.08866296  1
  O  O465  1  0.48273922  0.91601958  0.33453358  1
  O  O466  1  0.48174172  0.91664337  0.58447709  1
  O  O467  1  0.48117730  0.91700779  0.83630914  1
  O  O468  1  0.98584318  0.25003365  0.08628349  1
  O  O469  1  0.98208444  0.24972244  0.33484073  1
  O  O470  1  0.98285302  0.25090929  0.58835492  1
  O  O471  1  0.98498822  0.25009128  0.83440559  1
  O  O472  1  0.98454051  0.58365273  0.08455495  1
  O  O473  1  0.98271673  0.58330450  0.33765221  1
  O  O474  1  0.98578662  0.58307567  0.58631511  1
  O  O475  1  0.98517666  0.58309702  0.83397317  1
  O  O476  1  0.98405319  0.91652638  0.08760253  1
  O  O477  1  0.98352224  0.91686733  0.33743528  1
  O  O478  1  0.98573341  0.91664566  0.58651689  1
  O  O479  1  0.98493537  0.91647035  0.83400577  1
  O  O480  1  0.08968269  0.31470278  0.07880399  1
  O  O481  1  0.08647909  0.31454301  0.32667711  1
  O  O482  1  0.08641300  0.31611866  0.57837179  1
  O  O483  1  0.08899723  0.31543324  0.82712684  1
  O  O484  1  0.08808122  0.64936113  0.07887635  1
  O  O485  1  0.08645086  0.64824073  0.32738081  1
  O  O486  1  0.08978352  0.64775626  0.57733345  1
  O  O487  1  0.08951172  0.64733880  0.82667762  1
  O  O488  1  0.08779103  0.98132426  0.07823634  1
  O  O489  1  0.08724020  0.98206467  0.32700731  1
  O  O490  1  0.08969708  0.98084284  0.57685802  1
  O  O491  1  0.08847104  0.98230605  0.82654371  1
  O  O492  1  0.58581620  0.31575011  0.07857137  1
  O  O493  1  0.58805814  0.31567176  0.32744611  1
  O  O494  1  0.58647086  0.31483993  0.57791632  1
  O  O495  1  0.58633618  0.31535535  0.82690137  1
  O  O496  1  0.58500672  0.64864011  0.07800049  1
  O  O497  1  0.58684916  0.64855158  0.32786220  1
  O  O498  1  0.58764844  0.64928205  0.57723450  1
  O  O499  1  0.58558297  0.64715097  0.82764383  1
  O  O500  1  0.58613904  0.98087996  0.07770171  1
  O  O501  1  0.58669523  0.98128290  0.32560814  1
  O  O502  1  0.58562684  0.98158824  0.57658982  1
  O  O503  1  0.58474905  0.98250837  0.82746497  1
  O  O504  1  0.40990317  0.01861661  0.17238809  1
  O  O505  1  0.41197528  0.01683022  0.42073519  1
  O  O506  1  0.41183676  0.01793710  0.67146528  1
  O  O507  1  0.41101851  0.01872849  0.92288877  1
  O  O508  1  0.41280943  0.35152663  0.17379099  1
  O  O509  1  0.41294218  0.35209327  0.42228114  1
  O  O510  1  0.41119536  0.35092827  0.67270532  1
  O  O511  1  0.41240944  0.35113595  0.92162408  1
  O  O512  1  0.41270615  0.68489127  0.17329442  1
  O  O513  1  0.41282812  0.68533686  0.42197231  1
  O  O514  1  0.41372520  0.68569453  0.67205330  1
  O  O515  1  0.41158333  0.68458702  0.92168470  1
  O  O516  1  0.91372506  0.01745707  0.17196217  1
  O  O517  1  0.91166907  0.01803529  0.42258658  1
  O  O518  1  0.91061366  0.01936415  0.67273304  1
  O  O519  1  0.91182584  0.01838240  0.92271455  1
  O  O520  1  0.91473890  0.35173056  0.17273054  1
  O  O521  1  0.91221218  0.35138934  0.42194426  1
  O  O522  1  0.91328211  0.35150718  0.67375067  1
  O  O523  1  0.91447165  0.35155213  0.92274686  1
  O  O524  1  0.91280390  0.68606151  0.17358019  1
  O  O525  1  0.91139088  0.68488056  0.42214813  1
  O  O526  1  0.91502959  0.68465243  0.67259423  1
  O  O527  1  0.91373222  0.68477036  0.92277208  1
  O  O528  1  0.16327347  0.01791470  0.20162483  1
  O  O529  1  0.16281627  0.01738861  0.45240361  1
  O  O530  1  0.16242709  0.01863007  0.70300132  1
  O  O531  1  0.16421287  0.01807701  0.95260950  1
  O  O532  1  0.16391631  0.35111417  0.20204997  1
  O  O533  1  0.16135702  0.35190782  0.45289400  1
  O  O534  1  0.16252249  0.35130268  0.70255680  1
  O  O535  1  0.16163323  0.35172754  0.95227332  1
  O  O536  1  0.16392056  0.68586179  0.20181097  1
  O  O537  1  0.16191599  0.68464069  0.45232607  1
  O  O538  1  0.16190104  0.68458605  0.70249957  1
  O  O539  1  0.16276454  0.68514572  0.95334181  1
  O  O540  1  0.66285943  0.01785235  0.20252995  1
  O  O541  1  0.66426536  0.01857083  0.45181608  1
  O  O542  1  0.66406146  0.01944474  0.70191089  1
  O  O543  1  0.66459267  0.01816242  0.95200124  1
  O  O544  1  0.66111942  0.35047074  0.20290289  1
  O  O545  1  0.66072748  0.35252106  0.45194711  1
  O  O546  1  0.66330558  0.35013106  0.70296439  1
  O  O547  1  0.65997681  0.35152753  0.95235878  1
  O  O548  1  0.66190300  0.68618342  0.20212200  1
  O  O549  1  0.66063824  0.68405449  0.45223684  1
  O  O550  1  0.66110169  0.68546358  0.70205526  1
  O  O551  1  0.66170710  0.68532618  0.95302342  1
  O  O552  1  0.33982147  0.31421174  0.04802756  1
  O  O553  1  0.33619221  0.31531329  0.29709859  1
  O  O554  1  0.33766383  0.31505690  0.54842606  1
  O  O555  1  0.33704115  0.31623677  0.79763894  1
  O  O556  1  0.33952354  0.64791912  0.04802054  1
  O  O557  1  0.33953815  0.64835667  0.29737665  1
  O  O558  1  0.33597030  0.64842690  0.54756696  1
  O  O559  1  0.33643969  0.64720988  0.79798463  1
  O  O560  1  0.33927074  0.98266993  0.04753787  1
  O  O561  1  0.33750781  0.98161295  0.29705863  1
  O  O562  1  0.33708991  0.98138196  0.54765883  1
  O  O563  1  0.33754170  0.98108116  0.79749894  1
  O  O564  1  0.83751518  0.31459706  0.04804155  1
  O  O565  1  0.83601363  0.31561426  0.29826950  1
  O  O566  1  0.83975462  0.31424715  0.54803108  1
  O  O567  1  0.83679579  0.31601680  0.79754919  1
  O  O568  1  0.83687017  0.64806334  0.04784067  1
  O  O569  1  0.83752854  0.64961834  0.29786107  1
  O  O570  1  0.83583196  0.64824189  0.54784408  1
  O  O571  1  0.83718290  0.64767175  0.79750865  1
  O  O572  1  0.83871561  0.98282171  0.04806855  1
  O  O573  1  0.83853329  0.98044504  0.29764866  1
  O  O574  1  0.83830510  0.98234564  0.54619464  1
  O  O575  1  0.83748006  0.98214403  0.79657098  1
  O  O576  1  0.41051942  0.14877923  0.17269839  1
  O  O577  1  0.41113910  0.14723965  0.42141060  1
  O  O578  1  0.41200932  0.14823916  0.67205969  1
  O  O579  1  0.41114626  0.14902525  0.92268972  1
  O  O580  1  0.41247756  0.48148187  0.17306568  1
  O  O581  1  0.41322814  0.48233270  0.42191641  1
  O  O582  1  0.41067017  0.48093086  0.67279952  1
  O  O583  1  0.41238804  0.48135254  0.92164459  1
  O  O584  1  0.41298230  0.81488502  0.17380782  1
  O  O585  1  0.41272872  0.81561940  0.42155402  1
  O  O586  1  0.41365005  0.81587303  0.67169405  1
  O  O587  1  0.41165844  0.81494562  0.92203870  1
  O  O588  1  0.91386419  0.14751881  0.17236134  1
  O  O589  1  0.91121414  0.14837319  0.42208758  1
  O  O590  1  0.91131272  0.14950352  0.67222364  1
  O  O591  1  0.91168097  0.14842606  0.92282210  1
  O  O592  1  0.91458159  0.48170453  0.17243537  1
  O  O593  1  0.91225429  0.48186426  0.42260763  1
  O  O594  1  0.91313814  0.48149473  0.67389848  1
  O  O595  1  0.91440991  0.48165831  0.92271116  1
  O  O596  1  0.91358516  0.81604325  0.17364178  1
  O  O597  1  0.91146682  0.81540264  0.42188905  1
  O  O598  1  0.91542228  0.81473793  0.67287209  1
  O  O599  1  0.91338600  0.81490489  0.92257554  1
  O  O600  1  0.08904839  0.18412885  0.07829732  1
  O  O601  1  0.08628238  0.18474623  0.32672396  1
  O  O602  1  0.08617826  0.18588790  0.57752394  1
  O  O603  1  0.08905336  0.18547727  0.82631076  1
  O  O604  1  0.08853108  0.51885999  0.07862986  1
  O  O605  1  0.08655637  0.51835647  0.32761608  1
  O  O606  1  0.08931008  0.51745632  0.57774877  1
  O  O607  1  0.08894165  0.51737919  0.82704626  1
  O  O608  1  0.08752170  0.85096034  0.07899128  1
  O  O609  1  0.08755576  0.85218729  0.32682886  1
  O  O610  1  0.08913189  0.85065810  0.57735165  1
  O  O611  1  0.08947897  0.85237576  0.82701968  1
  O  O612  1  0.58570301  0.18549316  0.07747311  1
  O  O613  1  0.58845123  0.18558782  0.32662038  1
  O  O614  1  0.58603557  0.18469201  0.57735286  1
  O  O615  1  0.58661679  0.18536759  0.82664539  1
  O  O616  1  0.58528689  0.51830675  0.07813752  1
  O  O617  1  0.58666847  0.51836796  0.32777555  1
  O  O618  1  0.58825246  0.51911530  0.57669588  1
  O  O619  1  0.58476668  0.51702107  0.82733908  1
  O  O620  1  0.58580678  0.85057195  0.07862512  1
  O  O621  1  0.58717952  0.85128434  0.32660502  1
  O  O622  1  0.58572602  0.85148608  0.57732779  1
  O  O623  1  0.58519742  0.85237475  0.82781919  1
  O  O624  1  0.33915012  0.18413816  0.04747458  1
  O  O625  1  0.33646892  0.18503037  0.29643261  1
  O  O626  1  0.33792996  0.18514042  0.54831822  1
  O  O627  1  0.33780603  0.18621625  0.79795263  1
  O  O628  1  0.33935581  0.51792278  0.04793801  1
  O  O629  1  0.33938869  0.51801151  0.29730451  1
  O  O630  1  0.33645773  0.51836518  0.54723564  1
  O  O631  1  0.33608270  0.51721016  0.79784788  1
  O  O632  1  0.33979339  0.85266339  0.04834900  1
  O  O633  1  0.33718481  0.85141224  0.29788185  1
  O  O634  1  0.33726510  0.85151204  0.54782793  1
  O  O635  1  0.33694337  0.85105940  0.79748841  1
  O  O636  1  0.83753891  0.18432792  0.04732240  1
  O  O637  1  0.83698145  0.18563316  0.29776988  1
  O  O638  1  0.83893778  0.18413042  0.54701475  1
  O  O639  1  0.83776918  0.18574808  0.79655161  1
  O  O640  1  0.83639431  0.51780975  0.04810903  1
  O  O641  1  0.83809780  0.51942063  0.29822586  1
  O  O642  1  0.83598188  0.51818698  0.54760475  1
  O  O643  1  0.83695335  0.51722194  0.79746024  1
  O  O644  1  0.83929462  0.85272940  0.04903896  1
  O  O645  1  0.83727695  0.85038764  0.29782392  1
  O  O646  1  0.83819245  0.85217611  0.54726885  1
  O  O647  1  0.83695186  0.85170587  0.79750256  1
  O  O648  1  0.16302934  0.14806205  0.20180807  1
  O  O649  1  0.16244339  0.14770264  0.45222720  1
  O  O650  1  0.16292114  0.14889343  0.70272794  1
  O  O651  1  0.16418281  0.14806443  0.95269307  1
  O  O652  1  0.16384476  0.48120907  0.20183425  1
  O  O653  1  0.16170631  0.48222610  0.45288574  1
  O  O654  1  0.16240147  0.48143082  0.70278981  1
  O  O655  1  0.16189741  0.48166118  0.95219937  1
  O  O656  1  0.16411456  0.81589247  0.20195841  1
  O  O657  1  0.16137946  0.81500839  0.45285839  1
  O  O658  1  0.16223399  0.81485254  0.70216875  1
  O  O659  1  0.16271612  0.81525888  0.95335831  1
  O  O660  1  0.66236937  0.14820146  0.20266052  1
  O  O661  1  0.66436017  0.14862074  0.45226537  1
  O  O662  1  0.66419226  0.14972483  0.70229989  1
  O  O663  1  0.66443109  0.14827127  0.95209786  1
  O  O664  1  0.66011970  0.48072950  0.20221768  1
  O  O665  1  0.66143790  0.48256087  0.45192597  1
  O  O666  1  0.66240390  0.48033853  0.70288821  1
  O  O667  1  0.66020482  0.48151180  0.95206352  1
  O  O668  1  0.66258147  0.81632685  0.20267921  1
  O  O669  1  0.65985553  0.81420232  0.45157986  1
  O  O670  1  0.66177449  0.81554942  0.70175264  1
  O  O671  1  0.66165582  0.81555098  0.95339444  1
