# generated using pymatgen
data_Na2MnFe(PO4)2
_symmetry_space_group_name_H-M   'P 1'
_cell_length_a   21.08455017
_cell_length_b   18.93689379
_cell_length_c   20.04365522
_cell_angle_alpha   90.00036721
_cell_angle_beta   90.00105617
_cell_angle_gamma   90.00144916
_symmetry_Int_Tables_number   1
_chemical_formula_structural   Na2MnFe(PO4)2
_chemical_formula_sum   'Na96 Mn48 Fe48 P96 O384'
_cell_volume   8002.94821573
_cell_formula_units_Z   48
loop_
 _symmetry_equiv_pos_site_id
 _symmetry_equiv_pos_as_xyz
  1  'x, y, z'
loop_
 _atom_site_type_symbol
 _atom_site_label
 _atom_site_symmetry_multiplicity
 _atom_site_fract_x
 _atom_site_fract_y
 _atom_site_fract_z
 _atom_site_occupancy
  Na  Na0  1  -0.00210776  -0.00113798  -0.00006235  1
  Na  Na1  1  -0.00214289  -0.00068497  0.25001577  1
  Na  Na2  1  -0.00022419  0.00032676  0.50069823  1
  Na  Na3  1  -0.00044939  -0.00013556  0.74942903  1
  Na  Na4  1  -0.00181554  0.33359525  0.00115792  1
  Na  Na5  1  0.00018080  0.33418854  0.25021018  1
  Na  Na6  1  0.00040392  0.33454616  0.49932690  1
  Na  Na7  1  -0.00133539  0.33386849  0.74913275  1
  Na  Na8  1  -0.00127800  0.66569497  0.00092789  1
  Na  Na9  1  -0.00041431  0.66580966  0.25098589  1
  Na  Na10  1  0.00221631  0.66704926  0.49832455  1
  Na  Na11  1  0.00078650  0.66610474  0.74972818  1
  Na  Na12  1  0.49993370  -0.00129670  0.00046199  1
  Na  Na13  1  0.50141142  -0.00079432  0.25077238  1
  Na  Na14  1  0.50197552  0.00033836  0.49950086  1
  Na  Na15  1  0.50194286  0.00017462  0.75046076  1
  Na  Na16  1  0.50166970  0.33432287  0.00021798  1
  Na  Na17  1  0.50033257  0.33411373  0.24943984  1
  Na  Na18  1  0.49806367  0.33332225  0.50017132  1
  Na  Na19  1  0.49883356  0.33333308  0.74967331  1
  Na  Na20  1  0.50009348  0.66617051  0.00115111  1
  Na  Na21  1  0.49917428  0.66568525  0.25043432  1
  Na  Na22  1  0.50082348  0.66643060  0.49887420  1
  Na  Na23  1  0.50063847  0.66645070  0.74969239  1
  Na  Na24  1  0.25180835  0.00085812  0.12654645  1
  Na  Na25  1  0.24932373  -0.00011874  0.37475641  1
  Na  Na26  1  0.24809842  -0.00037538  0.62443555  1
  Na  Na27  1  0.24874525  -0.00064213  0.87531444  1
  Na  Na28  1  0.25082991  0.33494544  0.12533586  1
  Na  Na29  1  0.24870229  0.33305973  0.37511487  1
  Na  Na30  1  0.25125844  0.33433096  0.62583270  1
  Na  Na31  1  0.25045069  0.33365404  0.87414028  1
  Na  Na32  1  0.25086494  0.66666268  0.12466766  1
  Na  Na33  1  0.24930750  0.66562528  0.37514885  1
  Na  Na34  1  0.24855480  0.66586899  0.62412662  1
  Na  Na35  1  0.25015062  0.66673149  0.87515057  1
  Na  Na36  1  0.75033122  -0.00085583  0.12488350  1
  Na  Na37  1  0.75060016  -0.00082092  0.37538454  1
  Na  Na38  1  0.75055743  -0.00024250  0.62485921  1
  Na  Na39  1  0.75100327  -0.00041462  0.87426522  1
  Na  Na40  1  0.74849120  0.33414441  0.12394357  1
  Na  Na41  1  0.74918410  0.33360709  0.37520308  1
  Na  Na42  1  0.75203712  0.33475091  0.62529489  1
  Na  Na43  1  0.74883840  0.33342320  0.87561378  1
  Na  Na44  1  0.75134026  0.66695850  0.12467604  1
  Na  Na45  1  0.74920270  0.66525652  0.37470307  1
  Na  Na46  1  0.74922112  0.66585192  0.62473800  1
  Na  Na47  1  0.75018752  0.66604519  0.87539137  1
  Na  Na48  1  -0.00061340  0.16754553  0.00094750  1
  Na  Na49  1  0.00266326  0.16605066  0.25071347  1
  Na  Na50  1  0.00180087  0.16670728  0.49932744  1
  Na  Na51  1  0.00112505  0.16653076  0.74900382  1
  Na  Na52  1  -0.00323070  0.50045412  0.00134869  1
  Na  Na53  1  -0.00157314  0.50045009  0.25002262  1
  Na  Na54  1  0.00040229  0.49963872  0.49916663  1
  Na  Na55  1  -0.00184126  0.49967044  0.74944045  1
  Na  Na56  1  -0.00084999  0.83301171  -0.00014686  1
  Na  Na57  1  -0.00281804  0.83373701  0.25060824  1
  Na  Na58  1  -0.00169910  0.83373289  0.49929723  1
  Na  Na59  1  -0.00000733  0.83340621  0.74990064  1
  Na  Na60  1  0.50224347  0.16693283  0.00026903  1
  Na  Na61  1  0.50147557  0.16678323  0.24950682  1
  Na  Na62  1  0.50001674  0.16733815  0.50040544  1
  Na  Na63  1  0.50162913  0.16700126  0.75073070  1
  Na  Na64  1  0.49895812  0.49995348  0.00071077  1
  Na  Na65  1  0.49919636  0.50004188  0.25047829  1
  Na  Na66  1  0.49755209  0.50055005  0.49911824  1
  Na  Na67  1  0.49830681  0.49985614  0.74923907  1
  Na  Na68  1  0.50111342  0.83321745  0.00085947  1
  Na  Na69  1  0.50040194  0.83361384  0.25059565  1
  Na  Na70  1  0.50283708  0.83241065  0.49867709  1
  Na  Na71  1  0.50122271  0.83330652  0.74975152  1
  Na  Na72  1  0.24867689  0.16751385  0.12570678  1
  Na  Na73  1  0.24694838  0.16744868  0.37521674  1
  Na  Na74  1  0.24751529  0.16738179  0.62475378  1
  Na  Na75  1  0.25056824  0.16648519  0.87425549  1
  Na  Na76  1  0.25164767  0.49952483  0.12579418  1
  Na  Na77  1  0.25183266  0.49966534  0.37444718  1
  Na  Na78  1  0.25153013  0.49952357  0.62522896  1
  Na  Na79  1  0.25069913  0.49980015  0.87414577  1
  Na  Na80  1  0.25081505  0.83265091  0.12540816  1
  Na  Na81  1  0.25090617  0.83214273  0.37497944  1
  Na  Na82  1  0.24838911  0.83388722  0.62459604  1
  Na  Na83  1  0.24848039  0.83357397  0.87605772  1
  Na  Na84  1  0.74761420  0.16837589  0.12436432  1
  Na  Na85  1  0.75042428  0.16635953  0.37572277  1
  Na  Na86  1  0.74932051  0.16778628  0.62481473  1
  Na  Na87  1  0.74913627  0.16736276  0.87493199  1
  Na  Na88  1  0.75077727  0.50023751  0.12449762  1
  Na  Na89  1  0.75144027  0.49945937  0.37411785  1
  Na  Na90  1  0.75088602  0.49989360  0.62556535  1
  Na  Na91  1  0.75196885  0.49867108  0.87571474  1
  Na  Na92  1  0.74976290  0.83341166  0.12522775  1
  Na  Na93  1  0.74946167  0.83361355  0.37482134  1
  Na  Na94  1  0.75037303  0.83346832  0.62518213  1
  Na  Na95  1  0.74992554  0.83388157  0.87421007  1
  Mn  Mn96  1  0.60858266  0.08337017  0.87229547  1
  Mn  Mn97  1  0.14202439  0.58253756  0.99850154  1
  Mn  Mn98  1  0.35751826  0.75056484  0.75183100  1
  Mn  Mn99  1  0.89253108  0.24972700  0.62687672  1
  Mn  Mn100  1  0.35767132  0.08276103  0.75150881  1
  Mn  Mn101  1  0.60706621  0.41664160  0.62275760  1
  Mn  Mn102  1  0.14190015  0.25079245  0.99748233  1
  Mn  Mn103  1  0.14174430  0.91579682  0.24744427  1
  Mn  Mn104  1  0.10789633  0.41703036  0.62249760  1
  Mn  Mn105  1  0.39213176  0.91632577  0.87700114  1
  Mn  Mn106  1  0.60786183  0.74931558  0.12342601  1
  Mn  Mn107  1  0.39289283  0.24965664  0.12732003  1
  Mn  Mn108  1  0.14191307  0.91685251  0.99896506  1
  Mn  Mn109  1  0.64293779  0.91722270  0.74738331  1
  Mn  Mn110  1  0.89233055  0.58415470  0.62619644  1
  Mn  Mn111  1  0.35837143  0.74973190  0.00253624  1
  Mn  Mn112  1  0.85750712  0.08380297  0.00222489  1
  Mn  Mn113  1  0.35719500  0.08383222  0.50267694  1
  Mn  Mn114  1  0.89133623  0.24981225  0.12818450  1
  Mn  Mn115  1  0.85814986  0.08466131  0.75203959  1
  Mn  Mn116  1  0.64248497  0.58247672  0.74787367  1
  Mn  Mn117  1  0.60751877  0.41716327  0.37295523  1
  Mn  Mn118  1  0.14128674  0.91666215  0.49692570  1
  Mn  Mn119  1  0.14175629  0.58351420  0.74786135  1
  Mn  Mn120  1  0.35786023  0.74978624  0.50235346  1
  Mn  Mn121  1  0.64210715  0.25048401  0.49795632  1
  Mn  Mn122  1  0.60906066  0.08341968  0.37264740  1
  Mn  Mn123  1  0.89266865  0.25020520  0.37692675  1
  Mn  Mn124  1  0.85852966  0.74911542  0.75221029  1
  Mn  Mn125  1  0.35762743  0.08370133  0.25288376  1
  Mn  Mn126  1  0.85722111  0.74940423  0.50228491  1
  Mn  Mn127  1  0.10734894  0.41751081  0.12274135  1
  Mn  Mn128  1  0.39154134  0.24982564  0.37715864  1
  Mn  Mn129  1  0.10745269  0.74926822  0.87283961  1
  Mn  Mn130  1  0.14187734  0.24985385  0.74810268  1
  Mn  Mn131  1  0.85743558  0.08406464  0.25262948  1
  Mn  Mn132  1  0.39239586  0.58373573  0.87724226  1
  Mn  Mn133  1  0.10745914  0.08198279  0.12253683  1
  Mn  Mn134  1  0.39339926  0.91652801  0.37742029  1
  Mn  Mn135  1  0.60832678  0.08334670  0.12279778  1
  Mn  Mn136  1  0.10722162  0.75019457  0.37178232  1
  Mn  Mn137  1  0.60823711  0.74996126  0.62223761  1
  Mn  Mn138  1  0.39313998  0.24974618  0.87749483  1
  Mn  Mn139  1  0.35838745  0.08382193  0.00257298  1
  Mn  Mn140  1  0.39265416  0.91690292  0.62723652  1
  Mn  Mn141  1  0.85790769  0.74959301  0.00239366  1
  Mn  Mn142  1  0.64248050  0.58361457  0.99780047  1
  Mn  Mn143  1  0.10722851  0.08406544  0.87301746  1
  Fe  Fe144  1  0.85787306  0.08384837  0.50205246  1
  Fe  Fe145  1  0.10656943  0.74983963  0.12443374  1
  Fe  Fe146  1  0.89229160  0.58395155  0.12793717  1
  Fe  Fe147  1  0.89191960  0.91666352  0.37704330  1
  Fe  Fe148  1  0.35728136  0.41696504  0.25181892  1
  Fe  Fe149  1  0.64391634  0.91643455  0.49852420  1
  Fe  Fe150  1  0.85647075  0.41679874  0.25153696  1
  Fe  Fe151  1  0.89281996  0.58316725  0.37688978  1
  Fe  Fe152  1  0.60744574  0.41779558  0.87306247  1
  Fe  Fe153  1  0.89281960  0.91657121  0.87661718  1
  Fe  Fe154  1  0.14125653  0.91654840  0.74838096  1
  Fe  Fe155  1  0.10645445  0.08336671  0.37341810  1
  Fe  Fe156  1  0.60710404  0.41734590  0.12371564  1
  Fe  Fe157  1  0.39238349  0.58360342  0.62623356  1
  Fe  Fe158  1  0.64291111  0.25020163  0.99764923  1
  Fe  Fe159  1  0.10623029  0.41661022  0.87401895  1
  Fe  Fe160  1  0.85661545  0.41616930  0.00160171  1
  Fe  Fe161  1  0.60792413  0.74927182  0.37246198  1
  Fe  Fe162  1  0.89322143  0.91640506  0.62617978  1
  Fe  Fe163  1  0.64320301  0.58276360  0.24820299  1
  Fe  Fe164  1  0.60783722  0.08371762  0.62312087  1
  Fe  Fe165  1  0.39213432  0.24955337  0.62682466  1
  Fe  Fe166  1  0.64238955  0.25067941  0.24870361  1
  Fe  Fe167  1  0.39318319  0.91608276  0.12714939  1
  Fe  Fe168  1  0.14324007  0.58232823  0.49769460  1
  Fe  Fe169  1  0.85744234  0.41637395  0.75247796  1
  Fe  Fe170  1  0.35787440  0.41635547  0.00144437  1
  Fe  Fe171  1  0.64302128  0.25055988  0.74805229  1
  Fe  Fe172  1  0.89246105  0.58298473  0.87675474  1
  Fe  Fe173  1  0.39262449  0.58353130  0.12760235  1
  Fe  Fe174  1  0.35731930  0.74965586  0.25157838  1
  Fe  Fe175  1  0.35648963  0.41624673  0.50131534  1
  Fe  Fe176  1  0.64210238  0.58316094  0.49789675  1
  Fe  Fe177  1  0.14327916  0.58307949  0.24826421  1
  Fe  Fe178  1  0.35720400  0.41663423  0.75214960  1
  Fe  Fe179  1  0.10758023  0.41699452  0.37293084  1
  Fe  Fe180  1  0.10711971  0.08281841  0.62280455  1
  Fe  Fe181  1  0.10739788  0.75021893  0.62309757  1
  Fe  Fe182  1  0.14259956  0.25102928  0.24833116  1
  Fe  Fe183  1  0.60793986  0.74934911  0.87330588  1
  Fe  Fe184  1  0.89186181  0.25031279  0.87655848  1
  Fe  Fe185  1  0.64387802  0.91633641  0.24812279  1
  Fe  Fe186  1  0.85753294  0.41658274  0.50092265  1
  Fe  Fe187  1  0.14259165  0.25114488  0.49841031  1
  Fe  Fe188  1  0.85704534  0.74923245  0.25174176  1
  Fe  Fe189  1  0.39284918  0.58382492  0.37667444  1
  Fe  Fe190  1  0.89162900  0.91583452  0.12663831  1
  Fe  Fe191  1  0.64290282  0.91670980  0.99827444  1
  P  P192  1  0.05411934  0.25055974  0.11134001  1
  P  P193  1  0.05542075  0.25099343  0.36086537  1
  P  P194  1  0.05413211  0.24996158  0.60910374  1
  P  P195  1  0.05126491  0.25172157  0.86022248  1
  P  P196  1  0.05301829  0.58424305  0.11197996  1
  P  P197  1  0.05443709  0.58196915  0.36028977  1
  P  P198  1  0.05413131  0.58381619  0.60871085  1
  P  P199  1  0.05171568  0.58141570  0.86070036  1
  P  P200  1  0.05120583  0.91498606  0.11048316  1
  P  P201  1  0.05135048  0.91737696  0.35992201  1
  P  P202  1  0.05336005  0.91620282  0.61083521  1
  P  P203  1  0.05249558  0.91675707  0.85984903  1
  P  P204  1  0.55590690  0.25143234  0.11068137  1
  P  P205  1  0.55361704  0.25066501  0.35929533  1
  P  P206  1  0.55314634  0.24994913  0.61126508  1
  P  P207  1  0.55599080  0.25169368  0.86036677  1
  P  P208  1  0.55348524  0.58242329  0.11179810  1
  P  P209  1  0.55435395  0.58359670  0.36019818  1
  P  P210  1  0.55252680  0.58252551  0.60895097  1
  P  P211  1  0.55361095  0.58305351  0.86018173  1
  P  P212  1  0.55470866  0.91617429  0.11110691  1
  P  P213  1  0.55666424  0.91562151  0.36064799  1
  P  P214  1  0.55464417  0.91762457  0.60896628  1
  P  P215  1  0.55511640  0.91541622  0.86107086  1
  P  P216  1  0.44718358  0.08241450  0.14052594  1
  P  P217  1  0.44731884  0.08349934  0.39042840  1
  P  P218  1  0.44832432  0.08395268  0.64006767  1
  P  P219  1  0.44749784  0.08318955  0.89024053  1
  P  P220  1  0.44585603  0.41719994  0.13956324  1
  P  P221  1  0.44425053  0.41741426  0.38919699  1
  P  P222  1  0.44380719  0.41666895  0.63877055  1
  P  P223  1  0.44648162  0.41668067  0.88959003  1
  P  P224  1  0.44620808  0.74987747  0.14104378  1
  P  P225  1  0.44688281  0.74905189  0.38848089  1
  P  P226  1  0.44706390  0.74927953  0.63958803  1
  P  P227  1  0.44836972  0.75000610  0.89021150  1
  P  P228  1  0.94607884  0.08271517  0.14036854  1
  P  P229  1  0.94671138  0.08316139  0.39049630  1
  P  P230  1  0.94673628  0.08297471  0.63842552  1
  P  P231  1  0.94634102  0.08402647  0.88981071  1
  P  P232  1  0.94405782  0.41739272  0.13990793  1
  P  P233  1  0.94584226  0.41749062  0.38874052  1
  P  P234  1  0.94465558  0.41705940  0.63899191  1
  P  P235  1  0.94521773  0.41635391  0.88975924  1
  P  P236  1  0.94633565  0.74964398  0.14095245  1
  P  P237  1  0.94465519  0.74931050  0.38848946  1
  P  P238  1  0.94797907  0.75015809  0.63934222  1
  P  P239  1  0.94658027  0.74945820  0.88997565  1
  P  P240  1  0.19467368  0.08388754  0.23649514  1
  P  P241  1  0.19417720  0.08428964  0.48530575  1
  P  P242  1  0.19530115  0.08251993  0.73431145  1
  P  P243  1  0.19689656  0.08344596  0.98501650  1
  P  P244  1  0.19637905  0.41746842  0.23645861  1
  P  P245  1  0.19698814  0.41695711  0.48459221  1
  P  P246  1  0.19623425  0.41674962  0.73624948  1
  P  P247  1  0.19740383  0.41715525  0.98418699  1
  P  P248  1  0.19707945  0.74853598  0.23455857  1
  P  P249  1  0.19512610  0.74902501  0.48561083  1
  P  P250  1  0.19553185  0.75062810  0.73426362  1
  P  P251  1  0.19539242  0.74955241  0.98663770  1
  P  P252  1  0.69702672  0.08329221  0.23507818  1
  P  P253  1  0.69729672  0.08275247  0.48647921  1
  P  P254  1  0.69649002  0.08451359  0.73403209  1
  P  P255  1  0.69665107  0.08297521  0.98492352  1
  P  P256  1  0.69674051  0.41739398  0.23454231  1
  P  P257  1  0.69757481  0.41763992  0.48515128  1
  P  P258  1  0.69678906  0.41609046  0.73617562  1
  P  P259  1  0.69555420  0.41685624  0.98575184  1
  P  P260  1  0.69691062  0.74909437  0.23628041  1
  P  P261  1  0.69593224  0.74979244  0.48422391  1
  P  P262  1  0.69627648  0.74950740  0.73576745  1
  P  P263  1  0.69623909  0.75064031  0.98456644  1
  P  P264  1  0.30343660  0.25117488  0.01514793  1
  P  P265  1  0.30212505  0.25096475  0.26498047  1
  P  P266  1  0.30224628  0.25078935  0.51543087  1
  P  P267  1  0.30477134  0.25014120  0.76383928  1
  P  P268  1  0.30441568  0.58213692  0.01572261  1
  P  P269  1  0.30464583  0.58375090  0.26430340  1
  P  P270  1  0.30403340  0.58247217  0.51389023  1
  P  P271  1  0.30444663  0.58322739  0.76365436  1
  P  P272  1  0.30407787  0.91670229  0.01637548  1
  P  P273  1  0.30458963  0.91546637  0.26432134  1
  P  P274  1  0.30301274  0.91675377  0.51491070  1
  P  P275  1  0.30127105  0.91663205  0.76500733  1
  P  P276  1  0.80311723  0.25099357  0.01376649  1
  P  P277  1  0.80151647  0.25146535  0.26498683  1
  P  P278  1  0.80374637  0.25040823  0.51472901  1
  P  P279  1  0.80286083  0.25094293  0.76551510  1
  P  P280  1  0.80539945  0.58242455  0.01460669  1
  P  P281  1  0.80419813  0.58316238  0.26418298  1
  P  P282  1  0.80294008  0.58244477  0.51345369  1
  P  P283  1  0.80422470  0.58239430  0.76558576  1
  P  P284  1  0.80390517  0.91631661  0.01422525  1
  P  P285  1  0.80426797  0.91559684  0.26440519  1
  P  P286  1  0.80466536  0.91702963  0.51447294  1
  P  P287  1  0.80599164  0.91676794  0.76402218  1
  O  O288  1  0.05894723  0.25116835  0.18810459  1
  O  O289  1  0.05898829  0.25160233  0.43763176  1
  O  O290  1  0.05671685  0.25095108  0.68594195  1
  O  O291  1  0.05492268  0.25128984  0.93695203  1
  O  O292  1  0.05829005  0.58313995  0.18857904  1
  O  O293  1  0.05943840  0.58223217  0.43692993  1
  O  O294  1  0.05665538  0.58250437  0.68556590  1
  O  O295  1  0.05526446  0.58177540  0.93739298  1
  O  O296  1  0.05511695  0.91586290  0.18716177  1
  O  O297  1  0.05524228  0.91662276  0.43660248  1
  O  O298  1  0.05744028  0.91639511  0.68752468  1
  O  O299  1  0.05632188  0.91665697  0.93654227  1
  O  O300  1  0.55987842  0.25078315  0.18749569  1
  O  O301  1  0.55673808  0.25096433  0.43613021  1
  O  O302  1  0.55830242  0.25081636  0.68787922  1
  O  O303  1  0.56003667  0.25083332  0.93723297  1
  O  O304  1  0.55863238  0.58279440  0.18841622  1
  O  O305  1  0.55902330  0.58272357  0.43689763  1
  O  O306  1  0.55681488  0.58214220  0.68563110  1
  O  O307  1  0.55632109  0.58265476  0.93700853  1
  O  O308  1  0.56009941  0.91623477  0.18779981  1
  O  O309  1  0.56088475  0.91659180  0.43737720  1
  O  O310  1  0.55745019  0.91680675  0.68579572  1
  O  O311  1  0.55908389  0.91627174  0.93786353  1
  O  O312  1  0.44443200  0.08330582  0.06372696  1
  O  O313  1  0.44374202  0.08347129  0.31366131  1
  O  O314  1  0.44420077  0.08365747  0.56337103  1
  O  O315  1  0.44391332  0.08336352  0.81348006  1
  O  O316  1  0.44172584  0.41643926  0.06285964  1
  O  O317  1  0.44034867  0.41645974  0.31239737  1
  O  O318  1  0.43997276  0.41638423  0.56194124  1
  O  O319  1  0.44139505  0.41653287  0.81289301  1
  O  O320  1  0.44377170  0.74984846  0.06421008  1
  O  O321  1  0.44180537  0.74962948  0.31190497  1
  O  O322  1  0.44409953  0.74989536  0.56277546  1
  O  O323  1  0.44424661  0.75020115  0.81353004  1
  O  O324  1  0.94288383  0.08373964  0.06358536  1
  O  O325  1  0.94297655  0.08396991  0.31376056  1
  O  O326  1  0.94190828  0.08396036  0.56175573  1
  O  O327  1  0.94413572  0.08440742  0.81298403  1
  O  O328  1  0.93977120  0.41634289  0.06316428  1
  O  O329  1  0.94069490  0.41671294  0.31211374  1
  O  O330  1  0.94044302  0.41703065  0.56219033  1
  O  O331  1  0.94132743  0.41608758  0.81294218  1
  O  O332  1  0.94331271  0.74957148  0.06426443  1
  O  O333  1  0.94046513  0.74907308  0.31177094  1
  O  O334  1  0.94403592  0.74940571  0.56262844  1
  O  O335  1  0.94427995  0.74929942  0.81316499  1
  O  O336  1  0.19350670  0.08325428  0.06184166  1
  O  O337  1  0.19011183  0.08262171  0.31326350  1
  O  O338  1  0.19005149  0.08292415  0.56210745  1
  O  O339  1  0.19247298  0.08332181  0.81114961  1
  O  O340  1  0.19315928  0.41736591  0.06093694  1
  O  O341  1  0.19182153  0.41751024  0.31309394  1
  O  O342  1  0.19388187  0.41732507  0.56132261  1
  O  O343  1  0.19084854  0.41677505  0.81280474  1
  O  O344  1  0.19070433  0.74956274  0.06331845  1
  O  O345  1  0.19314414  0.74939821  0.31131538  1
  O  O346  1  0.19086235  0.75011050  0.56232422  1
  O  O347  1  0.19273943  0.74977584  0.81116289  1
  O  O348  1  0.69395939  0.08281826  0.06170902  1
  O  O349  1  0.69497432  0.08296209  0.31193073  1
  O  O350  1  0.69239772  0.08357704  0.56310605  1
  O  O351  1  0.69366275  0.08335274  0.81083383  1
  O  O352  1  0.69093481  0.41801573  0.06238525  1
  O  O353  1  0.69335044  0.41747457  0.31127950  1
  O  O354  1  0.69376393  0.41749067  0.56180678  1
  O  O355  1  0.69206101  0.41706696  0.81280028  1
  O  O356  1  0.69324452  0.74978225  0.06141874  1
  O  O357  1  0.69255318  0.74889571  0.31292863  1
  O  O358  1  0.69358021  0.74961527  0.56110323  1
  O  O359  1  0.69216304  0.74940069  0.81249245  1
  O  O360  1  0.30638668  0.25043639  0.18833746  1
  O  O361  1  0.30567662  0.24969215  0.43871718  1
  O  O362  1  0.30863461  0.24934084  0.68706684  1
  O  O363  1  0.30677704  0.25032014  0.93836835  1
  O  O364  1  0.30901564  0.58364219  0.18757645  1
  O  O365  1  0.30867970  0.58378106  0.43719400  1
  O  O366  1  0.30833293  0.58389293  0.68690771  1
  O  O367  1  0.30713349  0.58324127  0.93888753  1
  O  O368  1  0.30914064  0.91623500  0.18761459  1
  O  O369  1  0.30704149  0.91665043  0.43814961  1
  O  O370  1  0.30571470  0.91672089  0.68833209  1
  O  O371  1  0.30679937  0.91640194  0.93951975  1
  O  O372  1  0.80479321  0.25088958  0.18827907  1
  O  O373  1  0.80675060  0.25004620  0.43795812  1
  O  O374  1  0.80682858  0.25026727  0.68883240  1
  O  O375  1  0.80792674  0.25035696  0.93714430  1
  O  O376  1  0.80838114  0.58383363  0.18743094  1
  O  O377  1  0.80804530  0.58298147  0.43682000  1
  O  O378  1  0.80698002  0.58363734  0.68877391  1
  O  O379  1  0.80942007  0.58319559  0.93786086  1
  O  O380  1  0.80864652  0.91603322  0.18763883  1
  O  O381  1  0.80895771  0.91656778  0.43767175  1
  O  O382  1  0.81041629  0.91636626  0.68721001  1
  O  O383  1  0.80903969  0.91628555  0.93753124  1
  O  O384  1  0.23380505  0.25135438  0.04038481  1
  O  O385  1  0.23199011  0.25063020  0.28922464  1
  O  O386  1  0.23212903  0.25110079  0.53990796  1
  O  O387  1  0.23477067  0.24995698  0.78825327  1
  O  O388  1  0.23474597  0.58266810  0.04099266  1
  O  O389  1  0.23427210  0.58310507  0.28814748  1
  O  O390  1  0.23362149  0.58261694  0.53752630  1
  O  O391  1  0.23453096  0.58338430  0.78833621  1
  O  O392  1  0.23438520  0.91690240  0.04166061  1
  O  O393  1  0.23444226  0.91553969  0.28835146  1
  O  O394  1  0.23301559  0.91684909  0.53891565  1
  O  O395  1  0.23118175  0.91652601  0.78934361  1
  O  O396  1  0.73269749  0.25112151  0.03727199  1
  O  O397  1  0.73162658  0.25076700  0.29005252  1
  O  O398  1  0.73412981  0.25108266  0.54010548  1
  O  O399  1  0.73278264  0.25040865  0.78979681  1
  O  O400  1  0.73524405  0.58349952  0.03856581  1
  O  O401  1  0.73379171  0.58241648  0.28792502  1
  O  O402  1  0.73263899  0.58309473  0.53732179  1
  O  O403  1  0.73460199  0.58228639  0.79087291  1
  O  O404  1  0.73348833  0.91626920  0.03769839  1
  O  O405  1  0.73385121  0.91620344  0.28801305  1
  O  O406  1  0.73432128  0.91631680  0.53822728  1
  O  O407  1  0.73580334  0.91711313  0.78755577  1
  O  O408  1  0.26479837  0.08414847  0.21260768  1
  O  O409  1  0.26425604  0.08363525  0.46117897  1
  O  O410  1  0.26494864  0.08344386  0.70894166  1
  O  O411  1  0.26649614  0.08321236  0.95980368  1
  O  O412  1  0.26677498  0.41773124  0.21266076  1
  O  O413  1  0.26704267  0.41653622  0.45986051  1
  O  O414  1  0.26661062  0.41676698  0.71275879  1
  O  O415  1  0.26758069  0.41692021  0.96016236  1
  O  O416  1  0.26722714  0.74918710  0.21048363  1
  O  O417  1  0.26515680  0.74900439  0.46141731  1
  O  O418  1  0.26512308  0.74984798  0.70885583  1
  O  O419  1  0.26548240  0.74961199  0.96254430  1
  O  O420  1  0.76640355  0.08382096  0.20891079  1
  O  O421  1  0.76760564  0.08299337  0.46248905  1
  O  O422  1  0.76626767  0.08406413  0.70913393  1
  O  O423  1  0.76614714  0.08332270  0.95920162  1
  O  O424  1  0.76680650  0.41768703  0.20989829  1
  O  O425  1  0.76756237  0.41650318  0.46035898  1
  O  O426  1  0.76712864  0.41669789  0.71246291  1
  O  O427  1  0.76602586  0.41661330  0.96227238  1
  O  O428  1  0.76711669  0.74938005  0.21193750  1
  O  O429  1  0.76559530  0.74945434  0.45890576  1
  O  O430  1  0.76619094  0.74949484  0.71118962  1
  O  O431  1  0.76598173  0.74989767  0.95968777  1
  O  O432  1  0.01571208  0.08255182  0.16552177  1
  O  O433  1  0.01691269  0.08362700  0.41463665  1
  O  O434  1  0.01704411  0.08306231  0.66220446  1
  O  O435  1  0.01571015  0.08365772  0.91604801  1
  O  O436  1  0.01425406  0.41734656  0.16362825  1
  O  O437  1  0.01634372  0.41721377  0.41204165  1
  O  O438  1  0.01482437  0.41690332  0.66270757  1
  O  O439  1  0.01525967  0.41675168  0.91461510  1
  O  O440  1  0.01619927  0.74966540  0.16629904  1
  O  O441  1  0.01473482  0.74980294  0.41249381  1
  O  O442  1  0.01786981  0.74970216  0.66415601  1
  O  O443  1  0.01603059  0.74932396  0.91589490  1
  O  O444  1  0.51688461  0.08266940  0.16572645  1
  O  O445  1  0.51717719  0.08379251  0.41494780  1
  O  O446  1  0.51836470  0.08366370  0.66466116  1
  O  O447  1  0.51728478  0.08306606  0.91503363  1
  O  O448  1  0.51617678  0.41701751  0.16359680  1
  O  O449  1  0.51431335  0.41702753  0.41341101  1
  O  O450  1  0.51388891  0.41665398  0.66310325  1
  O  O451  1  0.51686801  0.41711807  0.91303720  1
  O  O452  1  0.51589939  0.74962002  0.16631299  1
  O  O453  1  0.51732284  0.74910574  0.41187988  1
  O  O454  1  0.51675460  0.74954748  0.66471106  1
  O  O455  1  0.51826719  0.74947604  0.91508389  1
  O  O456  1  0.48586478  0.25045775  0.08650865  1
  O  O457  1  0.48392999  0.25054822  0.33428106  1
  O  O458  1  0.48276794  0.25028655  0.58755894  1
  O  O459  1  0.48592189  0.25053820  0.83642154  1
  O  O460  1  0.48310063  0.58319723  0.08827757  1
  O  O461  1  0.48387036  0.58319716  0.33687253  1
  O  O462  1  0.48231911  0.58302403  0.58494704  1
  O  O463  1  0.48412253  0.58314392  0.83455897  1
  O  O464  1  0.48418049  0.91576138  0.08809472  1
  O  O465  1  0.48648364  0.91627162  0.33687301  1
  O  O466  1  0.48503924  0.91641777  0.58351950  1
  O  O467  1  0.48525538  0.91633386  0.83631355  1
  O  O468  1  0.98391346  0.25062323  0.08787033  1
  O  O469  1  0.98537016  0.25053696  0.33626985  1
  O  O470  1  0.98448567  0.25055034  0.58381636  1
  O  O471  1  0.98142537  0.25086382  0.83509353  1
  O  O472  1  0.98257156  0.58363021  0.08863271  1
  O  O473  1  0.98383921  0.58277529  0.33723897  1
  O  O474  1  0.98449945  0.58346641  0.58328052  1
  O  O475  1  0.98180556  0.58239861  0.83571154  1
  O  O476  1  0.98114188  0.91532751  0.08594340  1
  O  O477  1  0.98111770  0.91677446  0.33586837  1
  O  O478  1  0.98316673  0.91662347  0.58633115  1
  O  O479  1  0.98230702  0.91665474  0.83558558  1
  O  O480  1  0.08734918  0.31559949  0.07784880  1
  O  O481  1  0.08889062  0.31613419  0.32758832  1
  O  O482  1  0.08869508  0.31478306  0.57646290  1
  O  O483  1  0.08493577  0.31695364  0.82764445  1
  O  O484  1  0.08581788  0.64966230  0.07895986  1
  O  O485  1  0.08805023  0.64682014  0.32673043  1
  O  O486  1  0.08836744  0.64903996  0.57699625  1
  O  O487  1  0.08617905  0.64625428  0.82812607  1
  O  O488  1  0.08505844  0.97988007  0.07733367  1
  O  O489  1  0.08478480  0.98253520  0.32737443  1
  O  O490  1  0.08694433  0.98117153  0.57766780  1
  O  O491  1  0.08619810  0.98177758  0.82689416  1
  O  O492  1  0.58896207  0.31692204  0.07796222  1
  O  O493  1  0.58780473  0.31569895  0.32678813  1
  O  O494  1  0.58632699  0.31490995  0.57743385  1
  O  O495  1  0.58885442  0.31721042  0.82745464  1
  O  O496  1  0.58711094  0.64729304  0.07837502  1
  O  O497  1  0.58783700  0.64855607  0.32692453  1
  O  O498  1  0.58681369  0.64737273  0.57627059  1
  O  O499  1  0.58795400  0.64820037  0.82822601  1
  O  O500  1  0.58778156  0.98117488  0.07737480  1
  O  O501  1  0.59055334  0.98037142  0.32718498  1
  O  O502  1  0.58845809  0.98314816  0.57706500  1
  O  O503  1  0.58931002  0.98016075  0.82786917  1
  O  O504  1  0.41314412  0.01724565  0.17260047  1
  O  O505  1  0.41353728  0.01841138  0.42305254  1
  O  O506  1  0.41460494  0.01871328  0.67284807  1
  O  O507  1  0.41341913  0.01816577  0.92255640  1
  O  O508  1  0.41219656  0.35236126  0.17313221  1
  O  O509  1  0.41027545  0.35273311  0.42266566  1
  O  O510  1  0.41012351  0.35174010  0.67204453  1
  O  O511  1  0.41340033  0.35163935  0.92327154  1
  O  O512  1  0.41176103  0.68482101  0.17321816  1
  O  O513  1  0.41364546  0.68383893  0.42166287  1
  O  O514  1  0.41309245  0.68398537  0.67158217  1
  O  O515  1  0.41423042  0.68503010  0.92287652  1
  O  O516  1  0.91181046  0.01745948  0.17202826  1
  O  O517  1  0.91294875  0.01803466  0.42299295  1
  O  O518  1  0.91332667  0.01798060  0.67134492  1
  O  O519  1  0.91181577  0.01875459  0.92141905  1
  O  O520  1  0.91040759  0.35263297  0.17364142  1
  O  O521  1  0.91248602  0.35262587  0.42253721  1
  O  O522  1  0.91100620  0.35215593  0.67232862  1
  O  O523  1  0.91154840  0.35125540  0.92290469  1
  O  O524  1  0.91208580  0.68463972  0.17362410  1
  O  O525  1  0.91171317  0.68388329  0.42168932  1
  O  O526  1  0.91403058  0.68514147  0.67216275  1
  O  O527  1  0.91225199  0.68443077  0.92216995  1
  O  O528  1  0.16166505  0.01863063  0.20291143  1
  O  O529  1  0.15996141  0.01977432  0.45160579  1
  O  O530  1  0.16138360  0.01716172  0.70220359  1
  O  O531  1  0.16247081  0.01843380  0.95292792  1
  O  O532  1  0.16319671  0.35242923  0.20305120  1
  O  O533  1  0.16268141  0.35201063  0.45220384  1
  O  O534  1  0.16308754  0.35170744  0.70268569  1
  O  O535  1  0.16323996  0.35233345  0.95125997  1
  O  O536  1  0.16349257  0.68317249  0.20214176  1
  O  O537  1  0.16158472  0.68372846  0.45305204  1
  O  O538  1  0.16068708  0.68588322  0.70184606  1
  O  O539  1  0.16213442  0.68436493  0.95334321  1
  O  O540  1  0.66309867  0.01799600  0.20288079  1
  O  O541  1  0.66421675  0.01752560  0.45335273  1
  O  O542  1  0.66204775  0.01979777  0.70123560  1
  O  O543  1  0.66277530  0.01774497  0.95263133  1
  O  O544  1  0.66284195  0.35233040  0.20198279  1
  O  O545  1  0.66308835  0.35281944  0.45261117  1
  O  O546  1  0.66378318  0.35077185  0.70293860  1
  O  O547  1  0.66200666  0.35195682  0.95263926  1
  O  O548  1  0.66369054  0.68392431  0.20294887  1
  O  O549  1  0.66128406  0.68491671  0.45193522  1
  O  O550  1  0.66260314  0.68445487  0.70277424  1
  O  O551  1  0.66167640  0.68575708  0.95206187  1
  O  O552  1  0.33769020  0.31642047  0.04710637  1
  O  O553  1  0.33555198  0.31621925  0.29761381  1
  O  O554  1  0.33641566  0.31589337  0.54750586  1
  O  O555  1  0.33833442  0.31546286  0.79641451  1
  O  O556  1  0.33918357  0.64679232  0.04845193  1
  O  O557  1  0.33767788  0.64903279  0.29770115  1
  O  O558  1  0.33760366  0.64711997  0.54785780  1
  O  O559  1  0.33803628  0.64819755  0.79695613  1
  O  O560  1  0.33870955  0.98154162  0.04863433  1
  O  O561  1  0.33807634  0.98046913  0.29771521  1
  O  O562  1  0.33670474  0.98182629  0.54774239  1
  O  O563  1  0.33510552  0.98170137  0.79776634  1
  O  O564  1  0.83636215  0.31601352  0.04704634  1
  O  O565  1  0.83522424  0.31671814  0.29736345  1
  O  O566  1  0.83816924  0.31546000  0.54667653  1
  O  O567  1  0.83656369  0.31603039  0.79832670  1
  O  O568  1  0.83944501  0.64711404  0.04805163  1
  O  O569  1  0.83730937  0.64812996  0.29789292  1
  O  O570  1  0.83634308  0.64742484  0.54709182  1
  O  O571  1  0.83856446  0.64719055  0.79843940  1
  O  O572  1  0.83728682  0.98121369  0.04773517  1
  O  O573  1  0.83779720  0.98053726  0.29790931  1
  O  O574  1  0.83805301  0.98209327  0.54751112  1
  O  O575  1  0.83953186  0.98182703  0.79703520  1
  O  O576  1  0.41312564  0.14759955  0.17299742  1
  O  O577  1  0.41319124  0.14856414  0.42285477  1
  O  O578  1  0.41447839  0.14898096  0.67274862  1
  O  O579  1  0.41389418  0.14843607  0.92295801  1
  O  O580  1  0.41227614  0.48230506  0.17258566  1
  O  O581  1  0.41078174  0.48281654  0.42161345  1
  O  O582  1  0.41029925  0.48202576  0.67149564  1
  O  O583  1  0.41275053  0.48148425  0.92292660  1
  O  O584  1  0.41202633  0.81493172  0.17339042  1
  O  O585  1  0.41373404  0.81391271  0.42236339  1
  O  O586  1  0.41302514  0.81432948  0.67225689  1
  O  O587  1  0.41460393  0.81503108  0.92307009  1
  O  O588  1  0.91227625  0.14781707  0.17327907  1
  O  O589  1  0.91278859  0.14816734  0.42344240  1
  O  O590  1  0.91366007  0.14807115  0.67207901  1
  O  O591  1  0.91218156  0.14925487  0.92201670  1
  O  O592  1  0.91052527  0.48259753  0.17268589  1
  O  O593  1  0.91255462  0.48263476  0.42205210  1
  O  O594  1  0.91116372  0.48206315  0.67209496  1
  O  O595  1  0.91117562  0.48135341  0.92251601  1
  O  O596  1  0.91182528  0.81457306  0.17324500  1
  O  O597  1  0.91097745  0.81434561  0.42133838  1
  O  O598  1  0.91413065  0.81521911  0.67179033  1
  O  O599  1  0.91238660  0.81472161  0.92195398  1
  O  O600  1  0.08736161  0.18535321  0.07835518  1
  O  O601  1  0.08925979  0.18582464  0.32842534  1
  O  O602  1  0.08817762  0.18469238  0.57729734  1
  O  O603  1  0.08580581  0.18686356  0.82775324  1
  O  O604  1  0.08630126  0.51951326  0.07788406  1
  O  O605  1  0.08735866  0.51687065  0.32664077  1
  O  O606  1  0.08861025  0.51894726  0.57599346  1
  O  O607  1  0.08510411  0.51621715  0.82780635  1
  O  O608  1  0.08489963  0.84969308  0.07826246  1
  O  O609  1  0.08522210  0.85243954  0.32689598  1
  O  O610  1  0.08641233  0.85095263  0.57759434  1
  O  O611  1  0.08642014  0.85178318  0.82697445  1
  O  O612  1  0.59020337  0.18675215  0.07748345  1
  O  O613  1  0.58816835  0.18574437  0.32712210  1
  O  O614  1  0.58651896  0.18480839  0.57813142  1
  O  O615  1  0.59035959  0.18713839  0.82712642  1
  O  O616  1  0.58636411  0.51733256  0.07818861  1
  O  O617  1  0.58771798  0.51866905  0.32652968  1
  O  O618  1  0.58592547  0.51743653  0.57566400  1
  O  O619  1  0.58759606  0.51788651  0.82756825  1
  O  O620  1  0.58817175  0.85122652  0.07776125  1
  O  O621  1  0.58975323  0.85021213  0.32768447  1
  O  O622  1  0.58978452  0.85304958  0.57652157  1
  O  O623  1  0.58843517  0.85000029  0.82844994  1
  O  O624  1  0.33746941  0.18619814  0.04801476  1
  O  O625  1  0.33581269  0.18606327  0.29826612  1
  O  O626  1  0.33607943  0.18587835  0.54871175  1
  O  O627  1  0.33844981  0.18523047  0.79704051  1
  O  O628  1  0.33843713  0.51674622  0.04757602  1
  O  O629  1  0.33860932  0.51897079  0.29744345  1
  O  O630  1  0.33723241  0.51710942  0.54660285  1
  O  O631  1  0.33813287  0.51795014  0.79622820  1
  O  O632  1  0.33839106  0.85160089  0.04866864  1
  O  O633  1  0.33793843  0.85004706  0.29704090  1
  O  O634  1  0.33664695  0.85161821  0.54761578  1
  O  O635  1  0.33505661  0.85154736  0.79791685  1
  O  O636  1  0.83604669  0.18596533  0.04757026  1
  O  O637  1  0.83596354  0.18669402  0.29763184  1
  O  O638  1  0.83743714  0.18513220  0.54734952  1
  O  O639  1  0.83697489  0.18610200  0.79852364  1
  O  O640  1  0.83843356  0.51706974  0.04742504  1
  O  O641  1  0.83801787  0.51814618  0.29706738  1
  O  O642  1  0.83620085  0.51735776  0.54651236  1
  O  O643  1  0.83856179  0.51722270  0.79751587  1
  O  O644  1  0.83713507  0.85131523  0.04785784  1
  O  O645  1  0.83725507  0.85039662  0.29761396  1
  O  O646  1  0.83828704  0.85204029  0.54777509  1
  O  O647  1  0.83927673  0.85178475  0.79752331  1
  O  O648  1  0.16108413  0.14912341  0.20403618  1
  O  O649  1  0.16091454  0.14993687  0.45319028  1
  O  O650  1  0.16038317  0.14727569  0.70197499  1
  O  O651  1  0.16297888  0.14870535  0.95262550  1
  O  O652  1  0.16314178  0.48257665  0.20296088  1
  O  O653  1  0.16322268  0.48190568  0.45143082  1
  O  O654  1  0.16308817  0.48172072  0.70253794  1
  O  O655  1  0.16359190  0.48219743  0.95132254  1
  O  O656  1  0.16261465  0.81317085  0.20154707  1
  O  O657  1  0.16159953  0.81393521  0.45198940  1
  O  O658  1  0.16148132  0.81595156  0.70225793  1
  O  O659  1  0.16183003  0.81462014  0.95360950  1
  O  O660  1  0.66230944  0.14840255  0.20355924  1
  O  O661  1  0.66380239  0.14773373  0.45306062  1
  O  O662  1  0.66250332  0.14993749  0.70216106  1
  O  O663  1  0.66234365  0.14818118  0.95302380  1
  O  O664  1  0.66271598  0.48239194  0.20166522  1
  O  O665  1  0.66427285  0.48275208  0.45202284  1
  O  O666  1  0.66315462  0.48077557  0.70240272  1
  O  O667  1  0.66258354  0.48188975  0.95179923  1
  O  O668  1  0.66342088  0.81416224  0.20325860  1
  O  O669  1  0.66201565  0.81512090  0.45216449  1
  O  O670  1  0.66274533  0.81462549  0.70282222  1
  O  O671  1  0.66242921  0.81581572  0.95231085  1
