# generated using pymatgen
data_Na2MnFe(PO4)2
_symmetry_space_group_name_H-M   'P 1'
_cell_length_a   21.08280745
_cell_length_b   18.93493371
_cell_length_c   20.04197807
_cell_angle_alpha   90.00028491
_cell_angle_beta   90.00031714
_cell_angle_gamma   89.99737148
_symmetry_Int_Tables_number   1
_chemical_formula_structural   Na2MnFe(PO4)2
_chemical_formula_sum   'Na96 Mn48 Fe48 P96 O384'
_cell_volume   8000.78893138
_cell_formula_units_Z   48
loop_
 _symmetry_equiv_pos_site_id
 _symmetry_equiv_pos_as_xyz
  1  'x, y, z'
loop_
 _atom_site_type_symbol
 _atom_site_label
 _atom_site_symmetry_multiplicity
 _atom_site_fract_x
 _atom_site_fract_y
 _atom_site_fract_z
 _atom_site_occupancy
  Na  Na0  1  -0.00163161  -0.00064513  0.00133418  1
  Na  Na1  1  0.00103899  0.00044736  0.25042644  1
  Na  Na2  1  0.00130962  0.00034289  0.49842007  1
  Na  Na3  1  -0.00071654  -0.00022948  0.74947479  1
  Na  Na4  1  -0.00023327  0.33378811  -0.00143010  1
  Na  Na5  1  -0.00172052  0.33286142  0.25056971  1
  Na  Na6  1  -0.00370773  0.33249339  0.50101388  1
  Na  Na7  1  -0.00284423  0.33273708  0.74950608  1
  Na  Na8  1  0.00011268  0.66667464  0.00028627  1
  Na  Na9  1  0.00014436  0.66630773  0.25018831  1
  Na  Na10  1  0.00251550  0.66708011  0.50069746  1
  Na  Na11  1  0.00179216  0.66716250  0.74983509  1
  Na  Na12  1  0.50232179  0.00030571  -0.00023737  1
  Na  Na13  1  0.50114819  -0.00047353  0.25028990  1
  Na  Na14  1  0.50057380  -0.00015121  0.50002244  1
  Na  Na15  1  0.50098633  0.00014461  0.75107923  1
  Na  Na16  1  0.49904799  0.33321609  -0.00075029  1
  Na  Na17  1  0.49973004  0.33312887  0.24909631  1
  Na  Na18  1  0.50043620  0.33404731  0.50069633  1
  Na  Na19  1  0.49934870  0.33382813  0.75080471  1
  Na  Na20  1  0.50219229  0.66815589  -0.00081627  1
  Na  Na21  1  0.50035784  0.66715557  0.25099467  1
  Na  Na22  1  0.49981823  0.66695821  0.50036534  1
  Na  Na23  1  0.49975528  0.66670451  0.74845778  1
  Na  Na24  1  0.24913881  -0.00070124  0.12494812  1
  Na  Na25  1  0.24948361  -0.00065416  0.37482531  1
  Na  Na26  1  0.24976819  -0.00021620  0.62377604  1
  Na  Na27  1  0.25124488  0.00060991  0.87532571  1
  Na  Na28  1  0.25184319  0.33392463  0.12536352  1
  Na  Na29  1  0.25085044  0.33335697  0.37403257  1
  Na  Na30  1  0.25242785  0.33429136  0.62507845  1
  Na  Na31  1  0.25158985  0.33342972  0.87606701  1
  Na  Na32  1  0.24976490  0.66752657  0.12508439  1
  Na  Na33  1  0.25030294  0.66674613  0.37507366  1
  Na  Na34  1  0.25175407  0.66775872  0.62579221  1
  Na  Na35  1  0.24718640  0.66537164  0.87405932  1
  Na  Na36  1  0.74883622  -0.00005702  0.12439136  1
  Na  Na37  1  0.74885568  0.00046742  0.37566653  1
  Na  Na38  1  0.74834114  -0.00043574  0.62550800  1
  Na  Na39  1  0.74970284  0.00006124  0.87533490  1
  Na  Na40  1  0.75016657  0.33287258  0.12605572  1
  Na  Na41  1  0.75071491  0.33365935  0.37486044  1
  Na  Na42  1  0.75202204  0.33470683  0.62372511  1
  Na  Na43  1  0.74990999  0.33295954  0.87397614  1
  Na  Na44  1  0.74960361  0.66758531  0.12487923  1
  Na  Na45  1  0.74680399  0.66628524  0.37456747  1
  Na  Na46  1  0.74823784  0.66624507  0.62523316  1
  Na  Na47  1  0.74983266  0.66668871  0.87587164  1
  Na  Na48  1  -0.00199777  0.16615784  0.00017186  1
  Na  Na49  1  -0.00374939  0.16685089  0.25028769  1
  Na  Na50  1  -0.00268106  0.16652117  0.49926799  1
  Na  Na51  1  -0.00040708  0.16565664  0.74966441  1
  Na  Na52  1  0.00090160  0.50002843  -0.00130213  1
  Na  Na53  1  0.00239323  0.49941501  0.25119041  1
  Na  Na54  1  0.00033886  0.50056661  0.50097693  1
  Na  Na55  1  -0.00053903  0.50089588  0.74945974  1
  Na  Na56  1  -0.00078842  0.83367879  0.00158114  1
  Na  Na57  1  0.00214810  0.83258111  0.24992157  1
  Na  Na58  1  0.00263152  0.83298148  0.49980968  1
  Na  Na59  1  -0.00059741  0.83372944  0.74956525  1
  Na  Na60  1  0.50209181  0.16603730  -0.00106433  1
  Na  Na61  1  0.50223750  0.16597115  0.25004145  1
  Na  Na62  1  0.50212045  0.16560156  0.50023544  1
  Na  Na63  1  0.50071432  0.16644035  0.75087406  1
  Na  Na64  1  0.49944007  0.50021854  -0.00075960  1
  Na  Na65  1  0.50027469  0.49933511  0.24999586  1
  Na  Na66  1  0.50017451  0.49993613  0.50093072  1
  Na  Na67  1  0.50025562  0.49969044  0.74971461  1
  Na  Na68  1  0.50124966  0.83305964  -0.00001940  1
  Na  Na69  1  0.50028205  0.83370626  0.25062495  1
  Na  Na70  1  0.49882144  0.83367012  0.49975399  1
  Na  Na71  1  0.49845722  0.83375520  0.74983066  1
  Na  Na72  1  0.24926259  0.16665578  0.12506665  1
  Na  Na73  1  0.24961166  0.16642603  0.37468250  1
  Na  Na74  1  0.25008588  0.16647932  0.62448060  1
  Na  Na75  1  0.25007861  0.16592151  0.87573849  1
  Na  Na76  1  0.24791770  0.50054422  0.12494484  1
  Na  Na77  1  0.25020698  0.49986022  0.37438483  1
  Na  Na78  1  0.25032989  0.50055000  0.62509169  1
  Na  Na79  1  0.25096864  0.49924417  0.87481132  1
  Na  Na80  1  0.25208797  0.83337700  0.12570271  1
  Na  Na81  1  0.25183822  0.83369378  0.37460277  1
  Na  Na82  1  0.25203303  0.83328134  0.62546635  1
  Na  Na83  1  0.25043654  0.83383561  0.87437287  1
  Na  Na84  1  0.75068253  0.16580193  0.12606655  1
  Na  Na85  1  0.75100095  0.16567321  0.37501252  1
  Na  Na86  1  0.75004826  0.16622327  0.62441263  1
  Na  Na87  1  0.74930272  0.16663708  0.87433350  1
  Na  Na88  1  0.74987968  0.50048620  0.12472119  1
  Na  Na89  1  0.74944629  0.49980998  0.37515604  1
  Na  Na90  1  0.74840877  0.50090147  0.62458577  1
  Na  Na91  1  0.75109719  0.49962291  0.87553569  1
  Na  Na92  1  0.74749195  0.83390542  0.12466748  1
  Na  Na93  1  0.74586062  0.83441440  0.37482504  1
  Na  Na94  1  0.74916326  0.83294676  0.62559574  1
  Na  Na95  1  0.74977108  0.83286049  0.87526087  1
  Mn  Mn96  1  0.64239458  0.58303749  0.99731025  1
  Mn  Mn97  1  0.14237889  0.91701368  0.74809432  1
  Mn  Mn98  1  0.10923350  0.75099681  0.62255344  1
  Mn  Mn99  1  0.10754211  0.41629098  0.37411842  1
  Mn  Mn100  1  0.35781080  0.41696662  0.25200274  1
  Mn  Mn101  1  0.10767826  0.41674183  0.87185718  1
  Mn  Mn102  1  0.39259570  0.58326456  0.37782416  1
  Mn  Mn103  1  0.64266023  0.24981961  0.24775382  1
  Mn  Mn104  1  0.89226041  0.91656573  0.62589361  1
  Mn  Mn105  1  0.14107356  0.24922673  0.24729610  1
  Mn  Mn106  1  0.39199504  0.58391628  0.12676750  1
  Mn  Mn107  1  0.39280370  0.24950381  0.37725042  1
  Mn  Mn108  1  0.85792992  0.74907307  0.75253966  1
  Mn  Mn109  1  0.39209889  0.58400103  0.87704704  1
  Mn  Mn110  1  0.35831755  0.08353213  0.50225791  1
  Mn  Mn111  1  0.89136114  0.24948119  0.87779405  1
  Mn  Mn112  1  0.14190225  0.25016053  0.99829433  1
  Mn  Mn113  1  0.14248046  0.58382311  0.24769223  1
  Mn  Mn114  1  0.14181010  0.25067033  0.49777869  1
  Mn  Mn115  1  0.85814189  0.41619558  0.00271545  1
  Mn  Mn116  1  0.10695275  0.08343379  0.37245983  1
  Mn  Mn117  1  0.14236203  0.25003215  0.74762076  1
  Mn  Mn118  1  0.89205540  0.58357251  0.62706618  1
  Mn  Mn119  1  0.89243245  0.58390101  0.37784349  1
  Mn  Mn120  1  0.89200672  0.91591272  0.37716135  1
  Mn  Mn121  1  0.89285723  0.58262379  0.12720066  1
  Mn  Mn122  1  0.60759039  0.41639973  0.12204938  1
  Mn  Mn123  1  0.35796603  0.74939644  0.00182003  1
  Mn  Mn124  1  0.10782251  0.41547334  0.62276592  1
  Mn  Mn125  1  0.39309732  0.91676401  0.87730279  1
  Mn  Mn126  1  0.60661479  0.75006689  0.62253619  1
  Mn  Mn127  1  0.10840894  0.74988023  0.12238923  1
  Mn  Mn128  1  0.85833919  0.41692557  0.25240030  1
  Mn  Mn129  1  0.35840553  0.08305975  0.25147411  1
  Mn  Mn130  1  0.64221427  0.91595759  0.74753337  1
  Mn  Mn131  1  0.64286910  0.25032045  0.49781405  1
  Mn  Mn132  1  0.89150781  0.91665772  0.12820805  1
  Mn  Mn133  1  0.60785081  0.41718474  0.87264084  1
  Mn  Mn134  1  0.39254522  0.24962197  0.87740675  1
  Mn  Mn135  1  0.39244369  0.24955192  0.62755524  1
  Mn  Mn136  1  0.85712677  0.75012110  0.50141565  1
  Mn  Mn137  1  0.85696955  0.75071535  0.25295675  1
  Mn  Mn138  1  0.64238405  0.25130505  0.74687675  1
  Mn  Mn139  1  0.14216853  0.91617168  0.99784407  1
  Mn  Mn140  1  0.64144558  0.58381046  0.24744682  1
  Mn  Mn141  1  0.10716645  0.08250053  0.87291904  1
  Mn  Mn142  1  0.85761750  0.08308533  0.75193851  1
  Mn  Mn143  1  0.35867355  0.08360669  0.00320328  1
  Fe  Fe144  1  0.89206025  0.25018935  0.12617105  1
  Fe  Fe145  1  0.14390045  0.91617909  0.49780383  1
  Fe  Fe146  1  0.35780947  0.08352333  0.75124951  1
  Fe  Fe147  1  0.60750663  0.41649335  0.37354827  1
  Fe  Fe148  1  0.89230960  0.24948898  0.62641185  1
  Fe  Fe149  1  0.89195918  0.91564992  0.87698883  1
  Fe  Fe150  1  0.64160463  0.91686562  0.24809085  1
  Fe  Fe151  1  0.85630531  0.08247572  0.50207054  1
  Fe  Fe152  1  0.39256235  0.91720193  0.62652956  1
  Fe  Fe153  1  0.14323243  0.58300282  0.74842474  1
  Fe  Fe154  1  0.60722095  0.41650584  0.62324896  1
  Fe  Fe155  1  0.10599783  0.08400570  0.12352833  1
  Fe  Fe156  1  0.14234321  0.58329745  0.99781671  1
  Fe  Fe157  1  0.35680809  0.41683965  0.00197832  1
  Fe  Fe158  1  0.64164638  0.58357030  0.49843629  1
  Fe  Fe159  1  0.39267818  0.58332934  0.62694894  1
  Fe  Fe160  1  0.60682988  0.75023525  0.12320330  1
  Fe  Fe161  1  0.85636946  0.08218911  0.25162890  1
  Fe  Fe162  1  0.10750018  0.08356245  0.62307056  1
  Fe  Fe163  1  0.60798198  0.08341478  0.37327767  1
  Fe  Fe164  1  0.35703101  0.75002536  0.75247248  1
  Fe  Fe165  1  0.35753392  0.74955689  0.50131931  1
  Fe  Fe166  1  0.85621870  0.08283463  0.00189194  1
  Fe  Fe167  1  0.60802603  0.74979903  0.87265570  1
  Fe  Fe168  1  0.64269173  0.58296692  0.74863670  1
  Fe  Fe169  1  0.39342598  0.24888399  0.12628187  1
  Fe  Fe170  1  0.64276055  0.24972648  0.99899681  1
  Fe  Fe171  1  0.85650774  0.41740866  0.50195068  1
  Fe  Fe172  1  0.85687058  0.75054617  0.00167261  1
  Fe  Fe173  1  0.14390768  0.91678801  0.24844130  1
  Fe  Fe174  1  0.14402879  0.58359735  0.49911823  1
  Fe  Fe175  1  0.64291438  0.91683805  0.99814487  1
  Fe  Fe176  1  0.39351765  0.91729630  0.37659976  1
  Fe  Fe177  1  0.64131022  0.91631581  0.49859052  1
  Fe  Fe178  1  0.89171462  0.25024241  0.37733822  1
  Fe  Fe179  1  0.85670886  0.41769720  0.75095744  1
  Fe  Fe180  1  0.10749809  0.41540857  0.12321573  1
  Fe  Fe181  1  0.39410259  0.91728927  0.12659136  1
  Fe  Fe182  1  0.35830314  0.41714547  0.50172588  1
  Fe  Fe183  1  0.60717148  0.08347816  0.62363815  1
  Fe  Fe184  1  0.35770928  0.41656133  0.75163893  1
  Fe  Fe185  1  0.10667646  0.75060933  0.87392958  1
  Fe  Fe186  1  0.89301101  0.58451828  0.87638165  1
  Fe  Fe187  1  0.60795987  0.08317166  0.87307789  1
  Fe  Fe188  1  0.35825134  0.75037215  0.25163609  1
  Fe  Fe189  1  0.60627639  0.75012128  0.37350591  1
  Fe  Fe190  1  0.10903315  0.75020526  0.37354714  1
  Fe  Fe191  1  0.60800802  0.08335605  0.12298418  1
  P  P192  1  0.05122075  0.24946302  0.11000203  1
  P  P193  1  0.05119471  0.25001458  0.36025430  1
  P  P194  1  0.05180933  0.24903346  0.60993196  1
  P  P195  1  0.05265074  0.24957508  0.85957667  1
  P  P196  1  0.05445898  0.58230286  0.10924765  1
  P  P197  1  0.05557606  0.58425740  0.36189032  1
  P  P198  1  0.05591653  0.58316026  0.61070998  1
  P  P199  1  0.05425817  0.58461670  0.86033720  1
  P  P200  1  0.05449345  0.91770844  0.11177705  1
  P  P201  1  0.05573355  0.91558347  0.36032470  1
  P  P202  1  0.05463697  0.91795798  0.60889731  1
  P  P203  1  0.05156719  0.91565168  0.86042118  1
  P  P204  1  0.55321363  0.24915195  0.10918277  1
  P  P205  1  0.55407512  0.25037261  0.36023920  1
  P  P206  1  0.55353412  0.25033972  0.61030467  1
  P  P207  1  0.55521038  0.24965521  0.86108962  1
  P  P208  1  0.55293820  0.58427867  0.10962517  1
  P  P209  1  0.55448819  0.58308751  0.36169271  1
  P  P210  1  0.55374841  0.58256545  0.61091635  1
  P  P211  1  0.55401123  0.58416008  0.85875558  1
  P  P212  1  0.55455793  0.91668494  0.11074702  1
  P  P213  1  0.55436937  0.91659497  0.36099854  1
  P  P214  1  0.55233686  0.91700629  0.60982000  1
  P  P215  1  0.55559468  0.91635801  0.86131508  1
  P  P216  1  0.44903366  0.08324672  0.13969080  1
  P  P217  1  0.44849552  0.08256423  0.38968380  1
  P  P218  1  0.44771637  0.08244692  0.64059791  1
  P  P219  1  0.44727241  0.08311867  0.88917350  1
  P  P220  1  0.44525985  0.41595991  0.13836103  1
  P  P221  1  0.44762743  0.41654291  0.39064521  1
  P  P222  1  0.44607898  0.41755548  0.63955979  1
  P  P223  1  0.44460735  0.41715637  0.88953191  1
  P  P224  1  0.44744002  0.75102981  0.14032548  1
  P  P225  1  0.44590096  0.75099435  0.38938400  1
  P  P226  1  0.44385396  0.75012963  0.63891037  1
  P  P227  1  0.44726437  0.74998356  0.88878255  1
  P  P228  1  0.94466673  0.08371160  0.13963473  1
  P  P229  1  0.94368044  0.08304195  0.38918629  1
  P  P230  1  0.94618949  0.08319978  0.63826130  1
  P  P231  1  0.94520842  0.08173925  0.89092042  1
  P  P232  1  0.94824460  0.41616844  0.13993994  1
  P  P233  1  0.94568763  0.41660702  0.39138786  1
  P  P234  1  0.94442108  0.41645073  0.63931691  1
  P  P235  1  0.94503813  0.41819752  0.88814777  1
  P  P236  1  0.94562023  0.74991125  0.13954729  1
  P  P237  1  0.94876496  0.75025353  0.39039688  1
  P  P238  1  0.94713266  0.75008996  0.63974318  1
  P  P239  1  0.94688839  0.74990672  0.89062899  1
  P  P240  1  0.19589238  0.08231107  0.23430278  1
  P  P241  1  0.19562131  0.08293040  0.48569549  1
  P  P242  1  0.19749292  0.08313368  0.73430698  1
  P  P243  1  0.19565030  0.08329393  0.98625420  1
  P  P244  1  0.19564304  0.41614103  0.23440893  1
  P  P245  1  0.19864050  0.41738369  0.48527165  1
  P  P246  1  0.19814202  0.41688758  0.73506183  1
  P  P247  1  0.19611671  0.41691284  0.98602653  1
  P  P248  1  0.19748471  0.75140475  0.23622042  1
  P  P249  1  0.19821748  0.75021375  0.48489048  1
  P  P250  1  0.19657796  0.74992162  0.73659813  1
  P  P251  1  0.19626330  0.74967324  0.98399170  1
  P  P252  1  0.69545230  0.08250530  0.23563348  1
  P  P253  1  0.69530560  0.08280047  0.48598938  1
  P  P254  1  0.69489767  0.08338456  0.73520473  1
  P  P255  1  0.69564541  0.08352703  0.98591623  1
  P  P256  1  0.69571002  0.41674711  0.23575094  1
  P  P257  1  0.69572265  0.41738231  0.48567930  1
  P  P258  1  0.69702722  0.41783204  0.73407923  1
  P  P259  1  0.69704597  0.41533100  0.98492674  1
  P  P260  1  0.69394869  0.75115139  0.23543960  1
  P  P261  1  0.69490476  0.74995456  0.48462855  1
  P  P262  1  0.69547401  0.74876937  0.73598451  1
  P  P263  1  0.69551100  0.75085426  0.98568578  1
  P  P264  1  0.30416634  0.25044447  0.01597279  1
  P  P265  1  0.30437298  0.24918820  0.26380718  1
  P  P266  1  0.30358408  0.25064015  0.51483752  1
  P  P267  1  0.30378214  0.24937411  0.76511743  1
  P  P268  1  0.30167774  0.58300998  0.01470027  1
  P  P269  1  0.30389492  0.58438910  0.26489922  1
  P  P270  1  0.30365811  0.58358805  0.51545947  1
  P  P271  1  0.30394381  0.58334533  0.76366405  1
  P  P272  1  0.30463138  0.91646256  0.01590425  1
  P  P273  1  0.30553955  0.91656521  0.26425271  1
  P  P274  1  0.30483589  0.91610469  0.51390629  1
  P  P275  1  0.30519267  0.91746651  0.76363533  1
  P  P276  1  0.80231642  0.24876838  0.01562478  1
  P  P277  1  0.80539531  0.24895699  0.26446995  1
  P  P278  1  0.80522184  0.24976589  0.51401837  1
  P  P279  1  0.80454351  0.25081525  0.76319221  1
  P  P280  1  0.80472634  0.58455193  0.01396000  1
  P  P281  1  0.80311214  0.58366153  0.26525478  1
  P  P282  1  0.80147352  0.58345519  0.51476756  1
  P  P283  1  0.80260323  0.58266290  0.76553697  1
  P  P284  1  0.80319746  0.91635772  0.01386388  1
  P  P285  1  0.80103642  0.91728480  0.26521485  1
  P  P286  1  0.80098850  0.91685808  0.51472566  1
  P  P287  1  0.80389646  0.91629593  0.76566395  1
  O  O288  1  0.05437152  0.24942445  0.18673689  1
  O  O289  1  0.05544946  0.24991759  0.43692913  1
  O  O290  1  0.05579987  0.24979553  0.68662237  1
  O  O291  1  0.05620033  0.24990543  0.93633856  1
  O  O292  1  0.05722282  0.58344968  0.18613135  1
  O  O293  1  0.06028126  0.58379496  0.43864632  1
  O  O294  1  0.06041360  0.58312858  0.68752060  1
  O  O295  1  0.05884523  0.58338581  0.93704617  1
  O  O296  1  0.05915627  0.91679075  0.18844147  1
  O  O297  1  0.06025407  0.91604313  0.43708499  1
  O  O298  1  0.05720413  0.91713505  0.68575376  1
  O  O299  1  0.05539162  0.91630839  0.93710418  1
  O  O300  1  0.55697893  0.24990905  0.18590241  1
  O  O301  1  0.55684265  0.25038166  0.43703648  1
  O  O302  1  0.55597733  0.25072777  0.68709495  1
  O  O303  1  0.55926666  0.25029216  0.93781129  1
  O  O304  1  0.55557202  0.58333802  0.18644128  1
  O  O305  1  0.55783958  0.58318280  0.43850853  1
  O  O306  1  0.55852247  0.58301066  0.68753514  1
  O  O307  1  0.55710939  0.58347671  0.93557903  1
  O  O308  1  0.55820302  0.91686143  0.18753790  1
  O  O309  1  0.55836592  0.91665443  0.43775286  1
  O  O310  1  0.55612155  0.91615584  0.68652395  1
  O  O311  1  0.55932976  0.91633726  0.93812372  1
  O  O312  1  0.44559058  0.08317973  0.06299514  1
  O  O313  1  0.44461042  0.08304978  0.31306484  1
  O  O314  1  0.44409452  0.08309201  0.56386222  1
  O  O315  1  0.44213106  0.08328207  0.81256975  1
  O  O316  1  0.44100035  0.41719451  0.06158358  1
  O  O317  1  0.44353339  0.41673908  0.31391250  1
  O  O318  1  0.44141476  0.41712719  0.56283954  1
  O  O319  1  0.44035498  0.41705274  0.81268750  1
  O  O320  1  0.44406050  0.75017914  0.06356626  1
  O  O321  1  0.44168421  0.75014869  0.31267625  1
  O  O322  1  0.44042799  0.74978483  0.56205704  1
  O  O323  1  0.44168151  0.74967671  0.81213645  1
  O  O324  1  0.93984767  0.08252610  0.06293931  1
  O  O325  1  0.93970429  0.08169470  0.31240744  1
  O  O326  1  0.94116473  0.08217117  0.56159611  1
  O  O327  1  0.94268965  0.08267187  0.81406789  1
  O  O328  1  0.94449739  0.41691072  0.06318528  1
  O  O329  1  0.94336857  0.41760415  0.31453408  1
  O  O330  1  0.94003741  0.41797262  0.56256908  1
  O  O331  1  0.94071216  0.41771650  0.81143376  1
  O  O332  1  0.94069305  0.75050004  0.06284494  1
  O  O333  1  0.94410340  0.75037615  0.31370521  1
  O  O334  1  0.94340084  0.74981540  0.56302955  1
  O  O335  1  0.94381385  0.74984529  0.81384140  1
  O  O336  1  0.19045584  0.08347922  0.06289567  1
  O  O337  1  0.19281109  0.08344273  0.31112278  1
  O  O338  1  0.19148201  0.08389432  0.56243264  1
  O  O339  1  0.19344265  0.08285379  0.81107397  1
  O  O340  1  0.19117826  0.41585371  0.06268526  1
  O  O341  1  0.19236610  0.41569063  0.31120220  1
  O  O342  1  0.19460716  0.41634791  0.56193584  1
  O  O343  1  0.19426793  0.41618474  0.81178329  1
  O  O344  1  0.19376722  0.75079582  0.06084719  1
  O  O345  1  0.19310899  0.75074629  0.31289226  1
  O  O346  1  0.19510183  0.75066064  0.56163930  1
  O  O347  1  0.19126552  0.75076222  0.81316354  1
  O  O348  1  0.69150873  0.08352219  0.06272508  1
  O  O349  1  0.69103135  0.08332291  0.31239370  1
  O  O350  1  0.69043619  0.08325546  0.56270981  1
  O  O351  1  0.69109233  0.08334803  0.81202294  1
  O  O352  1  0.69389403  0.41615252  0.06172624  1
  O  O353  1  0.69135412  0.41655773  0.31251160  1
  O  O354  1  0.69093274  0.41670855  0.56237091  1
  O  O355  1  0.69347708  0.41678756  0.81078664  1
  O  O356  1  0.69075739  0.75017164  0.06238738  1
  O  O357  1  0.68952353  0.75026063  0.31217758  1
  O  O358  1  0.69234579  0.75003063  0.56153114  1
  O  O359  1  0.69180253  0.74958162  0.81273895  1
  O  O360  1  0.30944126  0.24869417  0.18713209  1
  O  O361  1  0.30672281  0.24969444  0.43802848  1
  O  O362  1  0.30657954  0.24937652  0.68831559  1
  O  O363  1  0.30729713  0.24908663  0.93916850  1
  O  O364  1  0.30670317  0.58403339  0.18813361  1
  O  O365  1  0.30688473  0.58330074  0.43866323  1
  O  O366  1  0.30848686  0.58351231  0.68702174  1
  O  O367  1  0.30546686  0.58360362  0.93798222  1
  O  O368  1  0.31054389  0.91740673  0.18757854  1
  O  O369  1  0.30957399  0.91733453  0.43718730  1
  O  O370  1  0.30873338  0.91759917  0.68684460  1
  O  O371  1  0.30796347  0.91690489  0.93906608  1
  O  O372  1  0.80928950  0.25011713  0.18766311  1
  O  O373  1  0.80818199  0.24978466  0.43713543  1
  O  O374  1  0.80846116  0.24969218  0.68640838  1
  O  O375  1  0.80561911  0.24948052  0.93881455  1
  O  O376  1  0.80675470  0.58363824  0.18846391  1
  O  O377  1  0.80555805  0.58395667  0.43812114  1
  O  O378  1  0.80608010  0.58381233  0.68879337  1
  O  O379  1  0.80895223  0.58406073  0.93723714  1
  O  O380  1  0.80492854  0.91662499  0.18849003  1
  O  O381  1  0.80499456  0.91637765  0.43809169  1
  O  O382  1  0.80717534  0.91631834  0.68886644  1
  O  O383  1  0.80775669  0.91599719  0.93722389  1
  O  O384  1  0.23435726  0.25024115  0.04076453  1
  O  O385  1  0.23418302  0.24930255  0.28749101  1
  O  O386  1  0.23394909  0.25068778  0.54013998  1
  O  O387  1  0.23432995  0.24954137  0.79102331  1
  O  O388  1  0.23172808  0.58383456  0.03947942  1
  O  O389  1  0.23427373  0.58369263  0.29014599  1
  O  O390  1  0.23363095  0.58414695  0.54028189  1
  O  O391  1  0.23362988  0.58285312  0.78771774  1
  O  O392  1  0.23478509  0.91612452  0.04041397  1
  O  O393  1  0.23513309  0.91689158  0.28774800  1
  O  O394  1  0.23439514  0.91640127  0.53747960  1
  O  O395  1  0.23535874  0.91720711  0.78864201  1
  O  O396  1  0.73240001  0.24914289  0.04058708  1
  O  O397  1  0.73535541  0.24959598  0.28871724  1
  O  O398  1  0.73529013  0.25007609  0.53882773  1
  O  O399  1  0.73461707  0.25027236  0.78763180  1
  O  O400  1  0.73467475  0.58410824  0.03822920  1
  O  O401  1  0.73325432  0.58346276  0.28967901  1
  O  O402  1  0.73129794  0.58381799  0.53906404  1
  O  O403  1  0.73258152  0.58289923  0.79021943  1
  O  O404  1  0.73281973  0.91681882  0.03773287  1
  O  O405  1  0.73097147  0.91737266  0.28958266  1
  O  O406  1  0.73089740  0.91638870  0.53936584  1
  O  O407  1  0.73403225  0.91637425  0.79019439  1
  O  O408  1  0.26569138  0.08285336  0.20942746  1
  O  O409  1  0.26563952  0.08286714  0.46128745  1
  O  O410  1  0.26764194  0.08313413  0.70999204  1
  O  O411  1  0.26592461  0.08325943  0.96284491  1
  O  O412  1  0.26553498  0.41706786  0.20991123  1
  O  O413  1  0.26869424  0.41708756  0.46053925  1
  O  O414  1  0.26826964  0.41708792  0.71070361  1
  O  O415  1  0.26649261  0.41644217  0.96234765  1
  O  O416  1  0.26773300  0.75097433  0.21209289  1
  O  O417  1  0.26833347  0.74996096  0.46016387  1
  O  O418  1  0.26700534  0.75038603  0.71307093  1
  O  O419  1  0.26587155  0.74982249  0.95850934  1
  O  O420  1  0.76577718  0.08277725  0.21187797  1
  O  O421  1  0.76573993  0.08333088  0.46254762  1
  O  O422  1  0.76491172  0.08300333  0.71108764  1
  O  O423  1  0.76594477  0.08311117  0.96181208  1
  O  O424  1  0.76575653  0.41676921  0.21164604  1
  O  O425  1  0.76620099  0.41663046  0.46220744  1
  O  O426  1  0.76704127  0.41783845  0.70948002  1
  O  O427  1  0.76668202  0.41581417  0.95977031  1
  O  O428  1  0.76402186  0.75064273  0.21142416  1
  O  O429  1  0.76445417  0.75009723  0.45890225  1
  O  O430  1  0.76533464  0.74929263  0.71135377  1
  O  O431  1  0.76593275  0.75029855  0.96211687  1
  O  O432  1  0.01498656  0.08346659  0.16345537  1
  O  O433  1  0.01390933  0.08302435  0.41289568  1
  O  O434  1  0.01641947  0.08304951  0.66232692  1
  O  O435  1  0.01484724  0.08255276  0.91626318  1
  O  O436  1  0.01812869  0.41590195  0.16489482  1
  O  O437  1  0.01528507  0.41654638  0.41699056  1
  O  O438  1  0.01455692  0.41672718  0.66334498  1
  O  O439  1  0.01512445  0.41740095  0.91220839  1
  O  O440  1  0.01589713  0.74971032  0.16296875  1
  O  O441  1  0.01892979  0.75032259  0.41442583  1
  O  O442  1  0.01698988  0.75048497  0.66431906  1
  O  O443  1  0.01682466  0.75001425  0.91570575  1
  O  O444  1  0.51903581  0.08286254  0.16455674  1
  O  O445  1  0.51862798  0.08260811  0.41408712  1
  O  O446  1  0.51786796  0.08324317  0.66499525  1
  O  O447  1  0.51770011  0.08296678  0.91256914  1
  O  O448  1  0.51525604  0.41607116  0.16267963  1
  O  O449  1  0.51775991  0.41679923  0.41483677  1
  O  O450  1  0.51651667  0.41681965  0.66320633  1
  O  O451  1  0.51480860  0.41710972  0.91309138  1
  O  O452  1  0.51747174  0.75066270  0.16500452  1
  O  O453  1  0.51620748  0.75055568  0.41332949  1
  O  O454  1  0.51397512  0.75030912  0.66321069  1
  O  O455  1  0.51763857  0.75024211  0.91207060  1
  O  O456  1  0.48319113  0.24943166  0.08455122  1
  O  O457  1  0.48460329  0.24993625  0.33446980  1
  O  O458  1  0.48404660  0.24982127  0.58456562  1
  O  O459  1  0.48521095  0.25012590  0.83678898  1
  O  O460  1  0.48346221  0.58442715  0.08383391  1
  O  O461  1  0.48467477  0.58311353  0.33666810  1
  O  O462  1  0.48328439  0.58351219  0.58739262  1
  O  O463  1  0.48429551  0.58356679  0.83380719  1
  O  O464  1  0.48435107  0.91681616  0.08627999  1
  O  O465  1  0.48405693  0.91674913  0.33693293  1
  O  O466  1  0.48221984  0.91649919  0.58545280  1
  O  O467  1  0.48573390  0.91656671  0.83669222  1
  O  O468  1  0.98132573  0.24970200  0.08468009  1
  O  O469  1  0.98098808  0.24995267  0.33628366  1
  O  O470  1  0.98171675  0.24940116  0.58557084  1
  O  O471  1  0.98279694  0.24927675  0.83501739  1
  O  O472  1  0.98479389  0.58314607  0.08406321  1
  O  O473  1  0.98555003  0.58352208  0.33766325  1
  O  O474  1  0.98565756  0.58347317  0.58717018  1
  O  O475  1  0.98388850  0.58446277  0.83655419  1
  O  O476  1  0.98429383  0.91708814  0.08806316  1
  O  O477  1  0.98553280  0.91645942  0.33647358  1
  O  O478  1  0.98499571  0.91681674  0.58346019  1
  O  O479  1  0.98160367  0.91602165  0.83563555  1
  O  O480  1  0.08544504  0.31441759  0.07742805  1
  O  O481  1  0.08490669  0.31506334  0.32755637  1
  O  O482  1  0.08548399  0.31419059  0.57695778  1
  O  O483  1  0.08635965  0.31470360  0.82674405  1
  O  O484  1  0.08922180  0.64704617  0.07666367  1
  O  O485  1  0.08877944  0.64954751  0.32868541  1
  O  O486  1  0.08976767  0.64808197  0.57765732  1
  O  O487  1  0.08772300  0.64997424  0.82776165  1
  O  O488  1  0.08735367  0.98313531  0.07869362  1
  O  O489  1  0.08964549  0.98044854  0.32710796  1
  O  O490  1  0.08844852  0.98327785  0.57682514  1
  O  O491  1  0.08562772  0.98056124  0.82743528  1
  O  O492  1  0.58734929  0.31389254  0.07601409  1
  O  O493  1  0.58801028  0.31562078  0.32793822  1
  O  O494  1  0.58760467  0.31552745  0.57800043  1
  O  O495  1  0.58873471  0.31467478  0.82774219  1
  O  O496  1  0.58732691  0.64951482  0.07798220  1
  O  O497  1  0.58797682  0.64844447  0.32904568  1
  O  O498  1  0.58738082  0.64743450  0.57731870  1
  O  O499  1  0.58807353  0.64927382  0.82649556  1
  O  O500  1  0.58849075  0.98156059  0.07767785  1
  O  O501  1  0.58807660  0.98145751  0.32766836  1
  O  O502  1  0.58616285  0.98211483  0.57731538  1
  O  O503  1  0.58928739  0.98152076  0.82865146  1
  O  O504  1  0.41504910  0.01824613  0.17234761  1
  O  O505  1  0.41466382  0.01756137  0.42240699  1
  O  O506  1  0.41420713  0.01716488  0.67312665  1
  O  O507  1  0.41412068  0.01816924  0.92276293  1
  O  O508  1  0.41193550  0.35049702  0.17085795  1
  O  O509  1  0.41386552  0.35152362  0.42344983  1
  O  O510  1  0.41238550  0.35269590  0.67301511  1
  O  O511  1  0.41093131  0.35226735  0.92267868  1
  O  O512  1  0.41313838  0.68627915  0.17332257  1
  O  O513  1  0.41228636  0.68619226  0.42306412  1
  O  O514  1  0.41040225  0.68499210  0.67204802  1
  O  O515  1  0.41430256  0.68491245  0.92249608  1
  O  O516  1  0.91109765  0.01896042  0.17365726  1
  O  O517  1  0.91019616  0.01818387  0.42299799  1
  O  O518  1  0.91275678  0.01825499  0.67180990  1
  O  O519  1  0.91126432  0.01639535  0.92297381  1
  O  O520  1  0.91379136  0.35117769  0.17195987  1
  O  O521  1  0.91107816  0.35142391  0.42285871  1
  O  O522  1  0.91087460  0.35104212  0.67158813  1
  O  O523  1  0.91130172  0.35323316  0.92147240  1
  O  O524  1  0.91235292  0.68480564  0.17265660  1
  O  O525  1  0.91502611  0.68528927  0.42342776  1
  O  O526  1  0.91351564  0.68493590  0.67267088  1
  O  O527  1  0.91279914  0.68477243  0.92306019  1
  O  O528  1  0.16212463  0.01687762  0.20238199  1
  O  O529  1  0.16211303  0.01757727  0.45318887  1
  O  O530  1  0.16347126  0.01820693  0.70147082  1
  O  O531  1  0.16259270  0.01807717  0.95276028  1
  O  O532  1  0.16203199  0.35098926  0.20140736  1
  O  O533  1  0.16450432  0.35256215  0.45214788  1
  O  O534  1  0.16465135  0.35171413  0.70199227  1
  O  O535  1  0.16263121  0.35209898  0.95230572  1
  O  O536  1  0.16378541  0.68652599  0.20286907  1
  O  O537  1  0.16417960  0.68509252  0.45255583  1
  O  O538  1  0.16376854  0.68463581  0.70333130  1
  O  O539  1  0.16172870  0.68455127  0.95230360  1
  O  O540  1  0.66199747  0.01747782  0.20254463  1
  O  O541  1  0.66207225  0.01773362  0.45271795  1
  O  O542  1  0.66092250  0.01847855  0.70225126  1
  O  O543  1  0.66193587  0.01848496  0.95287761  1
  O  O544  1  0.66228507  0.35161657  0.20267251  1
  O  O545  1  0.66228702  0.35245738  0.45200062  1
  O  O546  1  0.66317553  0.35300248  0.70066326  1
  O  O547  1  0.66322232  0.35006274  0.95282298  1
  O  O548  1  0.66000212  0.68648435  0.20183150  1
  O  O549  1  0.66046052  0.68487629  0.45255420  1
  O  O550  1  0.66183471  0.68354268  0.70343910  1
  O  O551  1  0.66179745  0.68613749  0.95196026  1
  O  O552  1  0.33824788  0.31573784  0.04774097  1
  O  O553  1  0.33784115  0.31440517  0.29674608  1
  O  O554  1  0.33798598  0.31567850  0.54681326  1
  O  O555  1  0.33815352  0.31460286  0.79697189  1
  O  O556  1  0.33591516  0.64798203  0.04733241  1
  O  O557  1  0.33778341  0.64961967  0.29715745  1
  O  O558  1  0.33786598  0.64860773  0.54780990  1
  O  O559  1  0.33684085  0.64864038  0.79720971  1
  O  O560  1  0.33876268  0.98135226  0.04879570  1
  O  O561  1  0.33892806  0.98143849  0.29815343  1
  O  O562  1  0.33839782  0.98084894  0.54781671  1
  O  O563  1  0.33879317  0.98269376  0.79647078  1
  O  O564  1  0.83673901  0.31362267  0.04839134  1
  O  O565  1  0.83949557  0.31362850  0.29787621  1
  O  O566  1  0.83926036  0.31474178  0.54660480  1
  O  O567  1  0.83767624  0.31635756  0.79564816  1
  O  O568  1  0.83793615  0.64985877  0.04680813  1
  O  O569  1  0.83679152  0.64878274  0.29807854  1
  O  O570  1  0.83534145  0.64837112  0.54783104  1
  O  O571  1  0.83683385  0.64742782  0.79872055  1
  O  O572  1  0.83642966  0.98152409  0.04712235  1
  O  O573  1  0.83500427  0.98226956  0.29765138  1
  O  O574  1  0.83457347  0.98207658  0.54748875  1
  O  O575  1  0.83794031  0.98124302  0.79831002  1
  O  O576  1  0.41532808  0.14839940  0.17235086  1
  O  O577  1  0.41488814  0.14755261  0.42283175  1
  O  O578  1  0.41344240  0.14720333  0.67359070  1
  O  O579  1  0.41418533  0.14812998  0.92277260  1
  O  O580  1  0.41185862  0.48097652  0.17186109  1
  O  O581  1  0.41361969  0.48143660  0.42371101  1
  O  O582  1  0.41299511  0.48283379  0.67270391  1
  O  O583  1  0.41105948  0.48222173  0.92260500  1
  O  O584  1  0.41375931  0.81630304  0.17281349  1
  O  O585  1  0.41257268  0.81622297  0.42217032  1
  O  O586  1  0.41023397  0.81528318  0.67166168  1
  O  O587  1  0.41396352  0.81487088  0.92225954  1
  O  O588  1  0.91120673  0.14897912  0.17216424  1
  O  O589  1  0.91012124  0.14827884  0.42173664  1
  O  O590  1  0.91275227  0.14836579  0.67130920  1
  O  O591  1  0.91026646  0.14643378  0.92343783  1
  O  O592  1  0.91467343  0.48125649  0.17306619  1
  O  O593  1  0.91129460  0.48151344  0.42407596  1
  O  O594  1  0.91068023  0.48126751  0.67293447  1
  O  O595  1  0.91212658  0.48357366  0.92122158  1
  O  O596  1  0.91241456  0.81496360  0.17318899  1
  O  O597  1  0.91491697  0.81529984  0.42325375  1
  O  O598  1  0.91293066  0.81507410  0.67208981  1
  O  O599  1  0.91255730  0.81484535  0.92330799  1
  O  O600  1  0.08505735  0.18420941  0.07756763  1
  O  O601  1  0.08470844  0.18500820  0.32707305  1
  O  O602  1  0.08546649  0.18397177  0.57721974  1
  O  O603  1  0.08665536  0.18441743  0.82730485  1
  O  O604  1  0.08811904  0.51682003  0.07722927  1
  O  O605  1  0.08925157  0.51919317  0.32888109  1
  O  O606  1  0.08930975  0.51811440  0.57745265  1
  O  O607  1  0.08788830  0.51985960  0.82644988  1
  O  O608  1  0.08811877  0.85287423  0.07816917  1
  O  O609  1  0.08918804  0.85038540  0.32737149  1
  O  O610  1  0.08976713  0.85326860  0.57654970  1
  O  O611  1  0.08542367  0.85049600  0.82784958  1
  O  O612  1  0.58720344  0.18392069  0.07691512  1
  O  O613  1  0.58853305  0.18519556  0.32828166  1
  O  O614  1  0.58812171  0.18530731  0.57839262  1
  O  O615  1  0.58863068  0.18439770  0.82841812  1
  O  O616  1  0.58718603  0.51931043  0.07703014  1
  O  O617  1  0.58821501  0.51798296  0.32892600  1
  O  O618  1  0.58687114  0.51740086  0.57759964  1
  O  O619  1  0.58848144  0.51921804  0.82622447  1
  O  O620  1  0.58805223  0.85148591  0.07779810  1
  O  O621  1  0.58752060  0.85137403  0.32779272  1
  O  O622  1  0.58630567  0.85212577  0.57665508  1
  O  O623  1  0.58895815  0.85119191  0.82820000  1
  O  O624  1  0.33859882  0.18570864  0.04901473  1
  O  O625  1  0.33771901  0.18416609  0.29730534  1
  O  O626  1  0.33763286  0.18550877  0.54743465  1
  O  O627  1  0.33796925  0.18402721  0.79718568  1
  O  O628  1  0.33523612  0.51784318  0.04732575  1
  O  O629  1  0.33824520  0.51941407  0.29735719  1
  O  O630  1  0.33756544  0.51853355  0.54820679  1
  O  O631  1  0.33750547  0.51837785  0.79672765  1
  O  O632  1  0.33894392  0.85139802  0.04808099  1
  O  O633  1  0.33889793  0.85145595  0.29743240  1
  O  O634  1  0.33796610  0.85082697  0.54679213  1
  O  O635  1  0.33912535  0.85230491  0.79631573  1
  O  O636  1  0.83625130  0.18360195  0.04790389  1
  O  O637  1  0.83846665  0.18335665  0.29687290  1
  O  O638  1  0.83881055  0.18448987  0.54678371  1
  O  O639  1  0.83821504  0.18596718  0.79662309  1
  O  O640  1  0.83824197  0.51937208  0.04711776  1
  O  O641  1  0.83715439  0.51863418  0.29775709  1
  O  O642  1  0.83500544  0.51827888  0.54754678  1
  O  O643  1  0.83666412  0.51753072  0.79770628  1
  O  O644  1  0.83625352  0.85129450  0.04750606  1
  O  O645  1  0.83472140  0.85229277  0.29836616  1
  O  O646  1  0.83504468  0.85192583  0.54750264  1
  O  O647  1  0.83790079  0.85125311  0.79837546  1
  O  O648  1  0.16108883  0.14690098  0.20146427  1
  O  O649  1  0.16197089  0.14789016  0.45233275  1
  O  O650  1  0.16348444  0.14816834  0.70154683  1
  O  O651  1  0.16233669  0.14829777  0.95282277  1
  O  O652  1  0.16112548  0.48098419  0.20212052  1
  O  O653  1  0.16507864  0.48280190  0.45309696  1
  O  O654  1  0.16407620  0.48179216  0.70266105  1
  O  O655  1  0.16324560  0.48234147  0.95288701  1
  O  O656  1  0.16425632  0.81652570  0.20300110  1
  O  O657  1  0.16437720  0.81516705  0.45191703  1
  O  O658  1  0.16347951  0.81489508  0.70273211  1
  O  O659  1  0.16177557  0.81455622  0.95131171  1
  O  O660  1  0.66203440  0.14742398  0.20200780  1
  O  O661  1  0.66203093  0.14780365  0.45227230  1
  O  O662  1  0.66136377  0.14836168  0.70201602  1
  O  O663  1  0.66241080  0.14868853  0.95273397  1
  O  O664  1  0.66204931  0.48169677  0.20261862  1
  O  O665  1  0.66259378  0.48256526  0.45257031  1
  O  O666  1  0.66280214  0.48290440  0.70185661  1
  O  O667  1  0.66275055  0.48033685  0.95236925  1
  O  O668  1  0.66065831  0.81660131  0.20274118  1
  O  O669  1  0.66032357  0.81497285  0.45257918  1
  O  O670  1  0.66146306  0.81356875  0.70274503  1
  O  O671  1  0.66243529  0.81613793  0.95256514  1
