# generated using pymatgen
data_Na2MnFe(PO4)2
_symmetry_space_group_name_H-M   'P 1'
_cell_length_a   21.08106683
_cell_length_b   18.93259222
_cell_length_c   20.04045176
_cell_angle_alpha   89.99937251
_cell_angle_beta   89.99967509
_cell_angle_gamma   89.99950646
_symmetry_Int_Tables_number   1
_chemical_formula_structural   Na2MnFe(PO4)2
_chemical_formula_sum   'Na96 Mn48 Fe48 P96 O384'
_cell_volume   7998.52991009
_cell_formula_units_Z   48
loop_
 _symmetry_equiv_pos_site_id
 _symmetry_equiv_pos_as_xyz
  1  'x, y, z'
loop_
 _atom_site_type_symbol
 _atom_site_label
 _atom_site_symmetry_multiplicity
 _atom_site_fract_x
 _atom_site_fract_y
 _atom_site_fract_z
 _atom_site_occupancy
  Na  Na0  1  0.00059877  -0.00037695  -0.00104601  1
  Na  Na1  1  -0.00037364  -0.00029823  0.25024883  1
  Na  Na2  1  -0.00174172  0.00027582  0.50073484  1
  Na  Na3  1  -0.00227703  -0.00057474  0.75018643  1
  Na  Na4  1  0.00082872  0.33359291  -0.00088846  1
  Na  Na5  1  0.00029514  0.33345313  0.24950186  1
  Na  Na6  1  -0.00297705  0.33228597  0.50135570  1
  Na  Na7  1  -0.00095544  0.33326146  0.75007196  1
  Na  Na8  1  -0.00121342  0.66648763  -0.00060243  1
  Na  Na9  1  0.00015041  0.66728376  0.25041551  1
  Na  Na10  1  0.00101438  0.66758226  0.50037459  1
  Na  Na11  1  -0.00133611  0.66612657  0.74936031  1
  Na  Na12  1  0.49965311  -0.00023862  0.00102093  1
  Na  Na13  1  0.49997514  -0.00055291  0.24967197  1
  Na  Na14  1  0.50140667  0.00003125  0.49885945  1
  Na  Na15  1  0.50125197  0.00010571  0.75102465  1
  Na  Na16  1  0.50050286  0.33405472  0.00032219  1
  Na  Na17  1  0.49950076  0.33305082  0.25080652  1
  Na  Na18  1  0.50009575  0.33346893  0.49963532  1
  Na  Na19  1  0.49817226  0.33267685  0.74914058  1
  Na  Na20  1  0.49889593  0.66658778  0.00023336  1
  Na  Na21  1  0.50107781  0.66703283  0.25000777  1
  Na  Na22  1  0.50040146  0.66678561  0.49990537  1
  Na  Na23  1  0.49911273  0.66686241  0.74961867  1
  Na  Na24  1  0.25329429  0.00104158  0.12670157  1
  Na  Na25  1  0.25055046  -0.00048224  0.37522650  1
  Na  Na26  1  0.25110608  -0.00025114  0.62382579  1
  Na  Na27  1  0.25055238  -0.00077197  0.87380623  1
  Na  Na28  1  0.24978788  0.33264734  0.12509520  1
  Na  Na29  1  0.25387003  0.33422246  0.37593556  1
  Na  Na30  1  0.25310887  0.33390628  0.62437151  1
  Na  Na31  1  0.24879867  0.33266901  0.87398610  1
  Na  Na32  1  0.25041082  0.66741259  0.12591448  1
  Na  Na33  1  0.25016159  0.66662481  0.37416633  1
  Na  Na34  1  0.25178942  0.66726215  0.62431746  1
  Na  Na35  1  0.25116666  0.66730801  0.87554983  1
  Na  Na36  1  0.74871597  -0.00032898  0.12601397  1
  Na  Na37  1  0.74836585  -0.00036925  0.37472782  1
  Na  Na38  1  0.75006508  0.00065076  0.62555328  1
  Na  Na39  1  0.74893693  -0.00035642  0.87429228  1
  Na  Na40  1  0.74991572  0.33415162  0.12550393  1
  Na  Na41  1  0.74760151  0.33245967  0.37509109  1
  Na  Na42  1  0.75121786  0.33428059  0.62555378  1
  Na  Na43  1  0.75098158  0.33374406  0.87441442  1
  Na  Na44  1  0.75132518  0.66755644  0.12447872  1
  Na  Na45  1  0.74666100  0.66563106  0.37436192  1
  Na  Na46  1  0.74971720  0.66713286  0.62528773  1
  Na  Na47  1  0.75085429  0.66707000  0.87564036  1
  Na  Na48  1  0.00151676  0.16616735  -0.00085710  1
  Na  Na49  1  0.00099360  0.16588274  0.24975493  1
  Na  Na50  1  -0.00159688  0.16683981  0.50132291  1
  Na  Na51  1  -0.00116916  0.16721425  0.74970111  1
  Na  Na52  1  -0.00216107  0.50084770  -0.00036723  1
  Na  Na53  1  -0.00132260  0.50015635  0.25011303  1
  Na  Na54  1  -0.00162358  0.50022955  0.50136918  1
  Na  Na55  1  -0.00137730  0.49993729  0.74884395  1
  Na  Na56  1  0.00130141  0.83257112  -0.00112731  1
  Na  Na57  1  0.00055771  0.83324317  0.25038812  1
  Na  Na58  1  -0.00120345  0.83363295  0.49961395  1
  Na  Na59  1  -0.00175224  0.83397667  0.75091883  1
  Na  Na60  1  0.49973778  0.16654109  0.00127906  1
  Na  Na61  1  0.50001783  0.16665865  0.24973260  1
  Na  Na62  1  0.50155435  0.16642079  0.49878676  1
  Na  Na63  1  0.50202556  0.16578294  0.75017058  1
  Na  Na64  1  0.49916290  0.50037425  0.00013773  1
  Na  Na65  1  0.50099073  0.50020052  0.25105417  1
  Na  Na66  1  0.50002840  0.50009867  0.49938927  1
  Na  Na67  1  0.49945381  0.49964673  0.74961219  1
  Na  Na68  1  0.49986165  0.83318443  -0.00007553  1
  Na  Na69  1  0.49949162  0.83384970  0.24969892  1
  Na  Na70  1  0.50005879  0.83347031  0.50020539  1
  Na  Na71  1  0.49797961  0.83392818  0.75029312  1
  Na  Na72  1  0.25094293  0.16596772  0.12618119  1
  Na  Na73  1  0.25117644  0.16635846  0.37583839  1
  Na  Na74  1  0.25014212  0.16732044  0.62370825  1
  Na  Na75  1  0.24936524  0.16722477  0.87376160  1
  Na  Na76  1  0.25291544  0.49899769  0.12524549  1
  Na  Na77  1  0.25228335  0.49973781  0.37492460  1
  Na  Na78  1  0.25201383  0.49963732  0.62465681  1
  Na  Na79  1  0.24970023  0.50070000  0.87473926  1
  Na  Na80  1  0.24984466  0.83338625  0.12629184  1
  Na  Na81  1  0.25139718  0.83327921  0.37445829  1
  Na  Na82  1  0.25373957  0.83239364  0.62427503  1
  Na  Na83  1  0.25084648  0.83326568  0.87484217  1
  Na  Na84  1  0.74851509  0.16648520  0.12523820  1
  Na  Na85  1  0.74745190  0.16688110  0.37574414  1
  Na  Na86  1  0.75006670  0.16576366  0.62533563  1
  Na  Na87  1  0.74904077  0.16677281  0.87449159  1
  Na  Na88  1  0.75101107  0.49994115  0.12522276  1
  Na  Na89  1  0.74832928  0.50032688  0.37382482  1
  Na  Na90  1  0.75037335  0.49948692  0.62563421  1
  Na  Na91  1  0.75223350  0.49941570  0.87535663  1
  Na  Na92  1  0.74934360  0.83333251  0.12562355  1
  Na  Na93  1  0.74794073  0.83408476  0.37452569  1
  Na  Na94  1  0.75024003  0.83290837  0.62540803  1
  Na  Na95  1  0.74868168  0.83416199  0.87454447  1
  Mn  Mn96  1  0.10804652  0.41746923  0.12283766  1
  Mn  Mn97  1  0.60682526  0.08312990  0.12279825  1
  Mn  Mn98  1  0.35788441  0.75000192  0.25266435  1
  Mn  Mn99  1  0.89114583  0.58379438  0.62708589  1
  Mn  Mn100  1  0.60745464  0.74984569  0.12268002  1
  Mn  Mn101  1  0.89149322  0.58328973  0.37765528  1
  Mn  Mn102  1  0.14227019  0.58344541  0.99815974  1
  Mn  Mn103  1  0.35873209  0.08361511  0.75166112  1
  Mn  Mn104  1  0.14253997  0.25030316  0.49779616  1
  Mn  Mn105  1  0.10815597  0.41625327  0.37349785  1
  Mn  Mn106  1  0.10737689  0.41647453  0.62263287  1
  Mn  Mn107  1  0.89151760  0.91699136  0.37725193  1
  Mn  Mn108  1  0.89194815  0.91628192  0.87798489  1
  Mn  Mn109  1  0.89258562  0.25025698  0.87746756  1
  Mn  Mn110  1  0.39217281  0.24963717  0.87715073  1
  Mn  Mn111  1  0.64232812  0.25046549  0.74771725  1
  Mn  Mn112  1  0.10890601  0.08223939  0.12251746  1
  Mn  Mn113  1  0.64220110  0.91637904  0.74771353  1
  Mn  Mn114  1  0.35798052  0.41648253  0.00208698  1
  Mn  Mn115  1  0.14313885  0.58323063  0.49780902  1
  Mn  Mn116  1  0.14272954  0.91641209  0.74657416  1
  Mn  Mn117  1  0.64254618  0.58337346  0.74845183  1
  Mn  Mn118  1  0.10882092  0.08315527  0.87235465  1
  Mn  Mn119  1  0.60727422  0.75020937  0.62298775  1
  Mn  Mn120  1  0.39243347  0.91707404  0.87793824  1
  Mn  Mn121  1  0.85680512  0.74995650  0.50172660  1
  Mn  Mn122  1  0.85728122  0.41644508  0.25274505  1
  Mn  Mn123  1  0.10793392  0.75067804  0.62321535  1
  Mn  Mn124  1  0.60737840  0.41704915  0.12281823  1
  Mn  Mn125  1  0.39147917  0.25025352  0.12761869  1
  Mn  Mn126  1  0.39197600  0.58312525  0.87719149  1
  Mn  Mn127  1  0.85749553  0.75037295  0.00266044  1
  Mn  Mn128  1  0.60740637  0.41636615  0.62273624  1
  Mn  Mn129  1  0.85732359  0.08335892  0.00241777  1
  Mn  Mn130  1  0.14257687  0.91640712  0.49822475  1
  Mn  Mn131  1  0.10837151  0.74928757  0.87257014  1
  Mn  Mn132  1  0.64187663  0.24996323  0.99719256  1
  Mn  Mn133  1  0.14233462  0.58244876  0.24793562  1
  Mn  Mn134  1  0.10652301  0.08296910  0.62297205  1
  Mn  Mn135  1  0.64257980  0.58361698  0.99756098  1
  Mn  Mn136  1  0.10764034  0.41736530  0.87247274  1
  Mn  Mn137  1  0.89243639  0.24934557  0.12727076  1
  Mn  Mn138  1  0.35906385  0.08310978  0.50237314  1
  Mn  Mn139  1  0.14260521  0.91713586  0.24795063  1
  Mn  Mn140  1  0.85716655  0.08324630  0.25218504  1
  Mn  Mn141  1  0.39362911  0.58376781  0.37736746  1
  Mn  Mn142  1  0.14304867  0.25035235  0.24905966  1
  Mn  Mn143  1  0.89098509  0.24972035  0.37713481  1
  Fe  Fe144  1  0.14308479  0.25053230  0.74738172  1
  Fe  Fe145  1  0.85699735  0.75028086  0.25170566  1
  Fe  Fe146  1  0.64207170  0.91652615  0.49851540  1
  Fe  Fe147  1  0.85730520  0.41698076  0.75236879  1
  Fe  Fe148  1  0.85649266  0.08333006  0.75203157  1
  Fe  Fe149  1  0.85721683  0.74993157  0.75198973  1
  Fe  Fe150  1  0.85597542  0.41628784  0.50091782  1
  Fe  Fe151  1  0.35752287  0.08290520  0.00124684  1
  Fe  Fe152  1  0.89244011  0.91611171  0.12622668  1
  Fe  Fe153  1  0.35908152  0.41726444  0.50202572  1
  Fe  Fe154  1  0.39424392  0.24955536  0.37685433  1
  Fe  Fe155  1  0.39405518  0.91676093  0.37665493  1
  Fe  Fe156  1  0.64155919  0.58320473  0.49885526  1
  Fe  Fe157  1  0.39267745  0.58345110  0.62690772  1
  Fe  Fe158  1  0.85735474  0.41615824  0.00186393  1
  Fe  Fe159  1  0.89112603  0.24943647  0.62701580  1
  Fe  Fe160  1  0.10781460  0.75054807  0.37365514  1
  Fe  Fe161  1  0.35763497  0.74922112  0.75181186  1
  Fe  Fe162  1  0.14293808  0.58304056  0.74804922  1
  Fe  Fe163  1  0.39367074  0.24942537  0.62647728  1
  Fe  Fe164  1  0.35703262  0.41703464  0.75185616  1
  Fe  Fe165  1  0.10701564  0.08331992  0.37423906  1
  Fe  Fe166  1  0.64293678  0.58358232  0.24734485  1
  Fe  Fe167  1  0.60739539  0.41669115  0.37353791  1
  Fe  Fe168  1  0.64226636  0.91617368  0.24792206  1
  Fe  Fe169  1  0.64161267  0.25019085  0.24825631  1
  Fe  Fe170  1  0.39377999  0.91715687  0.62629396  1
  Fe  Fe171  1  0.35834446  0.41623644  0.25206394  1
  Fe  Fe172  1  0.60742856  0.08307363  0.37300152  1
  Fe  Fe173  1  0.60799595  0.41693433  0.87334125  1
  Fe  Fe174  1  0.35739939  0.75071426  0.00222426  1
  Fe  Fe175  1  0.35796916  0.08393522  0.25301386  1
  Fe  Fe176  1  0.85611018  0.08360298  0.50158207  1
  Fe  Fe177  1  0.89257669  0.58432555  0.12711791  1
  Fe  Fe178  1  0.60672522  0.74958825  0.87329328  1
  Fe  Fe179  1  0.89099768  0.91683109  0.62626955  1
  Fe  Fe180  1  0.35849585  0.74950854  0.50127554  1
  Fe  Fe181  1  0.64243158  0.25019999  0.49870801  1
  Fe  Fe182  1  0.60731283  0.08333796  0.87395236  1
  Fe  Fe183  1  0.60794212  0.08332365  0.62317855  1
  Fe  Fe184  1  0.10668405  0.75010897  0.12340167  1
  Fe  Fe185  1  0.39251178  0.58363911  0.12714177  1
  Fe  Fe186  1  0.14353284  0.91701259  0.99929476  1
  Fe  Fe187  1  0.89268968  0.58343099  0.87639013  1
  Fe  Fe188  1  0.39241777  0.91610054  0.12672688  1
  Fe  Fe189  1  0.64187011  0.91663055  0.99886395  1
  Fe  Fe190  1  0.60745620  0.75031579  0.37321475  1
  Fe  Fe191  1  0.14292805  0.24930060  0.99856918  1
  P  P192  1  0.05446805  0.24977319  0.10926820  1
  P  P193  1  0.05272361  0.24911008  0.36046937  1
  P  P194  1  0.05274975  0.25001355  0.61123754  1
  P  P195  1  0.05578717  0.25005359  0.85984863  1
  P  P196  1  0.05187794  0.58440650  0.11015007  1
  P  P197  1  0.05326050  0.58362246  0.36037919  1
  P  P198  1  0.05430077  0.58354518  0.61094199  1
  P  P199  1  0.05272522  0.58323362  0.85882088  1
  P  P200  1  0.05277010  0.91561664  0.10941897  1
  P  P201  1  0.05348923  0.91732982  0.36052788  1
  P  P202  1  0.05114180  0.91657302  0.60998703  1
  P  P203  1  0.05523624  0.91649728  0.86075902  1
  P  P204  1  0.55374516  0.25026321  0.11103108  1
  P  P205  1  0.55476209  0.25010088  0.36098159  1
  P  P206  1  0.55308410  0.24949097  0.60936522  1
  P  P207  1  0.55344924  0.25013720  0.86000403  1
  P  P208  1  0.55304421  0.58348343  0.11084733  1
  P  P209  1  0.55607063  0.58364368  0.36080069  1
  P  P210  1  0.55243207  0.58318072  0.60981088  1
  P  P211  1  0.55331443  0.58355760  0.86006522  1
  P  P212  1  0.55342269  0.91631087  0.11055780  1
  P  P213  1  0.55464588  0.91630222  0.36060809  1
  P  P214  1  0.55307520  0.91721670  0.60969909  1
  P  P215  1  0.55469782  0.91634034  0.86168803  1
  P  P216  1  0.44405185  0.08231670  0.13968936  1
  P  P217  1  0.44744174  0.08311390  0.38840432  1
  P  P218  1  0.44893225  0.08334421  0.63955082  1
  P  P219  1  0.44767527  0.08349598  0.89094382  1
  P  P220  1  0.44595179  0.41758057  0.14095922  1
  P  P221  1  0.44681978  0.41609651  0.38922748  1
  P  P222  1  0.44490682  0.41678648  0.63911868  1
  P  P223  1  0.44706240  0.41650354  0.88883198  1
  P  P224  1  0.44514172  0.75016089  0.13895692  1
  P  P225  1  0.44791865  0.75081518  0.39014179  1
  P  P226  1  0.44496591  0.74996848  0.63916272  1
  P  P227  1  0.44580441  0.74987120  0.88973965  1
  P  P228  1  0.94697717  0.08193624  0.13981570  1
  P  P229  1  0.94646343  0.08343303  0.39096585  1
  P  P230  1  0.94323030  0.08323392  0.63943361  1
  P  P231  1  0.94578504  0.08342357  0.88909550  1
  P  P232  1  0.94532391  0.41721681  0.13891306  1
  P  P233  1  0.94589000  0.41640483  0.39132692  1
  P  P234  1  0.94348427  0.41579227  0.63927674  1
  P  P235  1  0.94483678  0.41759992  0.88930031  1
  P  P236  1  0.94662096  0.75067796  0.14038673  1
  P  P237  1  0.94658447  0.75017053  0.38904788  1
  P  P238  1  0.94532638  0.75107724  0.64044176  1
  P  P239  1  0.94543437  0.74905597  0.88888812  1
  P  P240  1  0.19723440  0.08359168  0.23697527  1
  P  P241  1  0.19644232  0.08315220  0.48461765  1
  P  P242  1  0.19726929  0.08398722  0.73386986  1
  P  P243  1  0.19853196  0.08247144  0.98513679  1
  P  P244  1  0.19863385  0.41635248  0.23531531  1
  P  P245  1  0.19904324  0.41668599  0.48525382  1
  P  P246  1  0.19754882  0.41697940  0.73459435  1
  P  P247  1  0.19689271  0.41623687  0.98482510  1
  P  P248  1  0.19461476  0.75002592  0.23563726  1
  P  P249  1  0.19819146  0.75019954  0.48442811  1
  P  P250  1  0.19836641  0.74912446  0.73472807  1
  P  P251  1  0.19677352  0.75098801  0.98668271  1
  P  P252  1  0.69421978  0.08317144  0.23645201  1
  P  P253  1  0.69516903  0.08313891  0.48600839  1
  P  P254  1  0.69552197  0.08337706  0.73561017  1
  P  P255  1  0.69564521  0.08223105  0.98451893  1
  P  P256  1  0.69463936  0.41681192  0.23625800  1
  P  P257  1  0.69645604  0.41655195  0.48495811  1
  P  P258  1  0.69670378  0.41703416  0.73622513  1
  P  P259  1  0.69733606  0.41699205  0.98442315  1
  P  P260  1  0.69592482  0.75001201  0.23596790  1
  P  P261  1  0.69539122  0.75026190  0.48464126  1
  P  P262  1  0.69656553  0.74972694  0.73629940  1
  P  P263  1  0.69572639  0.75094447  0.98446123  1
  P  P264  1  0.30215171  0.24898284  0.01468023  1
  P  P265  1  0.30493353  0.25004161  0.26634407  1
  P  P266  1  0.30651712  0.25035386  0.51429638  1
  P  P267  1  0.30410129  0.25062314  0.76313298  1
  P  P268  1  0.30413201  0.58438225  0.01586516  1
  P  P269  1  0.30511073  0.58269449  0.26422081  1
  P  P270  1  0.30516163  0.58375930  0.51506763  1
  P  P271  1  0.30368271  0.58322739  0.76360941  1
  P  P272  1  0.30312586  0.91662163  0.01577149  1
  P  P273  1  0.30589642  0.91736972  0.26499169  1
  P  P274  1  0.30625822  0.91581251  0.51387595  1
  P  P275  1  0.30564941  0.91604033  0.76335096  1
  P  P276  1  0.80301044  0.25059671  0.01518974  1
  P  P277  1  0.80110018  0.24960182  0.26511820  1
  P  P278  1  0.80178916  0.24978185  0.51526315  1
  P  P279  1  0.80457774  0.24975794  0.76385881  1
  P  P280  1  0.80521030  0.58256207  0.01455594  1
  P  P281  1  0.80345387  0.58462110  0.26367613  1
  P  P282  1  0.80091035  0.58274645  0.51456256  1
  P  P283  1  0.80405769  0.58363261  0.76567703  1
  P  P284  1  0.80186240  0.91680931  0.01591671  1
  P  P285  1  0.80300119  0.91583799  0.26370678  1
  P  P286  1  0.80167732  0.91740929  0.51510658  1
  P  P287  1  0.80455561  0.91671882  0.76381479  1
  O  O288  1  0.05777948  0.24982156  0.18608722  1
  O  O289  1  0.05572628  0.25004920  0.43728232  1
  O  O290  1  0.05854121  0.25055114  0.68786987  1
  O  O291  1  0.06050194  0.24968079  0.93664380  1
  O  O292  1  0.05602564  0.58328713  0.18681502  1
  O  O293  1  0.05653212  0.58299162  0.43720756  1
  O  O294  1  0.05911074  0.58315852  0.68766763  1
  O  O295  1  0.05683658  0.58326815  0.93557264  1
  O  O296  1  0.05659639  0.91686514  0.18613835  1
  O  O297  1  0.05633967  0.91710543  0.43728550  1
  O  O298  1  0.05545005  0.91645974  0.68669049  1
  O  O299  1  0.06029298  0.91665614  0.93747120  1
  O  O300  1  0.55786636  0.25024424  0.18781999  1
  O  O301  1  0.55917009  0.25028023  0.43771547  1
  O  O302  1  0.55675335  0.25025402  0.68608055  1
  O  O303  1  0.55581748  0.25045712  0.93684400  1
  O  O304  1  0.55828255  0.58372508  0.18753690  1
  O  O305  1  0.55935644  0.58328988  0.43769189  1
  O  O306  1  0.55660075  0.58312373  0.68648090  1
  O  O307  1  0.55613119  0.58346878  0.93686124  1
  O  O308  1  0.55832104  0.91609777  0.18726939  1
  O  O309  1  0.55883555  0.91640418  0.43734180  1
  O  O310  1  0.55653478  0.91643665  0.68646673  1
  O  O311  1  0.55802494  0.91635327  0.93845706  1
  O  O312  1  0.44008777  0.08319963  0.06287779  1
  O  O313  1  0.44301014  0.08332730  0.31173233  1
  O  O314  1  0.44558992  0.08331618  0.56286408  1
  O  O315  1  0.44396261  0.08337611  0.81420290  1
  O  O316  1  0.44318529  0.41675128  0.06407356  1
  O  O317  1  0.44235419  0.41680986  0.31256119  1
  O  O318  1  0.44195495  0.41710435  0.56220035  1
  O  O319  1  0.44166791  0.41654208  0.81217436  1
  O  O320  1  0.44134669  0.75039800  0.06217654  1
  O  O321  1  0.44417223  0.74996524  0.31342124  1
  O  O322  1  0.44193309  0.74968303  0.56235453  1
  O  O323  1  0.44111809  0.74974107  0.81299239  1
  O  O324  1  0.94375394  0.08280382  0.06304676  1
  O  O325  1  0.94269692  0.08339837  0.31420937  1
  O  O326  1  0.93912070  0.08353393  0.56261139  1
  O  O327  1  0.94090771  0.08350908  0.81236956  1
  O  O328  1  0.94145376  0.41628829  0.06213811  1
  O  O329  1  0.94275426  0.41637523  0.31446655  1
  O  O330  1  0.93877221  0.41648496  0.56251870  1
  O  O331  1  0.94091415  0.41662565  0.81246438  1
  O  O332  1  0.94326993  0.75064662  0.06360632  1
  O  O333  1  0.94132433  0.75014865  0.31243400  1
  O  O334  1  0.94230118  0.75023408  0.56357418  1
  O  O335  1  0.94105599  0.74999952  0.81218999  1
  O  O336  1  0.19553831  0.08236921  0.06193094  1
  O  O337  1  0.19175176  0.08309182  0.31352856  1
  O  O338  1  0.19248896  0.08314191  0.56137668  1
  O  O339  1  0.19439858  0.08316553  0.81068613  1
  O  O340  1  0.19401946  0.41705561  0.06163250  1
  O  O341  1  0.19464326  0.41677647  0.31200405  1
  O  O342  1  0.19425882  0.41636618  0.56187406  1
  O  O343  1  0.19381720  0.41711785  0.81129705  1
  O  O344  1  0.19159278  0.75011946  0.06332543  1
  O  O345  1  0.19029218  0.75015547  0.31242399  1
  O  O346  1  0.19413906  0.75061123  0.56114646  1
  O  O347  1  0.19458858  0.74979824  0.81147909  1
  O  O348  1  0.69249413  0.08294388  0.06134445  1
  O  O349  1  0.69057958  0.08308574  0.31332358  1
  O  O350  1  0.69109420  0.08304459  0.56281778  1
  O  O351  1  0.69055038  0.08338606  0.81225671  1
  O  O352  1  0.69311873  0.41727144  0.06115447  1
  O  O353  1  0.69064047  0.41662352  0.31303050  1
  O  O354  1  0.69346701  0.41660651  0.56174014  1
  O  O355  1  0.69159332  0.41684603  0.81285680  1
  O  O356  1  0.69274222  0.74995629  0.06130044  1
  O  O357  1  0.69140974  0.75023684  0.31262942  1
  O  O358  1  0.69286562  0.75037762  0.56150206  1
  O  O359  1  0.69143719  0.74980324  0.81289680  1
  O  O360  1  0.30669842  0.24987483  0.18947114  1
  O  O361  1  0.31116356  0.24935110  0.43755681  1
  O  O362  1  0.30944517  0.24938879  0.68650612  1
  O  O363  1  0.30562692  0.24971180  0.93793179  1
  O  O364  1  0.30893190  0.58362953  0.18746819  1
  O  O365  1  0.30801117  0.58376717  0.43826004  1
  O  O366  1  0.30823737  0.58337401  0.68695889  1
  O  O367  1  0.30678235  0.58374718  0.93898161  1
  O  O368  1  0.30953806  0.91637749  0.18821659  1
  O  O369  1  0.31042676  0.91683725  0.43709559  1
  O  O370  1  0.31018938  0.91725353  0.68659581  1
  O  O371  1  0.30632516  0.91631235  0.93895525  1
  O  O372  1  0.80559515  0.24953013  0.18847309  1
  O  O373  1  0.80482028  0.24958113  0.43852435  1
  O  O374  1  0.80759193  0.24962699  0.68703182  1
  O  O375  1  0.80638782  0.24985836  0.93840103  1
  O  O376  1  0.80850245  0.58440529  0.18699223  1
  O  O377  1  0.80444136  0.58337423  0.43784443  1
  O  O378  1  0.80599412  0.58375539  0.68879597  1
  O  O379  1  0.80905558  0.58357855  0.93781906  1
  O  O380  1  0.80801443  0.91635484  0.18711148  1
  O  O381  1  0.80517664  0.91699431  0.43834226  1
  O  O382  1  0.80777596  0.91654334  0.68703524  1
  O  O383  1  0.80590593  0.91670924  0.93916738  1
  O  O384  1  0.23232132  0.24913737  0.03990871  1
  O  O385  1  0.23550124  0.25022875  0.29235066  1
  O  O386  1  0.23626671  0.25010837  0.53793713  1
  O  O387  1  0.23369890  0.25052990  0.78657468  1
  O  O388  1  0.23445637  0.58344841  0.04117064  1
  O  O389  1  0.23523057  0.58318732  0.28879728  1
  O  O390  1  0.23547039  0.58354500  0.54031289  1
  O  O391  1  0.23354856  0.58336729  0.78811939  1
  O  O392  1  0.23327294  0.91678426  0.04111911  1
  O  O393  1  0.23580425  0.91653312  0.28904117  1
  O  O394  1  0.23617138  0.91644353  0.53812117  1
  O  O395  1  0.23563464  0.91611438  0.78747752  1
  O  O396  1  0.73326700  0.25055399  0.04016513  1
  O  O397  1  0.73097410  0.24965885  0.28928240  1
  O  O398  1  0.73167247  0.24993372  0.54016823  1
  O  O399  1  0.73478819  0.25013530  0.78885435  1
  O  O400  1  0.73512936  0.58368434  0.03888622  1
  O  O401  1  0.73301859  0.58351738  0.28704580  1
  O  O402  1  0.73096039  0.58322563  0.53967677  1
  O  O403  1  0.73458010  0.58326181  0.79157189  1
  O  O404  1  0.73168873  0.91645927  0.04005604  1
  O  O405  1  0.73260193  0.91640788  0.28735891  1
  O  O406  1  0.73158544  0.91685472  0.53976337  1
  O  O407  1  0.73464254  0.91688849  0.78848131  1
  O  O408  1  0.26773791  0.08387497  0.21384517  1
  O  O409  1  0.26659395  0.08301153  0.46078814  1
  O  O410  1  0.26695512  0.08377782  0.70859503  1
  O  O411  1  0.26835133  0.08270547  0.95950509  1
  O  O412  1  0.26871121  0.41578453  0.21095257  1
  O  O413  1  0.26943839  0.41696051  0.46171590  1
  O  O414  1  0.26765149  0.41676425  0.71007472  1
  O  O415  1  0.26651763  0.41676003  0.95929850  1
  O  O416  1  0.26492682  0.75028362  0.21240346  1
  O  O417  1  0.26840442  0.74985497  0.46017996  1
  O  O418  1  0.26844103  0.74958211  0.71029890  1
  O  O419  1  0.26716167  0.75064151  0.96291258  1
  O  O420  1  0.76406711  0.08303620  0.21172037  1
  O  O421  1  0.76552181  0.08334757  0.46188830  1
  O  O422  1  0.76593983  0.08323650  0.71237940  1
  O  O423  1  0.76530497  0.08300274  0.95935363  1
  O  O424  1  0.76460682  0.41718278  0.21190790  1
  O  O425  1  0.76642997  0.41619622  0.45976204  1
  O  O426  1  0.76709658  0.41717882  0.71290999  1
  O  O427  1  0.76752882  0.41656095  0.96050176  1
  O  O428  1  0.76606656  0.75024363  0.21164623  1
  O  O429  1  0.76500970  0.75008249  0.45901098  1
  O  O430  1  0.76684922  0.74981043  0.71259333  1
  O  O431  1  0.76557873  0.75065057  0.95981663  1
  O  O432  1  0.01671618  0.08229552  0.16485712  1
  O  O433  1  0.01645545  0.08329390  0.41563245  1
  O  O434  1  0.01332763  0.08332448  0.66371371  1
  O  O435  1  0.01596588  0.08316397  0.91266577  1
  O  O436  1  0.01526635  0.41699102  0.16356387  1
  O  O437  1  0.01551977  0.41627491  0.41659827  1
  O  O438  1  0.01374140  0.41636099  0.66296858  1
  O  O439  1  0.01489591  0.41721130  0.91339995  1
  O  O440  1  0.01668862  0.75037274  0.16502968  1
  O  O441  1  0.01695624  0.75070531  0.41270264  1
  O  O442  1  0.01504598  0.75033610  0.66563821  1
  O  O443  1  0.01546376  0.74921962  0.91301001  1
  O  O444  1  0.51416162  0.08283181  0.16369285  1
  O  O445  1  0.51784431  0.08304857  0.41224409  1
  O  O446  1  0.51889311  0.08313122  0.66463326  1
  O  O447  1  0.51769901  0.08325216  0.91541910  1
  O  O448  1  0.51559038  0.41691965  0.16616045  1
  O  O449  1  0.51728620  0.41679029  0.41287062  1
  O  O450  1  0.51486621  0.41637681  0.66381265  1
  O  O451  1  0.51735428  0.41697583  0.91261960  1
  O  O452  1  0.51502812  0.75030494  0.16361121  1
  O  O453  1  0.51804458  0.75022727  0.41444109  1
  O  O454  1  0.51487764  0.75030138  0.66414060  1
  O  O455  1  0.51612622  0.74982848  0.91341444  1
  O  O456  1  0.48373371  0.25026748  0.08684791  1
  O  O457  1  0.48433544  0.24977553  0.33717687  1
  O  O458  1  0.48304067  0.25003312  0.58483464  1
  O  O459  1  0.48399173  0.24950482  0.83407503  1
  O  O460  1  0.48272997  0.58351060  0.08731689  1
  O  O461  1  0.48602196  0.58389648  0.33642869  1
  O  O462  1  0.48228526  0.58328262  0.58569447  1
  O  O463  1  0.48374583  0.58349528  0.83453300  1
  O  O464  1  0.48302091  0.91645842  0.08717951  1
  O  O465  1  0.48429325  0.91654525  0.33661854  1
  O  O466  1  0.48302560  0.91681336  0.58513232  1
  O  O467  1  0.48485024  0.91668625  0.83680095  1
  O  O468  1  0.98466203  0.24966285  0.08433961  1
  O  O469  1  0.98320038  0.24946751  0.33474144  1
  O  O470  1  0.98207151  0.24950608  0.58863838  1
  O  O471  1  0.98547368  0.25027810  0.83659828  1
  O  O472  1  0.98175878  0.58449504  0.08581506  1
  O  O473  1  0.98353169  0.58345637  0.33525339  1
  O  O474  1  0.98405695  0.58393148  0.58728765  1
  O  O475  1  0.98253563  0.58306238  0.83481976  1
  O  O476  1  0.98273904  0.91587690  0.08467444  1
  O  O477  1  0.98381713  0.91693247  0.33515369  1
  O  O478  1  0.98103420  0.91682569  0.58570280  1
  O  O479  1  0.98492448  0.91658995  0.83757569  1
  O  O480  1  0.08861420  0.31479326  0.07670022  1
  O  O481  1  0.08715066  0.31408741  0.32796988  1
  O  O482  1  0.08553710  0.31501544  0.57717337  1
  O  O483  1  0.08912618  0.31521026  0.82658977  1
  O  O484  1  0.08556993  0.64968577  0.07762246  1
  O  O485  1  0.08734104  0.64884204  0.32834583  1
  O  O486  1  0.08784622  0.64865444  0.57804362  1
  O  O487  1  0.08665204  0.64820811  0.82594268  1
  O  O488  1  0.08718109  0.98032435  0.07625833  1
  O  O489  1  0.08727920  0.98277631  0.32819494  1
  O  O490  1  0.08512293  0.98150272  0.57727446  1
  O  O491  1  0.08849037  0.98143935  0.82715000  1
  O  O492  1  0.58730353  0.31521407  0.07794754  1
  O  O493  1  0.58779826  0.31531997  0.32764076  1
  O  O494  1  0.58721794  0.31437722  0.57641123  1
  O  O495  1  0.58743138  0.31534257  0.82752920  1
  O  O496  1  0.58637729  0.64841849  0.07737448  1
  O  O497  1  0.58973280  0.64881447  0.32797702  1
  O  O498  1  0.58645169  0.64810204  0.57700770  1
  O  O499  1  0.58728650  0.64895092  0.82786974  1
  O  O500  1  0.58690653  0.98127125  0.07728378  1
  O  O501  1  0.58822952  0.98122077  0.32728072  1
  O  O502  1  0.58696263  0.98222624  0.57709458  1
  O  O503  1  0.58854610  0.98149094  0.82900285  1
  O  O504  1  0.41082677  0.01700209  0.17244878  1
  O  O505  1  0.41429879  0.01800401  0.42169641  1
  O  O506  1  0.41494424  0.01836376  0.67221051  1
  O  O507  1  0.41348939  0.01862015  0.92373180  1
  O  O508  1  0.41140848  0.35263211  0.17340348  1
  O  O509  1  0.41378584  0.35091571  0.42236713  1
  O  O510  1  0.41093568  0.35164677  0.67157711  1
  O  O511  1  0.41400260  0.35133477  0.92230093  1
  O  O512  1  0.41167842  0.68500337  0.17195436  1
  O  O513  1  0.41377099  0.68601259  0.42318031  1
  O  O514  1  0.41137916  0.68472388  0.67217690  1
  O  O515  1  0.41210982  0.68504886  0.92298631  1
  O  O516  1  0.91298449  0.01656047  0.17187590  1
  O  O517  1  0.91211059  0.01850743  0.42355305  1
  O  O518  1  0.90972055  0.01797312  0.67222821  1
  O  O519  1  0.91220693  0.01847215  0.92235144  1
  O  O520  1  0.91157505  0.35229725  0.17232618  1
  O  O521  1  0.91120471  0.35145794  0.42347083  1
  O  O522  1  0.91023637  0.35062282  0.67240267  1
  O  O523  1  0.91101412  0.35278116  0.92277787  1
  O  O524  1  0.91231099  0.68582164  0.17317334  1
  O  O525  1  0.91358522  0.68506046  0.42269346  1
  O  O526  1  0.91059478  0.68620887  0.67286989  1
  O  O527  1  0.91199114  0.68377063  0.92153680  1
  O  O528  1  0.16450989  0.01850539  0.20285877  1
  O  O529  1  0.16253992  0.01815442  0.45184850  1
  O  O530  1  0.16309433  0.01887560  0.70142732  1
  O  O531  1  0.16466317  0.01720094  0.95276402  1
  O  O532  1  0.16446856  0.35141917  0.20286861  1
  O  O533  1  0.16566198  0.35161574  0.45205639  1
  O  O534  1  0.16369835  0.35192555  0.70171112  1
  O  O535  1  0.16301821  0.35092451  0.95285282  1
  O  O536  1  0.16125590  0.68502372  0.20224856  1
  O  O537  1  0.16407270  0.68524491  0.45179879  1
  O  O538  1  0.16469464  0.68393159  0.70228954  1
  O  O539  1  0.16350561  0.68595286  0.95291236  1
  O  O540  1  0.66045644  0.01797324  0.20376372  1
  O  O541  1  0.66176505  0.01805114  0.45274615  1
  O  O542  1  0.66211425  0.01847176  0.70200400  1
  O  O543  1  0.66179483  0.01687824  0.95240091  1
  O  O544  1  0.66132084  0.35152117  0.20332338  1
  O  O545  1  0.66218815  0.35147330  0.45260218  1
  O  O546  1  0.66360907  0.35204857  0.70252731  1
  O  O547  1  0.66320955  0.35216948  0.95147645  1
  O  O548  1  0.66261012  0.68481328  0.20268699  1
  O  O549  1  0.66089636  0.68525968  0.45257846  1
  O  O550  1  0.66326093  0.68473396  0.70284885  1
  O  O551  1  0.66144914  0.68605483  0.95166662  1
  O  O552  1  0.33619959  0.31405723  0.04735745  1
  O  O553  1  0.33979978  0.31506331  0.29805512  1
  O  O554  1  0.34003928  0.31548119  0.54705894  1
  O  O555  1  0.33718488  0.31593603  0.79630404  1
  O  O556  1  0.33801676  0.64966663  0.04803662  1
  O  O557  1  0.33901056  0.64758384  0.29746161  1
  O  O558  1  0.33924708  0.64897646  0.54734963  1
  O  O559  1  0.33732493  0.64822431  0.79683821  1
  O  O560  1  0.33749086  0.98170527  0.04784346  1
  O  O561  1  0.33938169  0.98260474  0.29779080  1
  O  O562  1  0.34029502  0.98056864  0.54740212  1
  O  O563  1  0.33913992  0.98105027  0.79687774  1
  O  O564  1  0.83708150  0.31576461  0.04734864  1
  O  O565  1  0.83470105  0.31468769  0.29804249  1
  O  O566  1  0.83595655  0.31478103  0.54768753  1
  O  O567  1  0.83862201  0.31485467  0.79631631  1
  O  O568  1  0.83940634  0.64728824  0.04792128  1
  O  O569  1  0.83595867  0.64999008  0.29723805  1
  O  O570  1  0.83510116  0.64770918  0.54721662  1
  O  O571  1  0.83837412  0.64874433  0.79781871  1
  O  O572  1  0.83564326  0.98177836  0.04881438  1
  O  O573  1  0.83627496  0.98080834  0.29739184  1
  O  O574  1  0.83547650  0.98251594  0.54765915  1
  O  O575  1  0.83818413  0.98191315  0.79662242  1
  O  O576  1  0.41031772  0.14723612  0.17307730  1
  O  O577  1  0.41429421  0.14805454  0.42195367  1
  O  O578  1  0.41524681  0.14860050  0.67221370  1
  O  O579  1  0.41370234  0.14849562  0.92361484  1
  O  O580  1  0.41202665  0.48281235  0.17312552  1
  O  O581  1  0.41321870  0.48098156  0.42274659  1
  O  O582  1  0.41127660  0.48195665  0.67204426  1
  O  O583  1  0.41342750  0.48138652  0.92211766  1
  O  O584  1  0.41151458  0.81527338  0.17189192  1
  O  O585  1  0.41422184  0.81595924  0.42263614  1
  O  O586  1  0.41103990  0.81503879  0.67177362  1
  O  O587  1  0.41237252  0.81491430  0.92309984  1
  O  O588  1  0.91272233  0.14683025  0.17270776  1
  O  O589  1  0.91224702  0.14835929  0.42367176  1
  O  O590  1  0.90951906  0.14824996  0.67258033  1
  O  O591  1  0.91263832  0.14856200  0.92245325  1
  O  O592  1  0.91170775  0.48259810  0.17140113  1
  O  O593  1  0.91141688  0.48140927  0.42365706  1
  O  O594  1  0.90981501  0.48083799  0.67257455  1
  O  O595  1  0.91129012  0.48287247  0.92180028  1
  O  O596  1  0.91279344  0.81592058  0.17303553  1
  O  O597  1  0.91285825  0.81506312  0.42225863  1
  O  O598  1  0.91131198  0.81632941  0.67252597  1
  O  O599  1  0.91191532  0.81391168  0.92257040  1
  O  O600  1  0.08868476  0.18463278  0.07679889  1
  O  O601  1  0.08683156  0.18366714  0.32869097  1
  O  O602  1  0.08598091  0.18504153  0.57780222  1
  O  O603  1  0.08922045  0.18515312  0.82633714  1
  O  O604  1  0.08552522  0.51945979  0.07685779  1
  O  O605  1  0.08722495  0.51840748  0.32773497  1
  O  O606  1  0.08737219  0.51839420  0.57749582  1
  O  O607  1  0.08664075  0.51829354  0.82583115  1
  O  O608  1  0.08670830  0.85027846  0.07723918  1
  O  O609  1  0.08794567  0.85244820  0.32812457  1
  O  O610  1  0.08497480  0.85151954  0.57718172  1
  O  O611  1  0.08833025  0.85125726  0.82742763  1
  O  O612  1  0.58723086  0.18514009  0.07814175  1
  O  O613  1  0.58816309  0.18508010  0.32768684  1
  O  O614  1  0.58692371  0.18437302  0.57689624  1
  O  O615  1  0.58802182  0.18489624  0.82834170  1
  O  O616  1  0.58629164  0.51844571  0.07748138  1
  O  O617  1  0.58956539  0.51849902  0.32786083  1
  O  O618  1  0.58628289  0.51823106  0.57677951  1
  O  O619  1  0.58752492  0.51847141  0.82769395  1
  O  O620  1  0.58688655  0.85152209  0.07699987  1
  O  O621  1  0.58779580  0.85105232  0.32728762  1
  O  O622  1  0.58714683  0.85233002  0.57677741  1
  O  O623  1  0.58807642  0.85102968  0.82865241  1
  O  O624  1  0.33618874  0.18395302  0.04702849  1
  O  O625  1  0.33955498  0.18500330  0.29849648  1
  O  O626  1  0.34006751  0.18535626  0.54789079  1
  O  O627  1  0.33730015  0.18569248  0.79700861  1
  O  O628  1  0.33913483  0.51959545  0.04798360  1
  O  O629  1  0.33876615  0.51744406  0.29673231  1
  O  O630  1  0.33963259  0.51883540  0.54745960  1
  O  O631  1  0.33707158  0.51793986  0.79669974  1
  O  O632  1  0.33732032  0.85168439  0.04854632  1
  O  O633  1  0.34007230  0.85264293  0.29825139  1
  O  O634  1  0.33965700  0.85044190  0.54632211  1
  O  O635  1  0.33907828  0.85075940  0.79612717  1
  O  O636  1  0.83679844  0.18542445  0.04794972  1
  O  O637  1  0.83461000  0.18453077  0.29818652  1
  O  O638  1  0.83574399  0.18469665  0.54789440  1
  O  O639  1  0.83808731  0.18453907  0.79670065  1
  O  O640  1  0.83826269  0.51706139  0.04721722  1
  O  O641  1  0.83703784  0.51973128  0.29707455  1
  O  O642  1  0.83474609  0.51763891  0.54694360  1
  O  O643  1  0.83876827  0.51861932  0.79758540  1
  O  O644  1  0.83597161  0.85188491  0.04877412  1
  O  O645  1  0.83596980  0.85059044  0.29709927  1
  O  O646  1  0.83598073  0.85251284  0.54776930  1
  O  O647  1  0.83809326  0.85156721  0.79680846  1
  O  O648  1  0.16401748  0.14855768  0.20351488  1
  O  O649  1  0.16261638  0.14821148  0.45186284  1
  O  O650  1  0.16307172  0.14921517  0.70196695  1
  O  O651  1  0.16419706  0.14744517  0.95279375  1
  O  O652  1  0.16510478  0.48144647  0.20208995  1
  O  O653  1  0.16552416  0.48173601  0.45228393  1
  O  O654  1  0.16394066  0.48221197  0.70189440  1
  O  O655  1  0.16254188  0.48133204  0.95244386  1
  O  O656  1  0.16111223  0.81499076  0.20231768  1
  O  O657  1  0.16441134  0.81526721  0.45150417  1
  O  O658  1  0.16455691  0.81409511  0.70157240  1
  O  O659  1  0.16377713  0.81625129  0.95350465  1
  O  O660  1  0.66046263  0.14830381  0.20375118  1
  O  O661  1  0.66151891  0.14823268  0.45308757  1
  O  O662  1  0.66228569  0.14834834  0.70196363  1
  O  O663  1  0.66100040  0.14699772  0.95182910  1
  O  O664  1  0.66110422  0.48203772  0.20325524  1
  O  O665  1  0.66244931  0.48158684  0.45238352  1
  O  O666  1  0.66338043  0.48197067  0.70277858  1
  O  O667  1  0.66381010  0.48210769  0.95134337  1
  O  O668  1  0.66222096  0.81502238  0.20284098  1
  O  O669  1  0.66126725  0.81549551  0.45235305  1
  O  O670  1  0.66318792  0.81467422  0.70274906  1
  O  O671  1  0.66166861  0.81614109  0.95244398  1
