# generated using pymatgen
data_Na2MnFe(PO4)2
_symmetry_space_group_name_H-M   'P 1'
_cell_length_a   21.08974234
_cell_length_b   18.94331220
_cell_length_c   20.04811545
_cell_angle_alpha   89.99935514
_cell_angle_beta   89.99370956
_cell_angle_gamma   90.00160338
_symmetry_Int_Tables_number   1
_chemical_formula_structural   Na2MnFe(PO4)2
_chemical_formula_sum   'Na96 Mn48 Fe48 P96 O384'
_cell_volume   8009.41399656
_cell_formula_units_Z   48
loop_
 _symmetry_equiv_pos_site_id
 _symmetry_equiv_pos_as_xyz
  1  'x, y, z'
loop_
 _atom_site_type_symbol
 _atom_site_label
 _atom_site_symmetry_multiplicity
 _atom_site_fract_x
 _atom_site_fract_y
 _atom_site_fract_z
 _atom_site_occupancy
  Na  Na0  1  0.00159729  0.00165755  -0.00001436  1
  Na  Na1  1  -0.00077731  -0.00017451  0.25046768  1
  Na  Na2  1  0.00081903  0.00083178  0.49914368  1
  Na  Na3  1  -0.00002400  0.00035169  0.75028084  1
  Na  Na4  1  -0.00022710  0.33272305  0.00012977  1
  Na  Na5  1  -0.00055540  0.33248063  0.25010601  1
  Na  Na6  1  0.00081872  0.33345317  0.49939993  1
  Na  Na7  1  0.00003486  0.33288274  0.75055990  1
  Na  Na8  1  -0.00014462  0.66628027  0.00016497  1
  Na  Na9  1  0.00038533  0.66670885  0.25006543  1
  Na  Na10  1  -0.00251314  0.66561687  0.49954369  1
  Na  Na11  1  -0.00135521  0.66714792  0.74979862  1
  Na  Na12  1  0.50059182  0.00101927  0.00073979  1
  Na  Na13  1  0.49652892  -0.00061547  0.25021467  1
  Na  Na14  1  0.49943016  0.00061440  0.49988557  1
  Na  Na15  1  0.49974701  0.00010155  0.74905131  1
  Na  Na16  1  0.50082312  0.33268801  0.00020650  1
  Na  Na17  1  0.49996288  0.33280231  0.24965377  1
  Na  Na18  1  0.50134874  0.33361487  0.49949744  1
  Na  Na19  1  0.50110220  0.33254069  0.75009705  1
  Na  Na20  1  0.50070455  0.66655885  0.00066017  1
  Na  Na21  1  0.50110543  0.66699125  0.25069501  1
  Na  Na22  1  0.49933789  0.66630687  0.49862406  1
  Na  Na23  1  0.50151410  0.66725488  0.74998389  1
  Na  Na24  1  0.24981560  0.00092522  0.12544659  1
  Na  Na25  1  0.24925973  0.00051748  0.37576769  1
  Na  Na26  1  0.24744906  0.00014979  0.62498119  1
  Na  Na27  1  0.24807195  0.00063359  0.87518360  1
  Na  Na28  1  0.24998811  0.33328457  0.12605207  1
  Na  Na29  1  0.24786160  0.33281946  0.37522328  1
  Na  Na30  1  0.24711011  0.33238215  0.62461936  1
  Na  Na31  1  0.24824753  0.33236638  0.87439767  1
  Na  Na32  1  0.25028082  0.66679624  0.12463757  1
  Na  Na33  1  0.24960002  0.66642654  0.37574500  1
  Na  Na34  1  0.24923013  0.66689875  0.62536180  1
  Na  Na35  1  0.24850993  0.66624050  0.87431797  1
  Na  Na36  1  0.75100907  0.00115395  0.12504989  1
  Na  Na37  1  0.75231271  0.00056335  0.37551045  1
  Na  Na38  1  0.75263147  0.00073312  0.62517947  1
  Na  Na39  1  0.74958541  -0.00023884  0.87410823  1
  Na  Na40  1  0.75058900  0.33258718  0.12554175  1
  Na  Na41  1  0.75115997  0.33292558  0.37471570  1
  Na  Na42  1  0.75246345  0.33301339  0.62439172  1
  Na  Na43  1  0.75110398  0.33218127  0.87493491  1
  Na  Na44  1  0.74911256  0.66617870  0.12430089  1
  Na  Na45  1  0.75132267  0.66651879  0.37509598  1
  Na  Na46  1  0.75223804  0.66710812  0.62504877  1
  Na  Na47  1  0.75005351  0.66636741  0.87501371  1
  Na  Na48  1  0.00125754  0.16700500  0.00001027  1
  Na  Na49  1  0.00140129  0.16684328  0.25032385  1
  Na  Na50  1  0.00116239  0.16682990  0.49962345  1
  Na  Na51  1  0.00047728  0.16716777  0.75047083  1
  Na  Na52  1  -0.00215916  0.50064867  0.00047244  1
  Na  Na53  1  -0.00142271  0.50067394  0.24942732  1
  Na  Na54  1  -0.00014399  0.49939949  0.49892454  1
  Na  Na55  1  -0.00208667  0.50060389  0.75025781  1
  Na  Na56  1  0.00179252  0.83209144  -0.00018393  1
  Na  Na57  1  -0.00062109  0.83354441  0.25081388  1
  Na  Na58  1  -0.00140839  0.83350586  0.49981633  1
  Na  Na59  1  -0.00059175  0.83300718  0.74968608  1
  Na  Na60  1  0.50116731  0.16737124  0.00020371  1
  Na  Na61  1  0.50015852  0.16680816  0.25031817  1
  Na  Na62  1  0.49895410  0.16765415  0.49946783  1
  Na  Na63  1  0.50222067  0.16648486  0.75012499  1
  Na  Na64  1  0.49892606  0.50043175  0.00100424  1
  Na  Na65  1  0.49917483  0.49993834  0.25014681  1
  Na  Na66  1  0.50080674  0.49933136  0.49918926  1
  Na  Na67  1  0.49879662  0.50066548  0.74971272  1
  Na  Na68  1  0.50110912  0.83272513  0.00035559  1
  Na  Na69  1  0.49869682  0.83342518  0.25041460  1
  Na  Na70  1  0.50029600  0.83287696  0.49917481  1
  Na  Na71  1  0.50177843  0.83253764  0.74959170  1
  Na  Na72  1  0.24945384  0.16638947  0.12563998  1
  Na  Na73  1  0.24731675  0.16739544  0.37543847  1
  Na  Na74  1  0.24753994  0.16696601  0.62531252  1
  Na  Na75  1  0.24669544  0.16788267  0.87489501  1
  Na  Na76  1  0.25157625  0.49919767  0.12586324  1
  Na  Na77  1  0.24881612  0.50015873  0.37550249  1
  Na  Na78  1  0.24991520  0.49939332  0.62480390  1
  Na  Na79  1  0.25020576  0.49998852  0.87437708  1
  Na  Na80  1  0.24946756  0.83296256  0.12470073  1
  Na  Na81  1  0.25085409  0.83222594  0.37568597  1
  Na  Na82  1  0.24676153  0.83400232  0.62482872  1
  Na  Na83  1  0.24833055  0.83264038  0.87480718  1
  Na  Na84  1  0.75056344  0.16719595  0.12465217  1
  Na  Na85  1  0.75172046  0.16738920  0.37498114  1
  Na  Na86  1  0.75232539  0.16699507  0.62507027  1
  Na  Na87  1  0.74999999  0.16753923  0.87445512  1
  Na  Na88  1  0.75213778  0.49930951  0.12534368  1
  Na  Na89  1  0.75016408  0.50060059  0.37468786  1
  Na  Na90  1  0.75296087  0.49935037  0.62438045  1
  Na  Na91  1  0.75293959  0.49946805  0.87495610  1
  Na  Na92  1  0.74747262  0.83408089  0.12496518  1
  Na  Na93  1  0.75288900  0.83241267  0.37567802  1
  Na  Na94  1  0.75192491  0.83271776  0.62507507  1
  Na  Na95  1  0.74937003  0.83294910  0.87428203  1
  Mn  Mn96  1  0.64320902  0.91712502  0.74688481  1
  Mn  Mn97  1  0.39147715  0.91667101  0.12749604  1
  Mn  Mn98  1  0.60808632  0.75015097  0.37263989  1
  Mn  Mn99  1  0.64237174  0.91721382  0.24862034  1
  Mn  Mn100  1  0.64135447  0.91752997  0.99747733  1
  Mn  Mn101  1  0.14194889  0.58239003  0.99817423  1
  Mn  Mn102  1  0.60888961  0.41673861  0.87211886  1
  Mn  Mn103  1  0.10691806  0.74955713  0.37245124  1
  Mn  Mn104  1  0.35733616  0.08386516  0.00152891  1
  Mn  Mn105  1  0.39153965  0.91645933  0.62729341  1
  Mn  Mn106  1  0.39258115  0.24962112  0.87683023  1
  Mn  Mn107  1  0.39186297  0.24989516  0.37699505  1
  Mn  Mn108  1  0.89235063  0.91675132  0.12727504  1
  Mn  Mn109  1  0.35795392  0.41604202  0.00184659  1
  Mn  Mn110  1  0.35713966  0.41606873  0.50209393  1
  Mn  Mn111  1  0.35703823  0.75012570  0.50310512  1
  Mn  Mn112  1  0.60835787  0.08303334  0.62258267  1
  Mn  Mn113  1  0.64308673  0.24992969  0.49809963  1
  Mn  Mn114  1  0.60772746  0.08303441  0.12381771  1
  Mn  Mn115  1  0.35743772  0.75027607  0.75165142  1
  Mn  Mn116  1  0.35682316  0.08353288  0.75219149  1
  Mn  Mn117  1  0.64325328  0.91689543  0.49761229  1
  Mn  Mn118  1  0.64315863  0.58321869  0.49820484  1
  Mn  Mn119  1  0.60785668  0.08351890  0.37249001  1
  Mn  Mn120  1  0.35738211  0.41611466  0.75168607  1
  Mn  Mn121  1  0.10717668  0.41724482  0.87275338  1
  Mn  Mn122  1  0.64237647  0.58254086  0.99813168  1
  Mn  Mn123  1  0.35591108  0.08374340  0.50244038  1
  Mn  Mn124  1  0.64350826  0.58222444  0.74739421  1
  Mn  Mn125  1  0.60763954  0.41684049  0.12344777  1
  Mn  Mn126  1  0.10741504  0.41668269  0.12294751  1
  Mn  Mn127  1  0.14155153  0.91697683  0.99787529  1
  Mn  Mn128  1  0.39225855  0.58323747  0.37683246  1
  Mn  Mn129  1  0.39239620  0.58370066  0.87707601  1
  Mn  Mn130  1  0.85766592  0.75026946  0.25143112  1
  Mn  Mn131  1  0.14111231  0.58313673  0.49814854  1
  Mn  Mn132  1  0.35772664  0.74994253  0.00182791  1
  Mn  Mn133  1  0.85765597  0.75055796  0.00254377  1
  Mn  Mn134  1  0.14222772  0.91611187  0.24786822  1
  Mn  Mn135  1  0.89240897  0.91680168  0.87789903  1
  Mn  Mn136  1  0.85804343  0.08316224  0.00209021  1
  Mn  Mn137  1  0.85946497  0.08304596  0.50251574  1
  Mn  Mn138  1  0.85820205  0.41621237  0.00259026  1
  Mn  Mn139  1  0.85893173  0.41697661  0.50178269  1
  Mn  Mn140  1  0.14075313  0.91696331  0.74744866  1
  Mn  Mn141  1  0.14096042  0.58269412  0.74717195  1
  Mn  Mn142  1  0.60854826  0.41710344  0.62308434  1
  Mn  Mn143  1  0.39248386  0.91685924  0.87685951  1
  Fe  Fe144  1  0.85761569  0.75003685  0.75217408  1
  Fe  Fe145  1  0.89401708  0.24996728  0.62688575  1
  Fe  Fe146  1  0.14113125  0.91670333  0.49785170  1
  Fe  Fe147  1  0.89273087  0.58344711  0.87684241  1
  Fe  Fe148  1  0.89289081  0.91681899  0.37687028  1
  Fe  Fe149  1  0.60808864  0.41640351  0.37230111  1
  Fe  Fe150  1  0.39163902  0.91688294  0.37719631  1
  Fe  Fe151  1  0.89272136  0.58337881  0.12743149  1
  Fe  Fe152  1  0.89283720  0.58309846  0.62707838  1
  Fe  Fe153  1  0.60789272  0.75032401  0.87285972  1
  Fe  Fe154  1  0.89344023  0.24997990  0.87694012  1
  Fe  Fe155  1  0.10780815  0.74995704  0.12379576  1
  Fe  Fe156  1  0.10680275  0.41685935  0.37255745  1
  Fe  Fe157  1  0.14145542  0.24986158  0.49828825  1
  Fe  Fe158  1  0.64397175  0.25009687  0.24841696  1
  Fe  Fe159  1  0.89276957  0.58327111  0.37594416  1
  Fe  Fe160  1  0.39278774  0.58314315  0.62634425  1
  Fe  Fe161  1  0.10664017  0.74984213  0.87317326  1
  Fe  Fe162  1  0.64308812  0.24988431  0.99855720  1
  Fe  Fe163  1  0.35716684  0.74978307  0.25123072  1
  Fe  Fe164  1  0.89295088  0.24988228  0.12706621  1
  Fe  Fe165  1  0.35668088  0.41643740  0.25209055  1
  Fe  Fe166  1  0.14258025  0.25048214  0.24793075  1
  Fe  Fe167  1  0.35624553  0.08360065  0.25203255  1
  Fe  Fe168  1  0.10681823  0.08328690  0.87306875  1
  Fe  Fe169  1  0.39198728  0.25045060  0.62719206  1
  Fe  Fe170  1  0.10665689  0.08351367  0.37267429  1
  Fe  Fe171  1  0.85804834  0.75006914  0.50219946  1
  Fe  Fe172  1  0.10623443  0.08321576  0.62337843  1
  Fe  Fe173  1  0.10558728  0.74988715  0.62332209  1
  Fe  Fe174  1  0.10729141  0.08311437  0.12396651  1
  Fe  Fe175  1  0.60819881  0.08301118  0.87271253  1
  Fe  Fe176  1  0.89398746  0.25006594  0.37620864  1
  Fe  Fe177  1  0.85880939  0.41612851  0.75156219  1
  Fe  Fe178  1  0.14137487  0.25050808  0.74775002  1
  Fe  Fe179  1  0.85849742  0.08403378  0.25141685  1
  Fe  Fe180  1  0.85841555  0.08375045  0.75214124  1
  Fe  Fe181  1  0.39220736  0.25031094  0.12717227  1
  Fe  Fe182  1  0.64345949  0.58271391  0.24819409  1
  Fe  Fe183  1  0.10631927  0.41706543  0.62351895  1
  Fe  Fe184  1  0.14259517  0.58318557  0.24818178  1
  Fe  Fe185  1  0.60812642  0.74975541  0.62316411  1
  Fe  Fe186  1  0.39247688  0.58319029  0.12789856  1
  Fe  Fe187  1  0.89362070  0.91693625  0.62679853  1
  Fe  Fe188  1  0.60663206  0.74982886  0.12403865  1
  Fe  Fe189  1  0.64452581  0.25017872  0.74794025  1
  Fe  Fe190  1  0.14231933  0.25051610  0.99894833  1
  Fe  Fe191  1  0.85746739  0.41622733  0.25194442  1
  P  P192  1  0.05399479  0.24944917  0.11110425  1
  P  P193  1  0.05457935  0.25034413  0.36059311  1
  P  P194  1  0.05357671  0.25024779  0.61084446  1
  P  P195  1  0.05418752  0.24977992  0.86095152  1
  P  P196  1  0.05326935  0.58363931  0.11148141  1
  P  P197  1  0.05260757  0.58254038  0.35927874  1
  P  P198  1  0.05114883  0.58326047  0.61005571  1
  P  P199  1  0.05177491  0.58373859  0.86012205  1
  P  P200  1  0.05339675  0.91683794  0.11056186  1
  P  P201  1  0.05299097  0.91713208  0.36116661  1
  P  P202  1  0.05218311  0.91672642  0.60954469  1
  P  P203  1  0.05309294  0.91664167  0.86015678  1
  P  P204  1  0.55427240  0.25005974  0.11120523  1
  P  P205  1  0.55459193  0.25064077  0.35925917  1
  P  P206  1  0.55372005  0.25014243  0.61092273  1
  P  P207  1  0.55623427  0.24910930  0.86031709  1
  P  P208  1  0.55344564  0.58355876  0.11202751  1
  P  P209  1  0.55484265  0.58241749  0.35940563  1
  P  P210  1  0.55274099  0.58392796  0.60978316  1
  P  P211  1  0.55408281  0.58381590  0.85981259  1
  P  P212  1  0.55307433  0.91613166  0.11076456  1
  P  P213  1  0.55176649  0.91703632  0.36006182  1
  P  P214  1  0.55356983  0.91587031  0.60940416  1
  P  P215  1  0.55397832  0.91707187  0.85946517  1
  P  P216  1  0.44528903  0.08484209  0.14068409  1
  P  P217  1  0.44451708  0.08303223  0.38902804  1
  P  P218  1  0.44612488  0.08466288  0.63977155  1
  P  P219  1  0.44832317  0.08358714  0.88979737  1
  P  P220  1  0.44536753  0.41620462  0.14073528  1
  P  P221  1  0.44652905  0.41633454  0.38868537  1
  P  P222  1  0.44663777  0.41640698  0.63959006  1
  P  P223  1  0.44740062  0.41619666  0.88996199  1
  P  P224  1  0.44671622  0.74908892  0.14066906  1
  P  P225  1  0.44464957  0.75060210  0.38876906  1
  P  P226  1  0.44792740  0.74916165  0.63964547  1
  P  P227  1  0.44818702  0.75026248  0.88983967  1
  P  P228  1  0.94754249  0.08437307  0.14042199  1
  P  P229  1  0.94673856  0.08403633  0.38835047  1
  P  P230  1  0.94762440  0.08353114  0.64029057  1
  P  P231  1  0.94684499  0.08448832  0.88899487  1
  P  P232  1  0.94576882  0.41615293  0.14066415  1
  P  P233  1  0.94651128  0.41646600  0.38790235  1
  P  P234  1  0.94739716  0.41636171  0.64005643  1
  P  P235  1  0.94533833  0.41634686  0.88896630  1
  P  P236  1  0.94820185  0.74953579  0.13992430  1
  P  P237  1  0.94541578  0.74970408  0.39001354  1
  P  P238  1  0.94560348  0.75013490  0.63902930  1
  P  P239  1  0.94635746  0.74937189  0.88907395  1
  P  P240  1  0.19529746  0.08389069  0.23617505  1
  P  P241  1  0.19278259  0.08343534  0.48586855  1
  P  P242  1  0.19361844  0.08433404  0.73536782  1
  P  P243  1  0.19413036  0.08466995  0.98585754  1
  P  P244  1  0.19593898  0.41688159  0.23656030  1
  P  P245  1  0.19363475  0.41592391  0.48547464  1
  P  P246  1  0.19513367  0.41602286  0.73403524  1
  P  P247  1  0.19655495  0.41582789  0.98509533  1
  P  P248  1  0.19719904  0.74897081  0.23485864  1
  P  P249  1  0.19403756  0.75037700  0.48628758  1
  P  P250  1  0.19375287  0.74976139  0.73494024  1
  P  P251  1  0.19447436  0.74942752  0.98521118  1
  P  P252  1  0.69870572  0.08444523  0.23547124  1
  P  P253  1  0.69791270  0.08359531  0.48478062  1
  P  P254  1  0.69795670  0.08445479  0.73576868  1
  P  P255  1  0.69617882  0.08447370  0.98433126  1
  P  P256  1  0.69721263  0.41637305  0.23628599  1
  P  P257  1  0.69696238  0.41653490  0.48404873  1
  P  P258  1  0.69957800  0.41563292  0.73483034  1
  P  P259  1  0.69708528  0.41576881  0.98524814  1
  P  P260  1  0.69617421  0.74918698  0.23459217  1
  P  P261  1  0.69748772  0.74982523  0.48607770  1
  P  P262  1  0.69690839  0.74959352  0.73519839  1
  P  P263  1  0.69467706  0.74982876  0.98543119  1
  P  P264  1  0.30236578  0.24980013  0.01567577  1
  P  P265  1  0.30279176  0.24997324  0.26420543  1
  P  P266  1  0.30152526  0.24993045  0.51553975  1
  P  P267  1  0.30224679  0.24991833  0.76397004  1
  P  P268  1  0.30392471  0.58318445  0.01577649  1
  P  P269  1  0.30312311  0.58325662  0.26416417  1
  P  P270  1  0.30338383  0.58297315  0.51579071  1
  P  P271  1  0.30394412  0.58338817  0.76368812  1
  P  P272  1  0.30267808  0.91691922  0.01487737  1
  P  P273  1  0.30343866  0.91659827  0.26574244  1
  P  P274  1  0.30168540  0.91701155  0.51439321  1
  P  P275  1  0.30211283  0.91672613  0.76526292  1
  P  P276  1  0.80444618  0.24959240  0.01462068  1
  P  P277  1  0.80524525  0.24998510  0.26418123  1
  P  P278  1  0.80651849  0.25010253  0.51447428  1
  P  P279  1  0.80595437  0.24994375  0.76409339  1
  P  P280  1  0.80542348  0.58354854  0.01485525  1
  P  P281  1  0.80435419  0.58273558  0.26411064  1
  P  P282  1  0.80616454  0.58389276  0.51427997  1
  P  P283  1  0.80625284  0.58325126  0.76421633  1
  P  P284  1  0.80271273  0.91673797  0.01517466  1
  P  P285  1  0.80431412  0.91769808  0.26561439  1
  P  P286  1  0.80614442  0.91603533  0.51484924  1
  P  P287  1  0.80573161  0.91675898  0.76357489  1
  O  O288  1  0.05887619  0.25035779  0.18780686  1
  O  O289  1  0.05824271  0.25039626  0.43731641  1
  O  O290  1  0.05734213  0.25034393  0.68758165  1
  O  O291  1  0.05843489  0.25061526  0.93763305  1
  O  O292  1  0.05854542  0.58309195  0.18810326  1
  O  O293  1  0.05592747  0.58302550  0.43593713  1
  O  O294  1  0.05446592  0.58339372  0.68671089  1
  O  O295  1  0.05550336  0.58282775  0.93679807  1
  O  O296  1  0.05594631  0.91670128  0.18736992  1
  O  O297  1  0.05732291  0.91657346  0.43780198  1
  O  O298  1  0.05521893  0.91663349  0.68627544  1
  O  O299  1  0.05593653  0.91678718  0.93690103  1
  O  O300  1  0.55981248  0.24995659  0.18782617  1
  O  O301  1  0.55770255  0.25000048  0.43604427  1
  O  O302  1  0.55965812  0.25006562  0.68751190  1
  O  O303  1  0.55999020  0.25013087  0.93711688  1
  O  O304  1  0.55884533  0.58257972  0.18860559  1
  O  O305  1  0.55785984  0.58297970  0.43617573  1
  O  O306  1  0.55697056  0.58325482  0.68644919  1
  O  O307  1  0.55683252  0.58267612  0.93660904  1
  O  O308  1  0.55625011  0.91702005  0.18747957  1
  O  O309  1  0.55636679  0.91720128  0.43670581  1
  O  O310  1  0.55733762  0.91663484  0.68614281  1
  O  O311  1  0.55608244  0.91735248  0.93630202  1
  O  O312  1  0.44271637  0.08460403  0.06389104  1
  O  O313  1  0.43984424  0.08384840  0.31231492  1
  O  O314  1  0.44239298  0.08447412  0.56299909  1
  O  O315  1  0.44383728  0.08387618  0.81314713  1
  O  O316  1  0.44295010  0.41593212  0.06394670  1
  O  O317  1  0.44063538  0.41613471  0.31209449  1
  O  O318  1  0.44374004  0.41599460  0.56279990  1
  O  O319  1  0.44380141  0.41586117  0.81321949  1
  O  O320  1  0.44340929  0.74944450  0.06395593  1
  O  O321  1  0.44022969  0.74984511  0.31206872  1
  O  O322  1  0.44373013  0.74986254  0.56292825  1
  O  O323  1  0.44392171  0.75020093  0.81319896  1
  O  O324  1  0.94409371  0.08422181  0.06371596  1
  O  O325  1  0.94237521  0.08401563  0.31168975  1
  O  O326  1  0.94485863  0.08364076  0.56361470  1
  O  O327  1  0.94218326  0.08392258  0.81231916  1
  O  O328  1  0.94333138  0.41595116  0.06384899  1
  O  O329  1  0.94184457  0.41640440  0.31127441  1
  O  O330  1  0.94458249  0.41628285  0.56334612  1
  O  O331  1  0.94205649  0.41606799  0.81219071  1
  O  O332  1  0.94452102  0.74988556  0.06325956  1
  O  O333  1  0.94284737  0.74983937  0.31323995  1
  O  O334  1  0.94180038  0.75003422  0.56231804  1
  O  O335  1  0.94170260  0.75019235  0.81238796  1
  O  O336  1  0.19051521  0.08363488  0.06267540  1
  O  O337  1  0.19042300  0.08332069  0.31289254  1
  O  O338  1  0.18879428  0.08323081  0.56270281  1
  O  O339  1  0.18968439  0.08353391  0.81217748  1
  O  O340  1  0.19356497  0.41666573  0.06186220  1
  O  O341  1  0.19107732  0.41704221  0.31322537  1
  O  O342  1  0.18917945  0.41694517  0.56221248  1
  O  O343  1  0.19225306  0.41703461  0.81082684  1
  O  O344  1  0.19025901  0.74955424  0.06202026  1
  O  O345  1  0.19325916  0.74935257  0.31157110  1
  O  O346  1  0.18905295  0.74985141  0.56299525  1
  O  O347  1  0.18935283  0.74942259  0.81174433  1
  O  O348  1  0.69305153  0.08375286  0.06111391  1
  O  O349  1  0.69480365  0.08383362  0.31211351  1
  O  O350  1  0.69449142  0.08357207  0.56158802  1
  O  O351  1  0.69291624  0.08346857  0.81234504  1
  O  O352  1  0.69381878  0.41647320  0.06202365  1
  O  O353  1  0.69277400  0.41657181  0.31292274  1
  O  O354  1  0.69387096  0.41644833  0.56088301  1
  O  O355  1  0.69560890  0.41639021  0.81148251  1
  O  O356  1  0.69001348  0.74978146  0.06217082  1
  O  O357  1  0.69390538  0.74977961  0.31145230  1
  O  O358  1  0.69232244  0.74974495  0.56273099  1
  O  O359  1  0.69175850  0.74972166  0.81187604  1
  O  O360  1  0.30753670  0.25001186  0.18760730  1
  O  O361  1  0.30586510  0.25003936  0.43885002  1
  O  O362  1  0.30752399  0.24986166  0.68736418  1
  O  O363  1  0.30625399  0.24970229  0.93893896  1
  O  O364  1  0.30797147  0.58328231  0.18750893  1
  O  O365  1  0.30680329  0.58308215  0.43899455  1
  O  O366  1  0.30887278  0.58367355  0.68699467  1
  O  O367  1  0.30679486  0.58346378  0.93891907  1
  O  O368  1  0.30601237  0.91675325  0.18888622  1
  O  O369  1  0.30708438  0.91675392  0.43779042  1
  O  O370  1  0.30544576  0.91665087  0.68843598  1
  O  O371  1  0.30587373  0.91677231  0.93811972  1
  O  O372  1  0.80943102  0.24973092  0.18744251  1
  O  O373  1  0.81092141  0.25011431  0.43772845  1
  O  O374  1  0.81068659  0.24981954  0.68735647  1
  O  O375  1  0.80941072  0.24957761  0.93796153  1
  O  O376  1  0.80903773  0.58351638  0.18737972  1
  O  O377  1  0.80993161  0.58304274  0.43748700  1
  O  O378  1  0.81010812  0.58323467  0.68732164  1
  O  O379  1  0.80968869  0.58376765  0.93806455  1
  O  O380  1  0.80686273  0.91699122  0.18878977  1
  O  O381  1  0.81024715  0.91697641  0.43804055  1
  O  O382  1  0.81009118  0.91695853  0.68681515  1
  O  O383  1  0.80632373  0.91628741  0.93840024  1
  O  O384  1  0.23226317  0.24992594  0.04012401  1
  O  O385  1  0.23238509  0.25010787  0.28801212  1
  O  O386  1  0.23109438  0.24954426  0.53896523  1
  O  O387  1  0.23179972  0.25032476  0.78721569  1
  O  O388  1  0.23417385  0.58288359  0.04078507  1
  O  O389  1  0.23279687  0.58311861  0.28820717  1
  O  O390  1  0.23345397  0.58309495  0.54018587  1
  O  O391  1  0.23376747  0.58303016  0.78736834  1
  O  O392  1  0.23306691  0.91704740  0.04015451  1
  O  O393  1  0.23368732  0.91647428  0.29103423  1
  O  O394  1  0.23123414  0.91725368  0.53766620  1
  O  O395  1  0.23237277  0.91671093  0.79004299  1
  O  O396  1  0.73406812  0.24975261  0.03811203  1
  O  O397  1  0.73494742  0.25025712  0.28818672  1
  O  O398  1  0.73643442  0.25005975  0.53835574  1
  O  O399  1  0.73557746  0.24995874  0.78769501  1
  O  O400  1  0.73533966  0.58286214  0.03870998  1
  O  O401  1  0.73401826  0.58319215  0.28784143  1
  O  O402  1  0.73622774  0.58306152  0.53878806  1
  O  O403  1  0.73627781  0.58297323  0.78859063  1
  O  O404  1  0.73304601  0.91759225  0.03998730  1
  O  O405  1  0.73475041  0.91670615  0.29126341  1
  O  O406  1  0.73618778  0.91690696  0.53915687  1
  O  O407  1  0.73570693  0.91647539  0.78770083  1
  O  O408  1  0.26574163  0.08351276  0.21279849  1
  O  O409  1  0.26285530  0.08403069  0.46178790  1
  O  O410  1  0.26355035  0.08360542  0.71100419  1
  O  O411  1  0.26398815  0.08419240  0.96104384  1
  O  O412  1  0.26629209  0.41644386  0.21287405  1
  O  O413  1  0.26377014  0.41648248  0.46154182  1
  O  O414  1  0.26475346  0.41589343  0.70885765  1
  O  O415  1  0.26597108  0.41595334  0.95934901  1
  O  O416  1  0.26733488  0.74981164  0.21052332  1
  O  O417  1  0.26418955  0.74955384  0.46266495  1
  O  O418  1  0.26384805  0.75021427  0.71106844  1
  O  O419  1  0.26452679  0.74937124  0.96113437  1
  O  O420  1  0.76872810  0.08436789  0.21076221  1
  O  O421  1  0.76773796  0.08374244  0.46029985  1
  O  O422  1  0.76841019  0.08430447  0.71222292  1
  O  O423  1  0.76592742  0.08358702  0.95928898  1
  O  O424  1  0.76748671  0.41602883  0.21220735  1
  O  O425  1  0.76681851  0.41669892  0.45944471  1
  O  O426  1  0.76967884  0.41593016  0.71042013  1
  O  O427  1  0.76677934  0.41592488  0.96026166  1
  O  O428  1  0.76579413  0.75001493  0.20903819  1
  O  O429  1  0.76786422  0.74965869  0.46262262  1
  O  O430  1  0.76753341  0.74978302  0.71230424  1
  O  O431  1  0.76484419  0.74980940  0.96162993  1
  O  O432  1  0.01756493  0.08353821  0.16509643  1
  O  O433  1  0.01697329  0.08421045  0.41242406  1
  O  O434  1  0.01768733  0.08349943  0.66509365  1
  O  O435  1  0.01709986  0.08427986  0.91278019  1
  O  O436  1  0.01545051  0.41640588  0.16584563  1
  O  O437  1  0.01672316  0.41643520  0.41194156  1
  O  O438  1  0.01731539  0.41668073  0.66521779  1
  O  O439  1  0.01499669  0.41651222  0.91426296  1
  O  O440  1  0.01812844  0.74990988  0.16494126  1
  O  O441  1  0.01511200  0.74945631  0.41520739  1
  O  O442  1  0.01589882  0.75018167  0.66320929  1
  O  O443  1  0.01662148  0.74942450  0.91291415  1
  O  O444  1  0.51499402  0.08345326  0.16596341  1
  O  O445  1  0.51461381  0.08387275  0.41297114  1
  O  O446  1  0.51599839  0.08366220  0.66434749  1
  O  O447  1  0.51836693  0.08378947  0.91408431  1
  O  O448  1  0.51510487  0.41640173  0.16587572  1
  O  O449  1  0.51705327  0.41638535  0.41152066  1
  O  O450  1  0.51624943  0.41655726  0.66515862  1
  O  O451  1  0.51706229  0.41642211  0.91502553  1
  O  O452  1  0.51674439  0.74971402  0.16542110  1
  O  O453  1  0.51481602  0.74982634  0.41262531  1
  O  O454  1  0.51807316  0.74971324  0.66389802  1
  O  O455  1  0.51826042  0.75012987  0.91415682  1
  O  O456  1  0.48370408  0.25041006  0.08821661  1
  O  O457  1  0.48468090  0.25013113  0.33474651  1
  O  O458  1  0.48331994  0.25057846  0.58751684  1
  O  O459  1  0.48614790  0.24956830  0.83614174  1
  O  O460  1  0.48300643  0.58315882  0.08866505  1
  O  O461  1  0.48495147  0.58318409  0.33479715  1
  O  O462  1  0.48277232  0.58320013  0.58503814  1
  O  O463  1  0.48450752  0.58385345  0.83443267  1
  O  O464  1  0.48342065  0.91669359  0.08549181  1
  O  O465  1  0.48163197  0.91668210  0.33602474  1
  O  O466  1  0.48373925  0.91637235  0.58472009  1
  O  O467  1  0.48460718  0.91669685  0.83332567  1
  O  O468  1  0.98355696  0.25010299  0.08764443  1
  O  O469  1  0.98428266  0.25005477  0.33648665  1
  O  O470  1  0.98333573  0.25004112  0.58646040  1
  O  O471  1  0.98387407  0.25007671  0.83707576  1
  O  O472  1  0.98284079  0.58307924  0.08807793  1
  O  O473  1  0.98242037  0.58348747  0.33498896  1
  O  O474  1  0.98116654  0.58285340  0.58514472  1
  O  O475  1  0.98180432  0.58355286  0.83548105  1
  O  O476  1  0.98401488  0.91703248  0.08444948  1
  O  O477  1  0.98270487  0.91662585  0.33726155  1
  O  O478  1  0.98209134  0.91698258  0.58488017  1
  O  O479  1  0.98356703  0.91678303  0.83467049  1
  O  O480  1  0.08758260  0.31421350  0.07739353  1
  O  O481  1  0.08787993  0.31540449  0.32725190  1
  O  O482  1  0.08689780  0.31529478  0.57764049  1
  O  O483  1  0.08767445  0.31457521  0.82721250  1
  O  O484  1  0.08629024  0.64872925  0.07828248  1
  O  O485  1  0.08699694  0.64726878  0.32646491  1
  O  O486  1  0.08464771  0.64837180  0.57722323  1
  O  O487  1  0.08553272  0.64870503  0.82749644  1
  O  O488  1  0.08767294  0.98213107  0.07874970  1
  O  O489  1  0.08615205  0.98223028  0.32805384  1
  O  O490  1  0.08611309  0.98180575  0.57710615  1
  O  O491  1  0.08719627  0.98180649  0.82795662  1
  O  O492  1  0.58770780  0.31496919  0.07767373  1
  O  O493  1  0.58857612  0.31578440  0.32684131  1
  O  O494  1  0.58730913  0.31510379  0.57762230  1
  O  O495  1  0.59035655  0.31375114  0.82674888  1
  O  O496  1  0.58654192  0.64876789  0.07894495  1
  O  O497  1  0.58936505  0.64720384  0.32688256  1
  O  O498  1  0.58639507  0.64913027  0.57713683  1
  O  O499  1  0.58843688  0.64897023  0.82800400  1
  O  O500  1  0.58737364  0.98108382  0.07821815  1
  O  O501  1  0.58528337  0.98209116  0.32692580  1
  O  O502  1  0.58771496  0.98093295  0.57684699  1
  O  O503  1  0.58826521  0.98226612  0.82728863  1
  O  O504  1  0.41005547  0.02025971  0.17288248  1
  O  O505  1  0.41128685  0.01767812  0.42191231  1
  O  O506  1  0.41180206  0.01961840  0.67208740  1
  O  O507  1  0.41454524  0.01851179  0.92253873  1
  O  O508  1  0.41111504  0.35116118  0.17322974  1
  O  O509  1  0.41341738  0.35138017  0.42245473  1
  O  O510  1  0.41243315  0.35133102  0.67212532  1
  O  O511  1  0.41349371  0.35105796  0.92254874  1
  O  O512  1  0.41289796  0.68407292  0.17352130  1
  O  O513  1  0.41100537  0.68567397  0.42199978  1
  O  O514  1  0.41442236  0.68393132  0.67222944  1
  O  O515  1  0.41437676  0.68529193  0.92276628  1
  O  O516  1  0.91306325  0.01962011  0.17304301  1
  O  O517  1  0.91357847  0.01892735  0.42162179  1
  O  O518  1  0.91359695  0.01853960  0.67283082  1
  O  O519  1  0.91359696  0.01953030  0.92251467  1
  O  O520  1  0.91166834  0.35105034  0.17298121  1
  O  O521  1  0.91335804  0.35144855  0.42132519  1
  O  O522  1  0.91365169  0.35126077  0.67281325  1
  O  O523  1  0.91176384  0.35108621  0.92169498  1
  O  O524  1  0.91427567  0.68458789  0.17258989  1
  O  O525  1  0.91114276  0.68459902  0.42210945  1
  O  O526  1  0.91217813  0.68510186  0.67219048  1
  O  O527  1  0.91300769  0.68426995  0.92200333  1
  O  O528  1  0.16192158  0.01898376  0.20261749  1
  O  O529  1  0.15948074  0.01831445  0.45260256  1
  O  O530  1  0.15944016  0.01967073  0.70203368  1
  O  O531  1  0.15988019  0.02005105  0.95253453  1
  O  O532  1  0.16250410  0.35186097  0.20332855  1
  O  O533  1  0.16040831  0.35052753  0.45274563  1
  O  O534  1  0.16059186  0.35098703  0.70215726  1
  O  O535  1  0.16221610  0.35062099  0.95337822  1
  O  O536  1  0.16358137  0.68389389  0.20201634  1
  O  O537  1  0.16056533  0.68539853  0.45292025  1
  O  O538  1  0.16013770  0.68484885  0.70160393  1
  O  O539  1  0.16078244  0.68440379  0.95220671  1
  O  O540  1  0.66483380  0.01936417  0.20271035  1
  O  O541  1  0.66405211  0.01855741  0.45214893  1
  O  O542  1  0.66477360  0.01953255  0.70196799  1
  O  O543  1  0.66147448  0.01986389  0.95149349  1
  O  O544  1  0.66372699  0.35131483  0.20319225  1
  O  O545  1  0.66297034  0.35152950  0.45148485  1
  O  O546  1  0.66587186  0.35052730  0.70224687  1
  O  O547  1  0.66328159  0.35055465  0.95308854  1
  O  O548  1  0.66231223  0.68385171  0.20250491  1
  O  O549  1  0.66420850  0.68486757  0.45268527  1
  O  O550  1  0.66400793  0.68445279  0.70161077  1
  O  O551  1  0.66130143  0.68475445  0.95221440  1
  O  O552  1  0.33639241  0.31471602  0.04848607  1
  O  O553  1  0.33602489  0.31498536  0.29773898  1
  O  O554  1  0.33489647  0.31506088  0.54853342  1
  O  O555  1  0.33568911  0.31477812  0.79744368  1
  O  O556  1  0.33802656  0.64822285  0.04825920  1
  O  O557  1  0.33626185  0.64845891  0.29731241  1
  O  O558  1  0.33756854  0.64778066  0.54856679  1
  O  O559  1  0.33697778  0.64853040  0.79718310  1
  O  O560  1  0.33674621  0.98201417  0.04712269  1
  O  O561  1  0.33746387  0.98176963  0.29809958  1
  O  O562  1  0.33484995  0.98206793  0.54771620  1
  O  O563  1  0.33601309  0.98189030  0.79764996  1
  O  O564  1  0.83792388  0.31439350  0.04818876  1
  O  O565  1  0.83884201  0.31502034  0.29734466  1
  O  O566  1  0.84006017  0.31513557  0.54753854  1
  O  O567  1  0.83925505  0.31499793  0.79742558  1
  O  O568  1  0.83869780  0.64859818  0.04821222  1
  O  O569  1  0.83795521  0.64760472  0.29749842  1
  O  O570  1  0.83949352  0.64910053  0.54713673  1
  O  O571  1  0.83960539  0.64854928  0.79717346  1
  O  O572  1  0.83726482  0.98166959  0.04717898  1
  O  O573  1  0.83836628  0.98304486  0.29753816  1
  O  O574  1  0.84044151  0.98068879  0.54804005  1
  O  O575  1  0.83892935  0.98203360  0.79667326  1
  O  O576  1  0.41173788  0.15025865  0.17313099  1
  O  O577  1  0.41073928  0.14791641  0.42230603  1
  O  O578  1  0.41274338  0.14998873  0.67251071  1
  O  O579  1  0.41442102  0.14852634  0.92277382  1
  O  O580  1  0.41095323  0.48120834  0.17303319  1
  O  O581  1  0.41339531  0.48138477  0.42210879  1
  O  O582  1  0.41246116  0.48169461  0.67149324  1
  O  O583  1  0.41316327  0.48124883  0.92217136  1
  O  O584  1  0.41233570  0.81397224  0.17323251  1
  O  O585  1  0.41146354  0.81589371  0.42180993  1
  O  O586  1  0.41390837  0.81410942  0.67254091  1
  O  O587  1  0.41446410  0.81531392  0.92271328  1
  O  O588  1  0.91397602  0.14950557  0.17327359  1
  O  O589  1  0.91357500  0.14907646  0.42166138  1
  O  O590  1  0.91380503  0.14855817  0.67302161  1
  O  O591  1  0.91368991  0.14960545  0.92213991  1
  O  O592  1  0.91118150  0.48108605  0.17276532  1
  O  O593  1  0.91323761  0.48159524  0.42102117  1
  O  O594  1  0.91295384  0.48118733  0.67246176  1
  O  O595  1  0.91143571  0.48150467  0.92133304  1
  O  O596  1  0.91417637  0.81457545  0.17244115  1
  O  O597  1  0.91136489  0.81475687  0.42250405  1
  O  O598  1  0.91230607  0.81522439  0.67222228  1
  O  O599  1  0.91319712  0.81436027  0.92274234  1
  O  O600  1  0.08703127  0.18418051  0.07822023  1
  O  O601  1  0.08826445  0.18542242  0.32749217  1
  O  O602  1  0.08702988  0.18514907  0.57782828  1
  O  O603  1  0.08754547  0.18472521  0.82785726  1
  O  O604  1  0.08631549  0.51855114  0.07779659  1
  O  O605  1  0.08609964  0.51740141  0.32646023  1
  O  O606  1  0.08514982  0.51825430  0.57757425  1
  O  O607  1  0.08544359  0.51869414  0.82710403  1
  O  O608  1  0.08770610  0.85172734  0.07858007  1
  O  O609  1  0.08644474  0.85219319  0.32781468  1
  O  O610  1  0.08592839  0.85166243  0.57682971  1
  O  O611  1  0.08698170  0.85146958  0.82785844  1
  O  O612  1  0.58740704  0.18499416  0.07771390  1
  O  O613  1  0.58896200  0.18585209  0.32643920  1
  O  O614  1  0.58668433  0.18501324  0.57723474  1
  O  O615  1  0.58979856  0.18381361  0.82764980  1
  O  O616  1  0.58669472  0.51866039  0.07815261  1
  O  O617  1  0.58861635  0.51717911  0.32691685  1
  O  O618  1  0.58695983  0.51895616  0.57716494  1
  O  O619  1  0.58823188  0.51885307  0.82694033  1
  O  O620  1  0.58688681  0.85079425  0.07874077  1
  O  O621  1  0.58573044  0.85202356  0.32747446  1
  O  O622  1  0.58741579  0.85056556  0.57721912  1
  O  O623  1  0.58866965  0.85194126  0.82777205  1
  O  O624  1  0.33622612  0.18485943  0.04853346  1
  O  O625  1  0.33568290  0.18476845  0.29765162  1
  O  O626  1  0.33525078  0.18514458  0.54869332  1
  O  O627  1  0.33504515  0.18481572  0.79776387  1
  O  O628  1  0.33830570  0.51821401  0.04800146  1
  O  O629  1  0.33646557  0.51816470  0.29749016  1
  O  O630  1  0.33735408  0.51783380  0.54808900  1
  O  O631  1  0.33741318  0.51826999  0.79669199  1
  O  O632  1  0.33663627  0.85179891  0.04731150  1
  O  O633  1  0.33763613  0.85143944  0.29781555  1
  O  O634  1  0.33476640  0.85200080  0.54806347  1
  O  O635  1  0.33616463  0.85163875  0.79756403  1
  O  O636  1  0.83781161  0.18463988  0.04802500  1
  O  O637  1  0.83875633  0.18504212  0.29752560  1
  O  O638  1  0.84020916  0.18528612  0.54780290  1
  O  O639  1  0.83926277  0.18495550  0.79768439  1
  O  O640  1  0.83942631  0.51873218  0.04782779  1
  O  O641  1  0.83763984  0.51757247  0.29722837  1
  O  O642  1  0.84034978  0.51912054  0.54735750  1
  O  O643  1  0.84016854  0.51824818  0.79690838  1
  O  O644  1  0.83624534  0.85164045  0.04804260  1
  O  O645  1  0.83919570  0.85289969  0.29782642  1
  O  O646  1  0.83934532  0.85061663  0.54745865  1
  O  O647  1  0.83908138  0.85150321  0.79653829  1
  O  O648  1  0.16203229  0.14893297  0.20292579  1
  O  O649  1  0.15900214  0.14849918  0.45300343  1
  O  O650  1  0.16013456  0.14963057  0.70276178  1
  O  O651  1  0.16056141  0.15008036  0.95355515  1
  O  O652  1  0.16295537  0.48194041  0.20298227  1
  O  O653  1  0.15973200  0.48063276  0.45193716  1
  O  O654  1  0.16084813  0.48085980  0.70115006  1
  O  O655  1  0.16228918  0.48079638  0.95251478  1
  O  O656  1  0.16299163  0.81385028  0.20207386  1
  O  O657  1  0.16113388  0.81567270  0.45304497  1
  O  O658  1  0.15979299  0.81465531  0.70199727  1
  O  O659  1  0.16071884  0.81441564  0.95217745  1
  O  O660  1  0.66485848  0.14948001  0.20283673  1
  O  O661  1  0.66393833  0.14860207  0.45234200  1
  O  O662  1  0.66484198  0.14970796  0.70267172  1
  O  O663  1  0.66263798  0.14989884  0.95216920  1
  O  O664  1  0.66405620  0.48148181  0.20282317  1
  O  O665  1  0.66275589  0.48150618  0.45169743  1
  O  O666  1  0.66585013  0.48064701  0.70176593  1
  O  O667  1  0.66326062  0.48083143  0.95249582  1
  O  O668  1  0.66127158  0.81397018  0.20249743  1
  O  O669  1  0.66442347  0.81487255  0.45250026  1
  O  O670  1  0.66364004  0.81446153  0.70150819  1
  O  O671  1  0.66122789  0.81485830  0.95211493  1
