# generated using pymatgen
data_Na2MnFe(PO4)2
_symmetry_space_group_name_H-M   'P 1'
_cell_length_a   21.08356296
_cell_length_b   18.93513231
_cell_length_c   20.04293572
_cell_angle_alpha   89.99937910
_cell_angle_beta   89.99595362
_cell_angle_gamma   89.99940094
_symmetry_Int_Tables_number   1
_chemical_formula_structural   Na2MnFe(PO4)2
_chemical_formula_sum   'Na96 Mn48 Fe48 P96 O384'
_cell_volume   8001.54186373
_cell_formula_units_Z   48
loop_
 _symmetry_equiv_pos_site_id
 _symmetry_equiv_pos_as_xyz
  1  'x, y, z'
loop_
 _atom_site_type_symbol
 _atom_site_label
 _atom_site_symmetry_multiplicity
 _atom_site_fract_x
 _atom_site_fract_y
 _atom_site_fract_z
 _atom_site_occupancy
  Na  Na0  1  0.00096079  0.00059933  -0.00007915  1
  Na  Na1  1  0.00032578  -0.00005394  0.25029665  1
  Na  Na2  1  0.00105192  0.00063914  0.49926035  1
  Na  Na3  1  0.00012237  0.00040978  0.75021683  1
  Na  Na4  1  0.00035767  0.33362173  0.00007297  1
  Na  Na5  1  -0.00176263  0.33282433  0.25001058  1
  Na  Na6  1  -0.00052755  0.33370120  0.49916821  1
  Na  Na7  1  0.00148803  0.33397177  0.75070607  1
  Na  Na8  1  0.00147088  0.66659576  0.00089497  1
  Na  Na9  1  -0.00076309  0.66683804  0.24961141  1
  Na  Na10  1  -0.00022735  0.66667092  0.50021625  1
  Na  Na11  1  0.00140840  0.66666829  0.74957023  1
  Na  Na12  1  0.49898480  -0.00014735  -0.00066792  1
  Na  Na13  1  0.49789581  -0.00108352  0.25018105  1
  Na  Na14  1  0.49993199  0.00021952  0.49932374  1
  Na  Na15  1  0.49919888  0.00002398  0.75102450  1
  Na  Na16  1  0.50052442  0.33356507  -0.00035702  1
  Na  Na17  1  0.49996374  0.33364893  0.25044144  1
  Na  Na18  1  0.50188477  0.33405047  0.50117996  1
  Na  Na19  1  0.50109804  0.33411700  0.74902928  1
  Na  Na20  1  0.50053905  0.66678913  -0.00039308  1
  Na  Na21  1  0.50021740  0.66687555  0.25113252  1
  Na  Na22  1  0.50133357  0.66725325  0.49925154  1
  Na  Na23  1  0.50189633  0.66718943  0.74991646  1
  Na  Na24  1  0.25026425  -0.00041774  0.12375765  1
  Na  Na25  1  0.25096793  -0.00026739  0.37524529  1
  Na  Na26  1  0.25027630  0.00016924  0.62440113  1
  Na  Na27  1  0.25018532  0.00040950  0.87585521  1
  Na  Na28  1  0.24882732  0.33298018  0.12450200  1
  Na  Na29  1  0.25086142  0.33360441  0.37536719  1
  Na  Na30  1  0.25091888  0.33417652  0.62592067  1
  Na  Na31  1  0.24923573  0.33339907  0.87456361  1
  Na  Na32  1  0.24932958  0.66682419  0.12565532  1
  Na  Na33  1  0.24999650  0.66694518  0.37486155  1
  Na  Na34  1  0.24838643  0.66648562  0.62521175  1
  Na  Na35  1  0.24730880  0.66553945  0.87453447  1
  Na  Na36  1  0.74956668  -0.00038763  0.12481480  1
  Na  Na37  1  0.75137203  0.00059791  0.37498363  1
  Na  Na38  1  0.74967377  -0.00001380  0.62437862  1
  Na  Na39  1  0.75028061  0.00061073  0.87583002  1
  Na  Na40  1  0.75208773  0.33429053  0.12555942  1
  Na  Na41  1  0.74912751  0.33323104  0.37493364  1
  Na  Na42  1  0.74790170  0.33281626  0.62577612  1
  Na  Na43  1  0.74798095  0.33239685  0.87394636  1
  Na  Na44  1  0.74927239  0.66647067  0.12482469  1
  Na  Na45  1  0.75036291  0.66713775  0.37524697  1
  Na  Na46  1  0.75009207  0.66635774  0.62463915  1
  Na  Na47  1  0.75000558  0.66677614  0.87503923  1
  Na  Na48  1  0.00126680  0.16568648  -0.00085981  1
  Na  Na49  1  -0.00138279  0.16697601  0.25041341  1
  Na  Na50  1  0.00016684  0.16627054  0.49932439  1
  Na  Na51  1  -0.00014282  0.16703047  0.75099952  1
  Na  Na52  1  0.00177105  0.50010379  0.00083580  1
  Na  Na53  1  -0.00051738  0.50069264  0.24957934  1
  Na  Na54  1  -0.00106920  0.50088751  0.49971848  1
  Na  Na55  1  0.00018451  0.50070790  0.75022626  1
  Na  Na56  1  -0.00034443  0.83354662  0.00108882  1
  Na  Na57  1  -0.00052329  0.83320458  0.25001609  1
  Na  Na58  1  0.00023941  0.83279228  0.49935846  1
  Na  Na59  1  0.00229039  0.83191757  0.74904736  1
  Na  Na60  1  0.50032099  0.16619332  -0.00062241  1
  Na  Na61  1  0.49982778  0.16653355  0.25116405  1
  Na  Na62  1  0.50183072  0.16619696  0.49960259  1
  Na  Na63  1  0.49999139  0.16715732  0.75005974  1
  Na  Na64  1  0.50084797  0.49961805  -0.00086368  1
  Na  Na65  1  0.49970282  0.50089237  0.25081084  1
  Na  Na66  1  0.50215337  0.49918751  0.50045770  1
  Na  Na67  1  0.50130595  0.49941486  0.74978166  1
  Na  Na68  1  0.49974254  0.83305539  0.00020512  1
  Na  Na69  1  0.49828094  0.83323369  0.24989177  1
  Na  Na70  1  0.49953408  0.83258569  0.49995216  1
  Na  Na71  1  0.49935872  0.83366190  0.75002155  1
  Na  Na72  1  0.24809887  0.16680853  0.12363624  1
  Na  Na73  1  0.25101107  0.16552087  0.37579641  1
  Na  Na74  1  0.25069301  0.16639196  0.62559641  1
  Na  Na75  1  0.24989234  0.16630143  0.87529110  1
  Na  Na76  1  0.24865104  0.50081973  0.12516408  1
  Na  Na77  1  0.25049478  0.50013840  0.37497845  1
  Na  Na78  1  0.25020387  0.49927926  0.62505579  1
  Na  Na79  1  0.24773430  0.50060067  0.87490056  1
  Na  Na80  1  0.25132055  0.83309358  0.12518958  1
  Na  Na81  1  0.25090839  0.83281364  0.37466207  1
  Na  Na82  1  0.24901804  0.83304532  0.62491916  1
  Na  Na83  1  0.25038611  0.83278285  0.87463233  1
  Na  Na84  1  0.75073799  0.16613648  0.12450166  1
  Na  Na85  1  0.74999238  0.16693323  0.37476337  1
  Na  Na86  1  0.74869506  0.16727560  0.62486359  1
  Na  Na87  1  0.74953522  0.16648892  0.87553782  1
  Na  Na88  1  0.75058800  0.50002430  0.12482438  1
  Na  Na89  1  0.75050550  0.50012442  0.37612775  1
  Na  Na90  1  0.74959082  0.50055476  0.62534678  1
  Na  Na91  1  0.74917056  0.50083716  0.87379281  1
  Na  Na92  1  0.75040587  0.83251269  0.12574368  1
  Na  Na93  1  0.75025820  0.83251081  0.37436454  1
  Na  Na94  1  0.74965475  0.83289754  0.62457473  1
  Na  Na95  1  0.74847299  0.83399519  0.87577446  1
  Mn  Mn96  1  0.10826471  0.08285802  0.37182536  1
  Mn  Mn97  1  0.35793577  0.41649214  0.25215264  1
  Mn  Mn98  1  0.39250275  0.58324724  0.37772338  1
  Mn  Mn99  1  0.60828572  0.41700495  0.12264997  1
  Mn  Mn100  1  0.64275131  0.24977511  0.24728881  1
  Mn  Mn101  1  0.85748142  0.75006226  0.00180805  1
  Mn  Mn102  1  0.89252996  0.25078606  0.87719576  1
  Mn  Mn103  1  0.35723528  0.41717267  0.00178143  1
  Mn  Mn104  1  0.60730716  0.08386694  0.87248621  1
  Mn  Mn105  1  0.89168028  0.25048700  0.37764681  1
  Mn  Mn106  1  0.89204491  0.58341651  0.12723039  1
  Mn  Mn107  1  0.64203146  0.91636069  0.49714878  1
  Mn  Mn108  1  0.85766686  0.08334473  0.50304765  1
  Mn  Mn109  1  0.35825552  0.08357601  0.50292684  1
  Mn  Mn110  1  0.64200416  0.91685125  0.24752490  1
  Mn  Mn111  1  0.35725854  0.74950377  0.75180051  1
  Mn  Mn112  1  0.10738616  0.41567824  0.12322100  1
  Mn  Mn113  1  0.14196979  0.91625480  0.99775572  1
  Mn  Mn114  1  0.89235213  0.91572417  0.87720939  1
  Mn  Mn115  1  0.14257042  0.25022022  0.74723545  1
  Mn  Mn116  1  0.85777002  0.41686807  0.00110407  1
  Mn  Mn117  1  0.89258655  0.91711238  0.62758574  1
  Mn  Mn118  1  0.85773668  0.41602398  0.75220210  1
  Mn  Mn119  1  0.14204606  0.58309883  0.49753610  1
  Mn  Mn120  1  0.89270519  0.91587113  0.37690208  1
  Mn  Mn121  1  0.64261537  0.58331122  0.24775330  1
  Mn  Mn122  1  0.64270700  0.58339180  0.74745655  1
  Mn  Mn123  1  0.39255139  0.91675116  0.62737694  1
  Mn  Mn124  1  0.10780768  0.75083456  0.12340956  1
  Mn  Mn125  1  0.35713473  0.08382631  0.00253047  1
  Mn  Mn126  1  0.14222822  0.25036730  0.49863247  1
  Mn  Mn127  1  0.14248114  0.91632752  0.49767014  1
  Mn  Mn128  1  0.14201963  0.24938053  0.24744192  1
  Mn  Mn129  1  0.60769084  0.74989663  0.87278858  1
  Mn  Mn130  1  0.85796127  0.08294877  0.00249562  1
  Mn  Mn131  1  0.35757049  0.74902359  0.00209804  1
  Mn  Mn132  1  0.64165227  0.91729358  0.74776880  1
  Mn  Mn133  1  0.39342022  0.24999581  0.62728158  1
  Mn  Mn134  1  0.14247488  0.91649336  0.74777020  1
  Mn  Mn135  1  0.85716253  0.41691062  0.50300803  1
  Mn  Mn136  1  0.39152967  0.24988268  0.12721258  1
  Mn  Mn137  1  0.39250908  0.25026545  0.37744585  1
  Mn  Mn138  1  0.64196983  0.25022336  0.99817319  1
  Mn  Mn139  1  0.10777687  0.41739691  0.37264209  1
  Mn  Mn140  1  0.39182739  0.58310986  0.87706640  1
  Mn  Mn141  1  0.39306278  0.58341016  0.62712483  1
  Mn  Mn142  1  0.85852808  0.75102703  0.75218668  1
  Mn  Mn143  1  0.60768994  0.08262208  0.37198994  1
  Fe  Fe144  1  0.60752292  0.41700657  0.62279477  1
  Fe  Fe145  1  0.39239203  0.58378155  0.12640838  1
  Fe  Fe146  1  0.85764027  0.41708951  0.25224109  1
  Fe  Fe147  1  0.85767231  0.08305452  0.25083588  1
  Fe  Fe148  1  0.10698650  0.08318782  0.12421527  1
  Fe  Fe149  1  0.39279367  0.25028640  0.87626575  1
  Fe  Fe150  1  0.60761422  0.41722154  0.37336574  1
  Fe  Fe151  1  0.14272780  0.58397349  0.24876398  1
  Fe  Fe152  1  0.60682168  0.75033326  0.12401289  1
  Fe  Fe153  1  0.39274277  0.91622180  0.12661874  1
  Fe  Fe154  1  0.85720936  0.74987896  0.50153328  1
  Fe  Fe155  1  0.35774853  0.08382457  0.75165884  1
  Fe  Fe156  1  0.14171030  0.25056077  0.99791064  1
  Fe  Fe157  1  0.60720948  0.41630622  0.87316777  1
  Fe  Fe158  1  0.60699712  0.74995363  0.37318691  1
  Fe  Fe159  1  0.89284078  0.24936792  0.12615172  1
  Fe  Fe160  1  0.60710039  0.08265492  0.12395553  1
  Fe  Fe161  1  0.35732793  0.41654583  0.75205505  1
  Fe  Fe162  1  0.14225619  0.58310782  0.99820481  1
  Fe  Fe163  1  0.10727292  0.41628037  0.62313120  1
  Fe  Fe164  1  0.64205875  0.58348625  0.99835353  1
  Fe  Fe165  1  0.64187619  0.91638721  0.99931218  1
  Fe  Fe166  1  0.64348359  0.58328206  0.49838973  1
  Fe  Fe167  1  0.85706725  0.74980333  0.25219821  1
  Fe  Fe168  1  0.89227915  0.25034033  0.62675655  1
  Fe  Fe169  1  0.10737850  0.08388682  0.62412913  1
  Fe  Fe170  1  0.89218415  0.91739328  0.12711288  1
  Fe  Fe171  1  0.35727784  0.08297289  0.25054100  1
  Fe  Fe172  1  0.10733861  0.74978089  0.37299080  1
  Fe  Fe173  1  0.35746529  0.75010275  0.25184999  1
  Fe  Fe174  1  0.10707812  0.74994840  0.62229809  1
  Fe  Fe175  1  0.85734738  0.08344277  0.75088593  1
  Fe  Fe176  1  0.35724745  0.74909427  0.50199350  1
  Fe  Fe177  1  0.10749976  0.75000169  0.87331920  1
  Fe  Fe178  1  0.14369766  0.91651861  0.24794468  1
  Fe  Fe179  1  0.64288876  0.25037264  0.49833748  1
  Fe  Fe180  1  0.10762832  0.41701492  0.87296195  1
  Fe  Fe181  1  0.64225683  0.24930426  0.74818268  1
  Fe  Fe182  1  0.14204890  0.58275635  0.74795200  1
  Fe  Fe183  1  0.89273766  0.58387066  0.37644222  1
  Fe  Fe184  1  0.60794472  0.75020126  0.62250734  1
  Fe  Fe185  1  0.89320093  0.58282916  0.62662649  1
  Fe  Fe186  1  0.10730573  0.08301409  0.87239048  1
  Fe  Fe187  1  0.60776477  0.08312770  0.62378875  1
  Fe  Fe188  1  0.89383249  0.58353685  0.87659136  1
  Fe  Fe189  1  0.39227479  0.91692623  0.87676606  1
  Fe  Fe190  1  0.35820366  0.41717594  0.50206852  1
  Fe  Fe191  1  0.39223458  0.91625785  0.37634243  1
  P  P192  1  0.05254210  0.24881325  0.10964039  1
  P  P193  1  0.05317417  0.25028223  0.35986837  1
  P  P194  1  0.05195061  0.25016676  0.61028737  1
  P  P195  1  0.05502448  0.25022698  0.86111502  1
  P  P196  1  0.05529977  0.58364461  0.11102616  1
  P  P197  1  0.05281013  0.58451684  0.35939301  1
  P  P198  1  0.05370883  0.58269472  0.61103289  1
  P  P199  1  0.05462606  0.58346038  0.86075841  1
  P  P200  1  0.05323976  0.91747196  0.11167049  1
  P  P201  1  0.05466047  0.91533008  0.35904488  1
  P  P202  1  0.05363192  0.91714735  0.60984178  1
  P  P203  1  0.05350710  0.91631813  0.86004328  1
  P  P204  1  0.55288349  0.24908570  0.11019644  1
  P  P205  1  0.55515301  0.25117024  0.36127747  1
  P  P206  1  0.55583503  0.24963270  0.61082466  1
  P  P207  1  0.55301332  0.25085874  0.85926897  1
  P  P208  1  0.55267204  0.58440850  0.10986686  1
  P  P209  1  0.55515565  0.58343300  0.36167701  1
  P  P210  1  0.55473733  0.58351354  0.60932858  1
  P  P211  1  0.55451176  0.58248940  0.86075151  1
  P  P212  1  0.55231373  0.91641366  0.11007223  1
  P  P213  1  0.55197597  0.91532982  0.35979631  1
  P  P214  1  0.55353826  0.91699972  0.60990202  1
  P  P215  1  0.55289634  0.91676429  0.86134561  1
  P  P216  1  0.44713545  0.08261860  0.14023035  1
  P  P217  1  0.44507743  0.08249310  0.38863479  1
  P  P218  1  0.44789972  0.08345260  0.64071278  1
  P  P219  1  0.44471451  0.08405379  0.88869364  1
  P  P220  1  0.44684578  0.41785649  0.13981746  1
  P  P221  1  0.44756560  0.41683033  0.39112644  1
  P  P222  1  0.44652431  0.41701823  0.63949957  1
  P  P223  1  0.44639833  0.41579326  0.88849768  1
  P  P224  1  0.44682612  0.74944002  0.14028860  1
  P  P225  1  0.44547860  0.75050045  0.38940771  1
  P  P226  1  0.44734224  0.74951246  0.63885549  1
  P  P227  1  0.44620285  0.75035549  0.88978176  1
  P  P228  1  0.94723768  0.08333469  0.14021283  1
  P  P229  1  0.94543264  0.08290145  0.38894986  1
  P  P230  1  0.94742785  0.08446718  0.64055856  1
  P  P231  1  0.94651232  0.08325544  0.88868043  1
  P  P232  1  0.94567585  0.41599966  0.14018997  1
  P  P233  1  0.94518859  0.41815833  0.38906598  1
  P  P234  1  0.94763804  0.41650923  0.63995515  1
  P  P235  1  0.94832124  0.41795613  0.88973807  1
  P  P236  1  0.94545861  0.75080874  0.14051902  1
  P  P237  1  0.94598818  0.74902875  0.38931977  1
  P  P238  1  0.94680211  0.74914556  0.63841823  1
  P  P239  1  0.94842277  0.74891680  0.89001822  1
  P  P240  1  0.19768364  0.08186708  0.23411715  1
  P  P241  1  0.19547080  0.08349073  0.48623036  1
  P  P242  1  0.19670011  0.08326670  0.73555185  1
  P  P243  1  0.19386515  0.08384450  0.98564140  1
  P  P244  1  0.19671047  0.41741599  0.23514138  1
  P  P245  1  0.19702233  0.41665043  0.48611766  1
  P  P246  1  0.19585844  0.41735826  0.73546153  1
  P  P247  1  0.19534987  0.41679904  0.98454111  1
  P  P248  1  0.19677937  0.75045607  0.23654838  1
  P  P249  1  0.19589544  0.74968046  0.48502111  1
  P  P250  1  0.19437299  0.74907929  0.73524968  1
  P  P251  1  0.19582967  0.74936946  0.98462014  1
  P  P252  1  0.69758624  0.08315004  0.23416826  1
  P  P253  1  0.69540965  0.08403826  0.48577583  1
  P  P254  1  0.69714698  0.08398195  0.73458991  1
  P  P255  1  0.69490083  0.08221791  0.98646576  1
  P  P256  1  0.69736983  0.41703796  0.23617678  1
  P  P257  1  0.69485930  0.41689347  0.48605680  1
  P  P258  1  0.69470893  0.41587954  0.73549790  1
  P  P259  1  0.69601498  0.41751569  0.98392187  1
  P  P260  1  0.69595771  0.74992824  0.23560462  1
  P  P261  1  0.69597316  0.74909487  0.48517655  1
  P  P262  1  0.69638302  0.75013129  0.73415217  1
  P  P263  1  0.69466131  0.75025401  0.98669323  1
  P  P264  1  0.30253225  0.25048740  0.01347523  1
  P  P265  1  0.30305445  0.24867132  0.26499873  1
  P  P266  1  0.30380517  0.25097681  0.51574388  1
  P  P267  1  0.30443445  0.25015595  0.76536737  1
  P  P268  1  0.30205633  0.58325428  0.01554850  1
  P  P269  1  0.30365453  0.58425615  0.26394685  1
  P  P270  1  0.30355457  0.58357233  0.51518049  1
  P  P271  1  0.30192778  0.58246812  0.76463131  1
  P  P272  1  0.30498589  0.91631403  0.01453151  1
  P  P273  1  0.30470149  0.91669791  0.26383287  1
  P  P274  1  0.30488037  0.91518099  0.51391176  1
  P  P275  1  0.30406469  0.91742225  0.76543672  1
  P  P276  1  0.80391248  0.25022270  0.01540347  1
  P  P277  1  0.80511335  0.24964372  0.26359255  1
  P  P278  1  0.80243673  0.25048687  0.51600013  1
  P  P279  1  0.80333279  0.24897851  0.76383393  1
  P  P280  1  0.80313045  0.58340646  0.01348222  1
  P  P281  1  0.80412361  0.58367659  0.26566426  1
  P  P282  1  0.80435182  0.58436401  0.51442936  1
  P  P283  1  0.80594454  0.58355372  0.76446977  1
  P  P284  1  0.80260255  0.91630461  0.01587989  1
  P  P285  1  0.80452859  0.91671359  0.26378934  1
  P  P286  1  0.80353733  0.91534443  0.51475077  1
  P  P287  1  0.80304232  0.91774851  0.76519911  1
  O  O288  1  0.05591653  0.24967665  0.18639991  1
  O  O289  1  0.05674837  0.25026605  0.43662183  1
  O  O290  1  0.05583671  0.25023240  0.68701629  1
  O  O291  1  0.05845350  0.25026455  0.93789679  1
  O  O292  1  0.05961328  0.58391351  0.18776908  1
  O  O293  1  0.05633530  0.58382157  0.43616129  1
  O  O294  1  0.05807618  0.58273769  0.68772132  1
  O  O295  1  0.05853017  0.58329227  0.93752788  1
  O  O296  1  0.05854331  0.91660665  0.18824946  1
  O  O297  1  0.05746794  0.91613642  0.43583447  1
  O  O298  1  0.05651181  0.91696197  0.68660702  1
  O  O299  1  0.05588678  0.91640526  0.93685880  1
  O  O300  1  0.55610002  0.24970431  0.18700255  1
  O  O301  1  0.55906144  0.25044997  0.43805060  1
  O  O302  1  0.55900744  0.24954295  0.68764782  1
  O  O303  1  0.55658403  0.25008503  0.93599348  1
  O  O304  1  0.55635011  0.58371573  0.18662579  1
  O  O305  1  0.55931094  0.58346532  0.43835683  1
  O  O306  1  0.55709302  0.58354600  0.68611243  1
  O  O307  1  0.55842452  0.58316851  0.93752757  1
  O  O308  1  0.55581945  0.91648859  0.18678394  1
  O  O309  1  0.55592729  0.91597553  0.43646686  1
  O  O310  1  0.55594596  0.91690316  0.68673850  1
  O  O311  1  0.55770554  0.91669138  0.93796464  1
  O  O312  1  0.44340759  0.08350591  0.06347944  1
  O  O313  1  0.44079194  0.08318720  0.31193312  1
  O  O314  1  0.44422001  0.08365153  0.56393707  1
  O  O315  1  0.44109564  0.08396939  0.81193351  1
  O  O316  1  0.44364445  0.41723257  0.06302067  1
  O  O317  1  0.44323799  0.41698504  0.31440445  1
  O  O318  1  0.44149214  0.41705393  0.56282602  1
  O  O319  1  0.44158659  0.41682266  0.81181185  1
  O  O320  1  0.44343085  0.74918995  0.06357656  1
  O  O321  1  0.44067976  0.74966641  0.31268949  1
  O  O322  1  0.44211646  0.74906890  0.56222660  1
  O  O323  1  0.44313049  0.74959178  0.81299384  1
  O  O324  1  0.94416397  0.08296004  0.06343335  1
  O  O325  1  0.94086851  0.08293803  0.31223998  1
  O  O326  1  0.94382647  0.08372221  0.56378188  1
  O  O327  1  0.94129709  0.08338694  0.81208557  1
  O  O328  1  0.94315991  0.41717625  0.06338405  1
  O  O329  1  0.94114829  0.41730759  0.31231085  1
  O  O330  1  0.94376927  0.41663085  0.56324406  1
  O  O331  1  0.94427020  0.41703605  0.81308277  1
  O  O332  1  0.94255046  0.74997373  0.06371504  1
  O  O333  1  0.94113312  0.74982213  0.31264935  1
  O  O334  1  0.94180992  0.74975018  0.56179971  1
  O  O335  1  0.94496194  0.74968454  0.81330055  1
  O  O336  1  0.18965127  0.08301535  0.06240530  1
  O  O337  1  0.19446208  0.08244718  0.31090264  1
  O  O338  1  0.19067320  0.08371333  0.56299809  1
  O  O339  1  0.19160697  0.08319794  0.81224581  1
  O  O340  1  0.19267219  0.41630013  0.06133654  1
  O  O341  1  0.19400427  0.41693951  0.31195875  1
  O  O342  1  0.19150663  0.41648419  0.56279180  1
  O  O343  1  0.19090004  0.41690053  0.81212594  1
  O  O344  1  0.19318703  0.75070491  0.06144584  1
  O  O345  1  0.19224757  0.75018535  0.31317314  1
  O  O346  1  0.19060404  0.74978252  0.56177095  1
  O  O347  1  0.19055001  0.74994494  0.81202374  1
  O  O348  1  0.69048981  0.08278181  0.06317327  1
  O  O349  1  0.69359703  0.08297121  0.31092115  1
  O  O350  1  0.69132154  0.08297481  0.56249080  1
  O  O351  1  0.69347824  0.08348177  0.81136381  1
  O  O352  1  0.69371792  0.41693992  0.06082015  1
  O  O353  1  0.69224805  0.41717220  0.31280954  1
  O  O354  1  0.69128966  0.41715782  0.56289619  1
  O  O355  1  0.69072669  0.41657851  0.81226081  1
  O  O356  1  0.69075587  0.75004510  0.06345643  1
  O  O357  1  0.69090620  0.75021519  0.31227657  1
  O  O358  1  0.69138477  0.74994740  0.56188869  1
  O  O359  1  0.69299779  0.75006870  0.81098859  1
  O  O360  1  0.30557650  0.24940337  0.18813194  1
  O  O361  1  0.30677077  0.25026988  0.43895240  1
  O  O362  1  0.30770464  0.25016937  0.68860117  1
  O  O363  1  0.30795948  0.25031397  0.93692258  1
  O  O364  1  0.30828101  0.58391365  0.18726135  1
  O  O365  1  0.30651466  0.58359665  0.43843602  1
  O  O366  1  0.30628636  0.58304520  0.68799631  1
  O  O367  1  0.30609616  0.58337023  0.93884251  1
  O  O368  1  0.30918394  0.91648076  0.18704894  1
  O  O369  1  0.30863003  0.91581989  0.43712658  1
  O  O370  1  0.30677053  0.91675459  0.68855445  1
  O  O371  1  0.30921904  0.91642386  0.93778108  1
  O  O372  1  0.80903421  0.24954365  0.18683963  1
  O  O373  1  0.80641869  0.25062120  0.43925637  1
  O  O374  1  0.80842492  0.25010977  0.68717882  1
  O  O375  1  0.80692898  0.25002351  0.93854353  1
  O  O376  1  0.80652917  0.58361137  0.18879559  1
  O  O377  1  0.80889651  0.58380831  0.43778533  1
  O  O378  1  0.81039600  0.58321823  0.68763799  1
  O  O379  1  0.80864404  0.58359615  0.93686950  1
  O  O380  1  0.80833463  0.91684564  0.18702835  1
  O  O381  1  0.80680023  0.91583183  0.43798318  1
  O  O382  1  0.80642304  0.91673644  0.68842124  1
  O  O383  1  0.80667690  0.91645238  0.93913424  1
  O  O384  1  0.23205339  0.25031701  0.03680315  1
  O  O385  1  0.23360445  0.24921124  0.29086565  1
  O  O386  1  0.23426694  0.25048484  0.54132001  1
  O  O387  1  0.23453834  0.25004180  0.78996226  1
  O  O388  1  0.23186170  0.58351077  0.03954811  1
  O  O389  1  0.23337505  0.58387544  0.28810011  1
  O  O390  1  0.23388435  0.58337120  0.54039683  1
  O  O391  1  0.23175030  0.58271120  0.78872150  1
  O  O392  1  0.23481323  0.91630621  0.03827995  1
  O  O393  1  0.23441996  0.91637891  0.28791389  1
  O  O394  1  0.23500685  0.91602549  0.53854209  1
  O  O395  1  0.23437023  0.91681023  0.79062283  1
  O  O396  1  0.73420199  0.25036528  0.04037808  1
  O  O397  1  0.73520356  0.24987887  0.28832575  1
  O  O398  1  0.73224444  0.25052879  0.53983386  1
  O  O399  1  0.73295505  0.24932190  0.78749965  1
  O  O400  1  0.73278434  0.58340688  0.03720140  1
  O  O401  1  0.73450188  0.58370561  0.29105250  1
  O  O402  1  0.73393390  0.58346559  0.53804558  1
  O  O403  1  0.73565638  0.58379564  0.78775433  1
  O  O404  1  0.73248285  0.91608668  0.04013363  1
  O  O405  1  0.73462813  0.91661977  0.28859294  1
  O  O406  1  0.73379723  0.91576459  0.53961668  1
  O  O407  1  0.73340429  0.91751910  0.79042671  1
  O  O408  1  0.26756479  0.08260338  0.20899819  1
  O  O409  1  0.26563942  0.08292880  0.46265547  1
  O  O410  1  0.26718939  0.08359765  0.71220452  1
  O  O411  1  0.26411850  0.08325389  0.96203050  1
  O  O412  1  0.26621659  0.41700182  0.20944680  1
  O  O413  1  0.26742605  0.41709652  0.46269902  1
  O  O414  1  0.26643498  0.41659053  0.71235356  1
  O  O415  1  0.26498605  0.41708041  0.95909105  1
  O  O416  1  0.26704716  0.75055823  0.21236093  1
  O  O417  1  0.26632195  0.74934643  0.46184069  1
  O  O418  1  0.26445254  0.74988573  0.71099132  1
  O  O419  1  0.26543267  0.74931546  0.95924217  1
  O  O420  1  0.76770202  0.08290511  0.20998016  1
  O  O421  1  0.76541234  0.08375386  0.46143020  1
  O  O422  1  0.76711306  0.08366138  0.70978012  1
  O  O423  1  0.76499023  0.08317257  0.96235152  1
  O  O424  1  0.76772382  0.41732352  0.21259978  1
  O  O425  1  0.76488814  0.41682718  0.46172493  1
  O  O426  1  0.76483263  0.41659623  0.71137947  1
  O  O427  1  0.76552619  0.41667935  0.95810253  1
  O  O428  1  0.76643606  0.74953657  0.21240077  1
  O  O429  1  0.76636886  0.74965865  0.46154344  1
  O  O430  1  0.76622465  0.74971527  0.70954987  1
  O  O431  1  0.76454593  0.75035307  0.96180707  1
  O  O432  1  0.01720859  0.08341942  0.16532421  1
  O  O433  1  0.01561292  0.08289631  0.41255389  1
  O  O434  1  0.01753422  0.08382908  0.66509614  1
  O  O435  1  0.01695485  0.08322682  0.91201230  1
  O  O436  1  0.01536819  0.41662959  0.16551349  1
  O  O437  1  0.01513103  0.41778352  0.41350428  1
  O  O438  1  0.01765419  0.41679331  0.66468874  1
  O  O439  1  0.01833350  0.41730866  0.91422501  1
  O  O440  1  0.01531736  0.75020945  0.16524197  1
  O  O441  1  0.01641912  0.74963170  0.41280849  1
  O  O442  1  0.01727275  0.74930328  0.66188255  1
  O  O443  1  0.01827830  0.74950131  0.91506832  1
  O  O444  1  0.51720750  0.08255189  0.16494323  1
  O  O445  1  0.51515098  0.08297122  0.41270728  1
  O  O446  1  0.51794093  0.08350567  0.66517748  1
  O  O447  1  0.51464901  0.08362508  0.91322558  1
  O  O448  1  0.51649427  0.41754460  0.16517264  1
  O  O449  1  0.51778144  0.41694494  0.41493407  1
  O  O450  1  0.51717021  0.41689717  0.66227606  1
  O  O451  1  0.51666844  0.41596782  0.91237815  1
  O  O452  1  0.51695620  0.75006592  0.16498277  1
  O  O453  1  0.51599551  0.74985734  0.41269715  1
  O  O454  1  0.51773005  0.74993529  0.66231854  1
  O  O455  1  0.51583892  0.75001774  0.91492024  1
  O  O456  1  0.48329603  0.24964490  0.08473228  1
  O  O457  1  0.48519784  0.25064879  0.33688350  1
  O  O458  1  0.48591795  0.24995876  0.58603663  1
  O  O459  1  0.48302447  0.25058121  0.83461806  1
  O  O460  1  0.48261276  0.58376919  0.08513001  1
  O  O461  1  0.48515716  0.58368920  0.33738461  1
  O  O462  1  0.48513918  0.58328213  0.58373788  1
  O  O463  1  0.48463716  0.58308472  0.83605224  1
  O  O464  1  0.48211612  0.91618809  0.08560720  1
  O  O465  1  0.48194482  0.91567003  0.33538143  1
  O  O466  1  0.48404416  0.91672226  0.58412207  1
  O  O467  1  0.48260528  0.91705172  0.83748326  1
  O  O468  1  0.98255580  0.24935312  0.08478628  1
  O  O469  1  0.98334013  0.25014011  0.33539133  1
  O  O470  1  0.98200263  0.25009309  0.58529839  1
  O  O471  1  0.98512056  0.25033713  0.83643861  1
  O  O472  1  0.98510400  0.58357129  0.08724963  1
  O  O473  1  0.98276856  0.58412560  0.33490904  1
  O  O474  1  0.98343377  0.58302484  0.58690271  1
  O  O475  1  0.98447297  0.58356562  0.83626524  1
  O  O476  1  0.98286596  0.91712758  0.08793139  1
  O  O477  1  0.98486515  0.91606711  0.33431389  1
  O  O478  1  0.98405863  0.91701778  0.58420124  1
  O  O479  1  0.98408345  0.91615869  0.83407907  1
  O  O480  1  0.08689064  0.31369983  0.07684475  1
  O  O481  1  0.08687273  0.31543051  0.32728632  1
  O  O482  1  0.08580678  0.31541180  0.57769516  1
  O  O483  1  0.08868216  0.31538283  0.82831534  1
  O  O484  1  0.08883120  0.64858093  0.07776500  1
  O  O485  1  0.08678205  0.64966087  0.32689349  1
  O  O486  1  0.08725565  0.64765006  0.57777212  1
  O  O487  1  0.08828039  0.64850845  0.82771947  1
  O  O488  1  0.08641957  0.98256489  0.07845776  1
  O  O489  1  0.08933949  0.97995175  0.32624135  1
  O  O490  1  0.08766359  0.98249204  0.57791163  1
  O  O491  1  0.08782221  0.98144983  0.82782990  1
  O  O492  1  0.58729147  0.31412040  0.07787964  1
  O  O493  1  0.58854729  0.31655780  0.32858856  1
  O  O494  1  0.58977383  0.31479543  0.57824815  1
  O  O495  1  0.58722178  0.31575060  0.82676035  1
  O  O496  1  0.58641381  0.64972443  0.07752869  1
  O  O497  1  0.58865730  0.64858659  0.32862678  1
  O  O498  1  0.58906224  0.64851599  0.57696224  1
  O  O499  1  0.58857737  0.64732813  0.82771487  1
  O  O500  1  0.58612214  0.98142536  0.07718472  1
  O  O501  1  0.58585641  0.98030378  0.32681351  1
  O  O502  1  0.58752930  0.98238522  0.57791796  1
  O  O503  1  0.58633095  0.98175960  0.82799303  1
  O  O504  1  0.41304588  0.01746588  0.17246440  1
  O  O505  1  0.41190234  0.01703284  0.42136639  1
  O  O506  1  0.41375219  0.01851175  0.67326623  1
  O  O507  1  0.41077443  0.01914682  0.92157996  1
  O  O508  1  0.41261672  0.35276993  0.17226112  1
  O  O509  1  0.41381761  0.35186023  0.42411219  1
  O  O510  1  0.41332175  0.35205724  0.67304069  1
  O  O511  1  0.41312798  0.35056329  0.92153829  1
  O  O512  1  0.41317805  0.68429694  0.17321705  1
  O  O513  1  0.41198137  0.68569072  0.42317867  1
  O  O514  1  0.41431579  0.68450355  0.67265702  1
  O  O515  1  0.41213620  0.68525513  0.92240651  1
  O  O516  1  0.91304368  0.01847768  0.17302743  1
  O  O517  1  0.91216716  0.01777205  0.42218526  1
  O  O518  1  0.91310460  0.01963897  0.67340639  1
  O  O519  1  0.91340529  0.01817861  0.92226688  1
  O  O520  1  0.91187982  0.35052696  0.17196910  1
  O  O521  1  0.91130831  0.35337723  0.42243535  1
  O  O522  1  0.91395641  0.35129695  0.67272646  1
  O  O523  1  0.91415265  0.35308513  0.92252175  1
  O  O524  1  0.91106356  0.68593318  0.17318194  1
  O  O525  1  0.91280524  0.68383617  0.42257375  1
  O  O526  1  0.91374339  0.68410185  0.67179579  1
  O  O527  1  0.91463845  0.68369799  0.92247777  1
  O  O528  1  0.16385569  0.01660388  0.20171444  1
  O  O529  1  0.16202203  0.01852872  0.45290129  1
  O  O530  1  0.16345565  0.01831979  0.70204897  1
  O  O531  1  0.16028505  0.01887808  0.95216338  1
  O  O532  1  0.16237139  0.35231859  0.20283339  1
  O  O533  1  0.16385121  0.35166295  0.45266510  1
  O  O534  1  0.16233614  0.35244998  0.70181344  1
  O  O535  1  0.16106696  0.35195056  0.95186527  1
  O  O536  1  0.16327768  0.68550150  0.20333439  1
  O  O537  1  0.16232148  0.68476287  0.45165385  1
  O  O538  1  0.16111135  0.68367100  0.70253843  1
  O  O539  1  0.16149297  0.68413729  0.95290938  1
  O  O540  1  0.66338740  0.01825059  0.20147085  1
  O  O541  1  0.66180721  0.01909941  0.45222328  1
  O  O542  1  0.66292461  0.01911636  0.70171982  1
  O  O543  1  0.66193467  0.01671226  0.95362128  1
  O  O544  1  0.66426874  0.35202192  0.20260363  1
  O  O545  1  0.66120350  0.35177100  0.45320987  1
  O  O546  1  0.66130209  0.35062088  0.70284294  1
  O  O547  1  0.66109944  0.35263104  0.95179584  1
  O  O548  1  0.66239531  0.68507943  0.20219291  1
  O  O549  1  0.66286899  0.68377358  0.45218596  1
  O  O550  1  0.66209663  0.68528293  0.70151114  1
  O  O551  1  0.66116220  0.68512379  0.95359414  1
  O  O552  1  0.33561750  0.31551778  0.04699619  1
  O  O553  1  0.33772721  0.31363145  0.29721899  1
  O  O554  1  0.33787372  0.31621962  0.54774373  1
  O  O555  1  0.33833243  0.31537731  0.79790122  1
  O  O556  1  0.33602643  0.64811414  0.04861343  1
  O  O557  1  0.33689316  0.64940643  0.29712162  1
  O  O558  1  0.33744925  0.64889983  0.54758106  1
  O  O559  1  0.33547588  0.64755164  0.79771135  1
  O  O560  1  0.33857885  0.98125775  0.04778944  1
  O  O561  1  0.33793864  0.98194010  0.29693431  1
  O  O562  1  0.33895225  0.97999294  0.54697438  1
  O  O563  1  0.33803156  0.98265925  0.79755149  1
  O  O564  1  0.83831847  0.31517052  0.04753123  1
  O  O565  1  0.83865786  0.31486591  0.29657685  1
  O  O566  1  0.83619587  0.31540704  0.54912915  1
  O  O567  1  0.83666305  0.31395595  0.79757973  1
  O  O568  1  0.83642258  0.64828732  0.04721181  1
  O  O569  1  0.83834561  0.64890114  0.29787531  1
  O  O570  1  0.83743287  0.64964171  0.54755333  1
  O  O571  1  0.83952688  0.64848458  0.79772167  1
  O  O572  1  0.83654690  0.98136951  0.04864743  1
  O  O573  1  0.83819496  0.98182251  0.29656099  1
  O  O574  1  0.83759660  0.98038707  0.54737407  1
  O  O575  1  0.83706085  0.98304251  0.79711137  1
  O  O576  1  0.41308130  0.14745975  0.17326158  1
  O  O577  1  0.41158399  0.14739170  0.42221386  1
  O  O578  1  0.41374538  0.14834640  0.67339932  1
  O  O579  1  0.41151091  0.14952920  0.92159339  1
  O  O580  1  0.41293537  0.48315423  0.17201495  1
  O  O581  1  0.41374408  0.48182832  0.42410583  1
  O  O582  1  0.41341072  0.48199087  0.67315806  1
  O  O583  1  0.41304100  0.48075631  0.92213148  1
  O  O584  1  0.41253311  0.81441513  0.17279051  1
  O  O585  1  0.41236781  0.81570229  0.42247475  1
  O  O586  1  0.41372383  0.81445140  0.67199302  1
  O  O587  1  0.41224210  0.81549413  0.92198201  1
  O  O588  1  0.91309938  0.14848563  0.17243450  1
  O  O589  1  0.91198871  0.14788530  0.42231283  1
  O  O590  1  0.91364557  0.14963852  0.67308845  1
  O  O591  1  0.91335167  0.14828802  0.92221432  1
  O  O592  1  0.91105862  0.48075532  0.17288445  1
  O  O593  1  0.91183006  0.48354368  0.42169078  1
  O  O594  1  0.91361571  0.48151243  0.67255036  1
  O  O595  1  0.91486493  0.48325797  0.92236155  1
  O  O596  1  0.91159420  0.81598861  0.17280485  1
  O  O597  1  0.91226609  0.81377682  0.42298642  1
  O  O598  1  0.91386392  0.81427988  0.67221611  1
  O  O599  1  0.91409493  0.81379387  0.92269277  1
  O  O600  1  0.08650782  0.18365518  0.07748213  1
  O  O601  1  0.08706769  0.18520619  0.32719300  1
  O  O602  1  0.08599270  0.18504880  0.57789678  1
  O  O603  1  0.08865035  0.18509159  0.82820525  1
  O  O604  1  0.08881688  0.51861825  0.07792168  1
  O  O605  1  0.08714130  0.51975065  0.32656034  1
  O  O606  1  0.08678712  0.51742249  0.57780975  1
  O  O607  1  0.08815527  0.51836298  0.82743722  1
  O  O608  1  0.08665197  0.85252866  0.07800693  1
  O  O609  1  0.08836389  0.84991723  0.32689994  1
  O  O610  1  0.08781218  0.85196539  0.57752006  1
  O  O611  1  0.08789683  0.85116581  0.82812470  1
  O  O612  1  0.58672022  0.18376556  0.07809240  1
  O  O613  1  0.58896685  0.18623895  0.32808691  1
  O  O614  1  0.58941004  0.18446769  0.57799550  1
  O  O615  1  0.58719161  0.18588142  0.82640307  1
  O  O616  1  0.58716358  0.51970157  0.07694199  1
  O  O617  1  0.58845249  0.51816620  0.32852081  1
  O  O618  1  0.58925714  0.51839110  0.57730672  1
  O  O619  1  0.58799595  0.51724193  0.82806916  1
  O  O620  1  0.58627739  0.85131286  0.07749586  1
  O  O621  1  0.58569463  0.85018089  0.32725178  1
  O  O622  1  0.58791987  0.85195658  0.57764685  1
  O  O623  1  0.58613565  0.85179260  0.82783228  1
  O  O624  1  0.33566639  0.18551402  0.04723680  1
  O  O625  1  0.33710542  0.18329666  0.29672382  1
  O  O626  1  0.33822099  0.18598529  0.54815537  1
  O  O627  1  0.33849015  0.18514060  0.79792500  1
  O  O628  1  0.33581558  0.51823020  0.04836218  1
  O  O629  1  0.33725748  0.51931821  0.29733174  1
  O  O630  1  0.33784552  0.51857503  0.54751002  1
  O  O631  1  0.33555035  0.51739867  0.79755357  1
  O  O632  1  0.33852805  0.85133828  0.04775731  1
  O  O633  1  0.33841870  0.85176418  0.29716333  1
  O  O634  1  0.33798841  0.84965472  0.54659558  1
  O  O635  1  0.33861799  0.85249058  0.79779468  1
  O  O636  1  0.83819838  0.18523696  0.04785611  1
  O  O637  1  0.83834514  0.18423318  0.29646796  1
  O  O638  1  0.83632579  0.18551922  0.54880868  1
  O  O639  1  0.83648513  0.18375918  0.79685389  1
  O  O640  1  0.83640210  0.51831062  0.04681645  1
  O  O641  1  0.83855415  0.51879040  0.29805616  1
  O  O642  1  0.83806506  0.51962140  0.54820506  1
  O  O643  1  0.83923531  0.51847543  0.79785089  1
  O  O644  1  0.83683172  0.85148834  0.04851924  1
  O  O645  1  0.83811384  0.85133999  0.29648162  1
  O  O646  1  0.83742574  0.85013551  0.54706450  1
  O  O647  1  0.83706004  0.85257549  0.79789463  1
  O  O648  1  0.16295329  0.14661843  0.20157954  1
  O  O649  1  0.16244649  0.14865941  0.45284505  1
  O  O650  1  0.16319419  0.14822206  0.70210440  1
  O  O651  1  0.16067370  0.14902408  0.95259157  1
  O  O652  1  0.16252238  0.48259411  0.20329364  1
  O  O653  1  0.16363409  0.48168408  0.45271627  1
  O  O654  1  0.16275249  0.48241451  0.70199890  1
  O  O655  1  0.16108355  0.48209413  0.95254954  1
  O  O656  1  0.16352008  0.81563390  0.20311977  1
  O  O657  1  0.16272267  0.81463178  0.45143311  1
  O  O658  1  0.16037080  0.81382716  0.70187704  1
  O  O659  1  0.16151604  0.81420561  0.95177828  1
  O  O660  1  0.66371611  0.14809017  0.20137006  1
  O  O661  1  0.66206888  0.14946479  0.45326192  1
  O  O662  1  0.66302916  0.14897048  0.70212551  1
  O  O663  1  0.66110661  0.14711338  0.95315280  1
  O  O664  1  0.66404030  0.48198683  0.20265136  1
  O  O665  1  0.66132290  0.48201360  0.45295635  1
  O  O666  1  0.66087831  0.48070467  0.70211079  1
  O  O667  1  0.66178173  0.48271339  0.95202576  1
  O  O668  1  0.66270060  0.81487659  0.20197780  1
  O  O669  1  0.66216164  0.81376054  0.45137688  1
  O  O670  1  0.66240348  0.81527399  0.70170935  1
  O  O671  1  0.66108697  0.81562550  0.95403202  1
