# generated using pymatgen
data_Na2MnFe(PO4)2
_symmetry_space_group_name_H-M   'P 1'
_cell_length_a   21.08053414
_cell_length_b   18.93172947
_cell_length_c   20.03971732
_cell_angle_alpha   90.00022774
_cell_angle_beta   89.99976648
_cell_angle_gamma   89.99978080
_symmetry_Int_Tables_number   1
_chemical_formula_structural   Na2MnFe(PO4)2
_chemical_formula_sum   'Na96 Mn48 Fe48 P96 O384'
_cell_volume   7997.67021250
_cell_formula_units_Z   48
loop_
 _symmetry_equiv_pos_site_id
 _symmetry_equiv_pos_as_xyz
  1  'x, y, z'
loop_
 _atom_site_type_symbol
 _atom_site_label
 _atom_site_symmetry_multiplicity
 _atom_site_fract_x
 _atom_site_fract_y
 _atom_site_fract_z
 _atom_site_occupancy
  Na  Na0  1  -0.00171305  -0.00126073  0.00029784  1
  Na  Na1  1  0.00074546  0.00010108  0.25004112  1
  Na  Na2  1  0.00159231  0.00012032  0.50059686  1
  Na  Na3  1  0.00206059  0.00033898  0.74914390  1
  Na  Na4  1  0.00169683  0.33391939  -0.00092373  1
  Na  Na5  1  -0.00112990  0.33309066  0.25072609  1
  Na  Na6  1  -0.00066234  0.33380656  0.50067708  1
  Na  Na7  1  -0.00017470  0.33311788  0.74977455  1
  Na  Na8  1  0.00182076  0.66711566  -0.00039311  1
  Na  Na9  1  0.00068168  0.66643794  0.24992950  1
  Na  Na10  1  -0.00117287  0.66573320  0.50121911  1
  Na  Na11  1  0.00128322  0.66702716  0.75018620  1
  Na  Na12  1  0.49907360  -0.00018875  0.00068980  1
  Na  Na13  1  0.49928064  -0.00023058  0.24962160  1
  Na  Na14  1  0.50023987  -0.00023817  0.49977710  1
  Na  Na15  1  0.49936310  -0.00058688  0.74968297  1
  Na  Na16  1  0.50029117  0.33415543  0.00000778  1
  Na  Na17  1  0.49918625  0.33297407  0.25003280  1
  Na  Na18  1  0.50142793  0.33440125  0.49947154  1
  Na  Na19  1  0.50045934  0.33403988  0.75005117  1
  Na  Na20  1  0.49892580  0.66674855  -0.00023258  1
  Na  Na21  1  0.50112551  0.66735582  0.24971992  1
  Na  Na22  1  0.49858859  0.66618406  0.49958126  1
  Na  Na23  1  0.49849651  0.66683099  0.75052791  1
  Na  Na24  1  0.25139219  0.00048722  0.12520443  1
  Na  Na25  1  0.24704790  -0.00131151  0.37472234  1
  Na  Na26  1  0.24858665  -0.00071507  0.62432899  1
  Na  Na27  1  0.25133066  0.00032923  0.87520803  1
  Na  Na28  1  0.25078096  0.33403757  0.12609305  1
  Na  Na29  1  0.24978845  0.33352440  0.37432046  1
  Na  Na30  1  0.24867064  0.33341817  0.62428680  1
  Na  Na31  1  0.24850149  0.33254861  0.87542118  1
  Na  Na32  1  0.24663868  0.66552990  0.12390185  1
  Na  Na33  1  0.24859432  0.66627364  0.37469324  1
  Na  Na34  1  0.25035733  0.66634349  0.62621192  1
  Na  Na35  1  0.25091597  0.66705997  0.87470653  1
  Na  Na36  1  0.75232586  0.00075580  0.12507976  1
  Na  Na37  1  0.75058114  -0.00038111  0.37388056  1
  Na  Na38  1  0.75000507  -0.00008486  0.62628076  1
  Na  Na39  1  0.75054915  -0.00037964  0.87478710  1
  Na  Na40  1  0.74962168  0.33348022  0.12401548  1
  Na  Na41  1  0.75032208  0.33401038  0.37591347  1
  Na  Na42  1  0.75026122  0.33402206  0.62469006  1
  Na  Na43  1  0.74982802  0.33411666  0.87558479  1
  Na  Na44  1  0.74960701  0.66654582  0.12474997  1
  Na  Na45  1  0.75154438  0.66720410  0.37566539  1
  Na  Na46  1  0.75057772  0.66692615  0.62492994  1
  Na  Na47  1  0.75046199  0.66780115  0.87512031  1
  Na  Na48  1  -0.00057451  0.16744022  -0.00016810  1
  Na  Na49  1  0.00001033  0.16673755  0.24966405  1
  Na  Na50  1  -0.00013669  0.16717341  0.50111863  1
  Na  Na51  1  0.00075469  0.16710749  0.74965637  1
  Na  Na52  1  0.00242510  0.49939287  -0.00032478  1
  Na  Na53  1  -0.00081997  0.50033396  0.25067487  1
  Na  Na54  1  -0.00021281  0.50002159  0.50057990  1
  Na  Na55  1  0.00193251  0.49986990  0.74994962  1
  Na  Na56  1  0.00086086  0.83253760  -0.00048796  1
  Na  Na57  1  0.00117507  0.83291569  0.25047528  1
  Na  Na58  1  0.00008447  0.83322291  0.50081041  1
  Na  Na59  1  0.00025664  0.83281097  0.74942935  1
  Na  Na60  1  0.49884739  0.16738603  0.00104396  1
  Na  Na61  1  0.49992389  0.16698666  0.24929269  1
  Na  Na62  1  0.49905814  0.16785656  0.49990281  1
  Na  Na63  1  0.50140448  0.16585526  0.74980513  1
  Na  Na64  1  0.50086781  0.49891551  -0.00021633  1
  Na  Na65  1  0.50065099  0.49924395  0.24998430  1
  Na  Na66  1  0.50024789  0.49899434  0.49957585  1
  Na  Na67  1  0.49778412  0.50084260  0.75023542  1
  Na  Na68  1  0.49899920  0.83265788  -0.00032707  1
  Na  Na69  1  0.50012590  0.83313141  0.24996165  1
  Na  Na70  1  0.50127097  0.83267927  0.49954071  1
  Na  Na71  1  0.49945794  0.83295051  0.75015775  1
  Na  Na72  1  0.25079841  0.16690084  0.12686880  1
  Na  Na73  1  0.25009451  0.16710398  0.37388513  1
  Na  Na74  1  0.24787725  0.16808664  0.62407995  1
  Na  Na75  1  0.25034862  0.16714066  0.87492993  1
  Na  Na76  1  0.24861995  0.50024408  0.12432681  1
  Na  Na77  1  0.24680545  0.50112546  0.37490246  1
  Na  Na78  1  0.25002716  0.49988342  0.62572594  1
  Na  Na79  1  0.24913678  0.50076641  0.87446551  1
  Na  Na80  1  0.24868830  0.83384159  0.12401263  1
  Na  Na81  1  0.24862864  0.83335780  0.37501263  1
  Na  Na82  1  0.24939805  0.83365483  0.62506080  1
  Na  Na83  1  0.25075128  0.83295714  0.87580793  1
  Na  Na84  1  0.75018701  0.16754308  0.12412245  1
  Na  Na85  1  0.75123035  0.16672294  0.37516849  1
  Na  Na86  1  0.75148109  0.16653598  0.62564557  1
  Na  Na87  1  0.75169924  0.16612907  0.87469479  1
  Na  Na88  1  0.75011213  0.49935450  0.12508450  1
  Na  Na89  1  0.75097821  0.49877355  0.37537355  1
  Na  Na90  1  0.75035873  0.49934639  0.62458516  1
  Na  Na91  1  0.74920007  0.49987939  0.87551235  1
  Na  Na92  1  0.75043803  0.83283073  0.12459533  1
  Na  Na93  1  0.75060176  0.83295586  0.37467888  1
  Na  Na94  1  0.74923205  0.83252946  0.62554538  1
  Na  Na95  1  0.74995016  0.83230817  0.87538475  1
  Mn  Mn96  1  0.10802767  0.41675052  0.12316757  1
  Mn  Mn97  1  0.10842547  0.08322404  0.87314009  1
  Mn  Mn98  1  0.89344130  0.58302558  0.87708426  1
  Mn  Mn99  1  0.89214513  0.25004325  0.12725508  1
  Mn  Mn100  1  0.35670862  0.08352274  0.50154975  1
  Mn  Mn101  1  0.60837289  0.08311033  0.62189813  1
  Mn  Mn102  1  0.35789263  0.08362224  0.75214607  1
  Mn  Mn103  1  0.64218782  0.58382836  0.49792688  1
  Mn  Mn104  1  0.10729126  0.74977269  0.37292686  1
  Mn  Mn105  1  0.35739261  0.08317345  0.25329959  1
  Mn  Mn106  1  0.64184320  0.58381787  0.99763590  1
  Mn  Mn107  1  0.35706920  0.41695109  0.50140534  1
  Mn  Mn108  1  0.14260940  0.91738156  0.99713665  1
  Mn  Mn109  1  0.64279632  0.24909452  0.49770961  1
  Mn  Mn110  1  0.64137805  0.58311641  0.74786508  1
  Mn  Mn111  1  0.10819450  0.41687248  0.62306918  1
  Mn  Mn112  1  0.10851164  0.08338973  0.62263257  1
  Mn  Mn113  1  0.64228308  0.91716960  0.24756972  1
  Mn  Mn114  1  0.64264554  0.58272722  0.24791699  1
  Mn  Mn115  1  0.89296919  0.58362744  0.12697771  1
  Mn  Mn116  1  0.35677422  0.74947873  0.25142032  1
  Mn  Mn117  1  0.89270279  0.91665965  0.37810102  1
  Mn  Mn118  1  0.85813590  0.41710338  0.00186551  1
  Mn  Mn119  1  0.35727903  0.41642304  0.00208711  1
  Mn  Mn120  1  0.89220801  0.91648364  0.62714720  1
  Mn  Mn121  1  0.64145499  0.91634451  0.74837619  1
  Mn  Mn122  1  0.64207310  0.24935988  0.99738643  1
  Mn  Mn123  1  0.39207985  0.91618766  0.62661592  1
  Mn  Mn124  1  0.60797081  0.74975716  0.37289256  1
  Mn  Mn125  1  0.85824291  0.08321543  0.75323270  1
  Mn  Mn126  1  0.14225424  0.25021466  0.24811494  1
  Mn  Mn127  1  0.39200995  0.91646814  0.12753328  1
  Mn  Mn128  1  0.35733229  0.74978505  0.50216810  1
  Mn  Mn129  1  0.60810675  0.08397200  0.37302030  1
  Mn  Mn130  1  0.39134891  0.58299932  0.37681422  1
  Mn  Mn131  1  0.60773328  0.08336846  0.12237507  1
  Mn  Mn132  1  0.10830420  0.74978118  0.62326092  1
  Mn  Mn133  1  0.10785457  0.08309191  0.12197498  1
  Mn  Mn134  1  0.39174621  0.58271689  0.12733277  1
  Mn  Mn135  1  0.64262087  0.91683968  0.99790173  1
  Mn  Mn136  1  0.39174408  0.25062645  0.62688057  1
  Mn  Mn137  1  0.89282935  0.91679809  0.87702699  1
  Mn  Mn138  1  0.85829369  0.08422399  0.25270518  1
  Mn  Mn139  1  0.64263693  0.25039206  0.74840701  1
  Mn  Mn140  1  0.89249449  0.25019580  0.62749619  1
  Mn  Mn141  1  0.39188946  0.24977559  0.87729355  1
  Mn  Mn142  1  0.89210192  0.58331843  0.62784287  1
  Mn  Mn143  1  0.85842778  0.74908539  0.25200550  1
  Fe  Fe144  1  0.35723257  0.41663844  0.75156534  1
  Fe  Fe145  1  0.60706353  0.41685127  0.12394103  1
  Fe  Fe146  1  0.14199265  0.25040847  0.49665683  1
  Fe  Fe147  1  0.39233976  0.91655213  0.87625690  1
  Fe  Fe148  1  0.14280098  0.58297859  0.99731945  1
  Fe  Fe149  1  0.64306802  0.91683827  0.49848533  1
  Fe  Fe150  1  0.14147276  0.58358251  0.24844829  1
  Fe  Fe151  1  0.60766757  0.41636614  0.37276226  1
  Fe  Fe152  1  0.39200091  0.91704462  0.37680656  1
  Fe  Fe153  1  0.60693580  0.41752908  0.62370842  1
  Fe  Fe154  1  0.85718147  0.41639335  0.25196405  1
  Fe  Fe155  1  0.89281933  0.58280654  0.37699494  1
  Fe  Fe156  1  0.60631564  0.75002609  0.87334622  1
  Fe  Fe157  1  0.39312213  0.24986076  0.37651449  1
  Fe  Fe158  1  0.35718344  0.41744614  0.25197523  1
  Fe  Fe159  1  0.64277961  0.25027019  0.24861708  1
  Fe  Fe160  1  0.60681405  0.41680575  0.87267529  1
  Fe  Fe161  1  0.85716069  0.41671689  0.50196594  1
  Fe  Fe162  1  0.89378754  0.25032079  0.87645436  1
  Fe  Fe163  1  0.60754418  0.74944949  0.12284895  1
  Fe  Fe164  1  0.39257240  0.25068401  0.12663229  1
  Fe  Fe165  1  0.35762468  0.75005964  0.75190194  1
  Fe  Fe166  1  0.10597823  0.41638079  0.37341160  1
  Fe  Fe167  1  0.35659669  0.74998966  0.00197275  1
  Fe  Fe168  1  0.85807662  0.08273149  0.50138914  1
  Fe  Fe169  1  0.85728442  0.41745308  0.75235560  1
  Fe  Fe170  1  0.35807760  0.08363935  0.00139558  1
  Fe  Fe171  1  0.14309885  0.25001327  0.99865729  1
  Fe  Fe172  1  0.10728663  0.75036852  0.12270514  1
  Fe  Fe173  1  0.14358808  0.91649804  0.74896656  1
  Fe  Fe174  1  0.10673020  0.08416525  0.37366178  1
  Fe  Fe175  1  0.14227571  0.91610759  0.24792112  1
  Fe  Fe176  1  0.14225423  0.91657051  0.49758678  1
  Fe  Fe177  1  0.10804142  0.74993783  0.87267684  1
  Fe  Fe178  1  0.89243092  0.25030633  0.37681103  1
  Fe  Fe179  1  0.60689550  0.74916862  0.62357224  1
  Fe  Fe180  1  0.89325276  0.91604970  0.12646855  1
  Fe  Fe181  1  0.85783314  0.08271820  0.00138421  1
  Fe  Fe182  1  0.39236116  0.58351911  0.87685830  1
  Fe  Fe183  1  0.85684471  0.74922392  0.75233774  1
  Fe  Fe184  1  0.60732302  0.08304269  0.87423988  1
  Fe  Fe185  1  0.14263278  0.24999571  0.74868855  1
  Fe  Fe186  1  0.85712870  0.75040768  0.50220915  1
  Fe  Fe187  1  0.39203443  0.58317745  0.62620829  1
  Fe  Fe188  1  0.10803671  0.41656694  0.87257769  1
  Fe  Fe189  1  0.14432287  0.58360471  0.74853584  1
  Fe  Fe190  1  0.85799467  0.75035543  0.00171476  1
  Fe  Fe191  1  0.14221149  0.58319470  0.49834837  1
  P  P192  1  0.05397296  0.25024270  0.10919775  1
  P  P193  1  0.05274131  0.25038406  0.36136264  1
  P  P194  1  0.05564924  0.25038265  0.61038973  1
  P  P195  1  0.05462728  0.25054888  0.86052237  1
  P  P196  1  0.05556708  0.58402573  0.11022992  1
  P  P197  1  0.05347174  0.58239104  0.36108989  1
  P  P198  1  0.05548446  0.58342598  0.61093394  1
  P  P199  1  0.05628520  0.58344368  0.86032053  1
  P  P200  1  0.05364713  0.91583999  0.11072061  1
  P  P201  1  0.05498504  0.91742448  0.36064113  1
  P  P202  1  0.05566590  0.91622072  0.61064204  1
  P  P203  1  0.05436999  0.91579002  0.85910361  1
  P  P204  1  0.55349755  0.25120528  0.11129360  1
  P  P205  1  0.55328196  0.25058727  0.35935312  1
  P  P206  1  0.55354216  0.25130694  0.61002660  1
  P  P207  1  0.55311835  0.24969036  0.86028974  1
  P  P208  1  0.55323063  0.58285763  0.11001653  1
  P  P209  1  0.55321738  0.58252803  0.35991949  1
  P  P210  1  0.55165832  0.58347986  0.61027108  1
  P  P211  1  0.55184910  0.58367224  0.86022264  1
  P  P212  1  0.55335911  0.91581152  0.10972049  1
  P  P213  1  0.55324700  0.91701234  0.36092515  1
  P  P214  1  0.55407947  0.91519711  0.60932880  1
  P  P215  1  0.55181810  0.91652481  0.86070228  1
  P  P216  1  0.44500436  0.08429013  0.13913928  1
  P  P217  1  0.44652793  0.08366701  0.38994544  1
  P  P218  1  0.44673822  0.08333828  0.63958022  1
  P  P219  1  0.44728302  0.08264477  0.89049920  1
  P  P220  1  0.44660216  0.41616291  0.14048284  1
  P  P221  1  0.44659129  0.41587174  0.38859480  1
  P  P222  1  0.44657561  0.41735275  0.64011393  1
  P  P223  1  0.44610547  0.41728620  0.88868985  1
  P  P224  1  0.44657226  0.74951013  0.13887647  1
  P  P225  1  0.44602119  0.75066890  0.38961174  1
  P  P226  1  0.44667853  0.74926725  0.64028765  1
  P  P227  1  0.44498106  0.74992022  0.88925267  1
  P  P228  1  0.94565042  0.08244617  0.13887539  1
  P  P229  1  0.94751950  0.08416866  0.39080269  1
  P  P230  1  0.94576516  0.08311797  0.63926193  1
  P  P231  1  0.94692041  0.08413973  0.89048380  1
  P  P232  1  0.94631503  0.41681416  0.14081212  1
  P  P233  1  0.94548116  0.41671321  0.38960138  1
  P  P234  1  0.94515916  0.41696951  0.64011385  1
  P  P235  1  0.94755496  0.41639156  0.88857215  1
  P  P236  1  0.94728055  0.75051837  0.13881932  1
  P  P237  1  0.94609127  0.74885772  0.39106845  1
  P  P238  1  0.94486953  0.74995285  0.64010287  1
  P  P239  1  0.94684331  0.74961673  0.88925435  1
  P  P240  1  0.19483423  0.08265913  0.23632838  1
  P  P241  1  0.19540564  0.08376322  0.48375045  1
  P  P242  1  0.19684098  0.08323051  0.73512173  1
  P  P243  1  0.19861906  0.08451320  0.98536255  1
  P  P244  1  0.19608699  0.41729409  0.23647040  1
  P  P245  1  0.19526803  0.41702013  0.48419699  1
  P  P246  1  0.19669622  0.41686729  0.73635315  1
  P  P247  1  0.19584083  0.41631778  0.98449823  1
  P  P248  1  0.19510224  0.74992289  0.23421311  1
  P  P249  1  0.19624318  0.74928669  0.48523887  1
  P  P250  1  0.19716101  0.75011720  0.73671345  1
  P  P251  1  0.19572191  0.74955352  0.98521707  1
  P  P252  1  0.69691970  0.08480545  0.23477556  1
  P  P253  1  0.69874984  0.08230042  0.48490419  1
  P  P254  1  0.69549693  0.08347110  0.73639969  1
  P  P255  1  0.69783704  0.08298553  0.98427181  1
  P  P256  1  0.69623622  0.41551011  0.23566814  1
  P  P257  1  0.69568883  0.41686231  0.48575661  1
  P  P258  1  0.69600867  0.41696443  0.73547576  1
  P  P259  1  0.69455517  0.41682832  0.98539106  1
  P  P260  1  0.69628733  0.74975283  0.23417454  1
  P  P261  1  0.69662062  0.75064604  0.48642632  1
  P  P262  1  0.69522473  0.74940343  0.73571459  1
  P  P263  1  0.69609141  0.75016742  0.98535876  1
  P  P264  1  0.30288019  0.24957378  0.01596618  1
  P  P265  1  0.30540564  0.25136542  0.26459987  1
  P  P266  1  0.30257729  0.25041348  0.51323479  1
  P  P267  1  0.30198483  0.25108176  0.76461786  1
  P  P268  1  0.30318350  0.58387987  0.01342034  1
  P  P269  1  0.30115725  0.58276568  0.26451050  1
  P  P270  1  0.30207150  0.58302874  0.51559295  1
  P  P271  1  0.30494518  0.58318276  0.76421442  1
  P  P272  1  0.30500389  0.91665635  0.01358146  1
  P  P273  1  0.30215970  0.91599185  0.26551244  1
  P  P274  1  0.30262203  0.91680745  0.51356737  1
  P  P275  1  0.30314330  0.91600125  0.76531588  1
  P  P276  1  0.80500207  0.24956486  0.01330765  1
  P  P277  1  0.80290906  0.25130006  0.26562310  1
  P  P278  1  0.80525056  0.25003175  0.51388283  1
  P  P279  1  0.80462587  0.25152859  0.76593365  1
  P  P280  1  0.80376818  0.58425723  0.01483039  1
  P  P281  1  0.80436017  0.58223473  0.26567435  1
  P  P282  1  0.80480242  0.58308963  0.51393769  1
  P  P283  1  0.80318770  0.58320480  0.76532204  1
  P  P284  1  0.80477354  0.91624665  0.01531411  1
  P  P285  1  0.80504158  0.91626266  0.26392017  1
  P  P286  1  0.80249950  0.91666492  0.51521145  1
  P  P287  1  0.80323741  0.91508002  0.76528154  1
  O  O288  1  0.05711701  0.25015285  0.18603765  1
  O  O289  1  0.05704870  0.25058862  0.43808731  1
  O  O290  1  0.06007154  0.25041502  0.68721896  1
  O  O291  1  0.05928469  0.24984302  0.93720579  1
  O  O292  1  0.05889711  0.58310936  0.18712713  1
  O  O293  1  0.05789275  0.58314617  0.43779681  1
  O  O294  1  0.06058727  0.58363280  0.68765011  1
  O  O295  1  0.05967679  0.58344711  0.93721071  1
  O  O296  1  0.05806952  0.91649984  0.18741905  1
  O  O297  1  0.05889919  0.91635487  0.43750348  1
  O  O298  1  0.06028567  0.91608001  0.68738095  1
  O  O299  1  0.05710029  0.91645397  0.93596490  1
  O  O300  1  0.55826562  0.25038084  0.18790962  1
  O  O301  1  0.55721078  0.25009147  0.43609310  1
  O  O302  1  0.55676740  0.25044624  0.68676010  1
  O  O303  1  0.55568035  0.24990636  0.93712730  1
  O  O304  1  0.55636922  0.58319739  0.18675897  1
  O  O305  1  0.55631853  0.58291162  0.43671463  1
  O  O306  1  0.55497280  0.58361339  0.68695585  1
  O  O307  1  0.55556347  0.58356324  0.93687971  1
  O  O308  1  0.55649144  0.91650384  0.18653422  1
  O  O309  1  0.55875727  0.91703285  0.43756977  1
  O  O310  1  0.55664435  0.91616594  0.68615853  1
  O  O311  1  0.55550452  0.91643578  0.93734560  1
  O  O312  1  0.44088388  0.08382233  0.06234565  1
  O  O313  1  0.44374803  0.08332542  0.31310416  1
  O  O314  1  0.44295124  0.08360523  0.56283181  1
  O  O315  1  0.44378355  0.08334870  0.81371879  1
  O  O316  1  0.44284602  0.41683167  0.06371752  1
  O  O317  1  0.44151691  0.41708479  0.31197480  1
  O  O318  1  0.44289050  0.41654671  0.56337510  1
  O  O319  1  0.44100726  0.41655326  0.81204800  1
  O  O320  1  0.44108970  0.74940177  0.06221846  1
  O  O321  1  0.44286011  0.75025362  0.31282520  1
  O  O322  1  0.44309311  0.74993889  0.56353991  1
  O  O323  1  0.44058822  0.75009804  0.81246838  1
  O  O324  1  0.94155581  0.08315691  0.06212691  1
  O  O325  1  0.94411467  0.08352615  0.31399644  1
  O  O326  1  0.94127603  0.08273012  0.56251177  1
  O  O327  1  0.94438223  0.08340556  0.81360675  1
  O  O328  1  0.94352427  0.41685690  0.06396981  1
  O  O329  1  0.94123612  0.41647774  0.31288744  1
  O  O330  1  0.94080289  0.41713550  0.56333938  1
  O  O331  1  0.94252925  0.41729884  0.81195053  1
  O  O332  1  0.94268477  0.74987090  0.06212759  1
  O  O333  1  0.94368927  0.74964618  0.31420612  1
  O  O334  1  0.94024752  0.75014419  0.56334057  1
  O  O335  1  0.94155444  0.74943830  0.81260263  1
  O  O336  1  0.19481905  0.08361208  0.06207129  1
  O  O337  1  0.19032188  0.08371748  0.31300759  1
  O  O338  1  0.19347028  0.08383755  0.56062279  1
  O  O339  1  0.19437182  0.08337529  0.81191200  1
  O  O340  1  0.19344553  0.41640364  0.06131594  1
  O  O341  1  0.19069609  0.41655499  0.31305056  1
  O  O342  1  0.19329516  0.41684795  0.56104411  1
  O  O343  1  0.19240263  0.41661810  0.81304279  1
  O  O344  1  0.19107545  0.75035916  0.06191790  1
  O  O345  1  0.19254309  0.74971723  0.31098579  1
  O  O346  1  0.19412832  0.74945073  0.56207356  1
  O  O347  1  0.19287797  0.75012142  0.81337835  1
  O  O348  1  0.69371952  0.08329104  0.06099763  1
  O  O349  1  0.69377765  0.08392462  0.31156536  1
  O  O350  1  0.69502779  0.08327410  0.56166388  1
  O  O351  1  0.69057757  0.08313187  0.81313082  1
  O  O352  1  0.69027211  0.41678320  0.06216954  1
  O  O353  1  0.69156656  0.41621184  0.31243388  1
  O  O354  1  0.69054337  0.41719393  0.56245669  1
  O  O355  1  0.69050566  0.41734170  0.81220206  1
  O  O356  1  0.69090674  0.74977954  0.06204730  1
  O  O357  1  0.69321547  0.74979944  0.31103661  1
  O  O358  1  0.69154281  0.74929242  0.56306888  1
  O  O359  1  0.68980749  0.74943519  0.81242910  1
  O  O360  1  0.30942738  0.25080167  0.18783255  1
  O  O361  1  0.30824068  0.25040234  0.43664112  1
  O  O362  1  0.30546563  0.25092106  0.68788134  1
  O  O363  1  0.30638549  0.25019622  0.93916706  1
  O  O364  1  0.30501733  0.58293948  0.18778409  1
  O  O365  1  0.30581487  0.58311678  0.43885023  1
  O  O366  1  0.30913472  0.58308888  0.68746896  1
  O  O367  1  0.30826613  0.58340855  0.93675947  1
  O  O368  1  0.30633102  0.91628436  0.18873240  1
  O  O369  1  0.30782724  0.91672722  0.43694630  1
  O  O370  1  0.30628393  0.91630004  0.68853328  1
  O  O371  1  0.30909097  0.91670054  0.93682805  1
  O  O372  1  0.80633398  0.25074411  0.18885176  1
  O  O373  1  0.80901119  0.25018380  0.43709092  1
  O  O374  1  0.80711774  0.25075684  0.68907071  1
  O  O375  1  0.80954604  0.25049082  0.93662687  1
  O  O376  1  0.80714638  0.58307000  0.18886477  1
  O  O377  1  0.80862384  0.58287976  0.43719472  1
  O  O378  1  0.80596337  0.58300876  0.68854330  1
  O  O379  1  0.80713698  0.58374438  0.93808765  1
  O  O380  1  0.80947329  0.91609843  0.18719031  1
  O  O381  1  0.80603824  0.91653961  0.43843752  1
  O  O382  1  0.80625028  0.91582840  0.68855148  1
  O  O383  1  0.80736482  0.91585605  0.93850896  1
  O  O384  1  0.23289166  0.25042007  0.04080260  1
  O  O385  1  0.23517964  0.25037847  0.28835141  1
  O  O386  1  0.23207139  0.25068121  0.53629054  1
  O  O387  1  0.23199525  0.25023552  0.78944103  1
  O  O388  1  0.23269818  0.58306651  0.03671390  1
  O  O389  1  0.23107400  0.58352629  0.28899465  1
  O  O390  1  0.23205147  0.58291199  0.54010954  1
  O  O391  1  0.23451316  0.58356976  0.78799934  1
  O  O392  1  0.23495728  0.91687242  0.03789606  1
  O  O393  1  0.23186992  0.91589624  0.28920526  1
  O  O394  1  0.23219277  0.91675519  0.53696849  1
  O  O395  1  0.23318646  0.91649643  0.79031817  1
  O  O396  1  0.73491061  0.25011881  0.03742358  1
  O  O397  1  0.73294729  0.25058084  0.29044924  1
  O  O398  1  0.73537301  0.25026755  0.53869598  1
  O  O399  1  0.73498681  0.25060597  0.79124896  1
  O  O400  1  0.73408483  0.58344862  0.03990154  1
  O  O401  1  0.73470194  0.58295907  0.29099212  1
  O  O402  1  0.73489465  0.58315169  0.53872474  1
  O  O403  1  0.73363564  0.58356764  0.79087242  1
  O  O404  1  0.73512138  0.91667469  0.04071637  1
  O  O405  1  0.73497496  0.91635112  0.28796569  1
  O  O406  1  0.73267753  0.91650468  0.54047822  1
  O  O407  1  0.73359877  0.91550644  0.79060997  1
  O  O408  1  0.26500830  0.08323368  0.21255193  1
  O  O409  1  0.26487057  0.08331840  0.45783620  1
  O  O410  1  0.26623314  0.08348652  0.70895653  1
  O  O411  1  0.26858319  0.08390645  0.96055208  1
  O  O412  1  0.26641087  0.41718760  0.21266094  1
  O  O413  1  0.26481932  0.41720627  0.45849189  1
  O  O414  1  0.26684907  0.41709378  0.71190165  1
  O  O415  1  0.26552811  0.41671740  0.95912070  1
  O  O416  1  0.26467619  0.74971276  0.20845020  1
  O  O417  1  0.26563875  0.74953903  0.45916331  1
  O  O418  1  0.26740897  0.74973195  0.71243989  1
  O  O419  1  0.26619737  0.75004566  0.96176480  1
  O  O420  1  0.76663966  0.08468966  0.20976696  1
  O  O421  1  0.76868501  0.08280971  0.45998633  1
  O  O422  1  0.76573712  0.08359682  0.71291718  1
  O  O423  1  0.76802363  0.08255313  0.96022013  1
  O  O424  1  0.76658101  0.41635247  0.21189359  1
  O  O425  1  0.76630640  0.41659565  0.46281488  1
  O  O426  1  0.76647929  0.41690707  0.71235234  1
  O  O427  1  0.76480813  0.41705223  0.96177002  1
  O  O428  1  0.76614276  0.74947800  0.20952725  1
  O  O429  1  0.76698075  0.75032758  0.46265310  1
  O  O430  1  0.76574170  0.74932077  0.71266332  1
  O  O431  1  0.76665312  0.75041759  0.96227826  1
  O  O432  1  0.01559456  0.08335666  0.16331361  1
  O  O433  1  0.01753073  0.08390220  0.41548346  1
  O  O434  1  0.01588183  0.08361395  0.66306156  1
  O  O435  1  0.01657617  0.08308864  0.91587745  1
  O  O436  1  0.01600764  0.41656939  0.16590480  1
  O  O437  1  0.01581037  0.41680061  0.41373033  1
  O  O438  1  0.01538533  0.41692017  0.66367273  1
  O  O439  1  0.01796475  0.41685156  0.91213807  1
  O  O440  1  0.01744549  0.74991217  0.16307868  1
  O  O441  1  0.01575165  0.74928702  0.41641029  1
  O  O442  1  0.01517019  0.74962202  0.66345794  1
  O  O443  1  0.01743838  0.74956600  0.91223464  1
  O  O444  1  0.51503750  0.08339429  0.16332859  1
  O  O445  1  0.51611924  0.08413299  0.41546504  1
  O  O446  1  0.51656585  0.08269431  0.66419896  1
  O  O447  1  0.51727765  0.08337034  0.91547906  1
  O  O448  1  0.51675274  0.41644737  0.16476867  1
  O  O449  1  0.51697351  0.41621038  0.41224608  1
  O  O450  1  0.51673155  0.41738042  0.66457887  1
  O  O451  1  0.51651500  0.41685917  0.91225956  1
  O  O452  1  0.51697265  0.74980428  0.16224920  1
  O  O453  1  0.51573501  0.74966606  0.41475225  1
  O  O454  1  0.51672034  0.74969929  0.66496335  1
  O  O455  1  0.51547695  0.74970832  0.91288534  1
  O  O456  1  0.48318794  0.25114212  0.08728083  1
  O  O457  1  0.48314431  0.24993637  0.33514054  1
  O  O458  1  0.48385033  0.25132934  0.58476803  1
  O  O459  1  0.48355457  0.24982590  0.83458959  1
  O  O460  1  0.48358237  0.58255695  0.08458684  1
  O  O461  1  0.48355849  0.58306730  0.33463026  1
  O  O462  1  0.48171293  0.58303122  0.58509487  1
  O  O463  1  0.48175861  0.58394716  0.83570393  1
  O  O464  1  0.48360344  0.91615235  0.08485911  1
  O  O465  1  0.48284791  0.91690592  0.33731260  1
  O  O466  1  0.48434932  0.91597995  0.58416109  1
  O  O467  1  0.48180947  0.91611677  0.83570126  1
  O  O468  1  0.98420739  0.25061985  0.08451854  1
  O  O469  1  0.98249395  0.25032068  0.33712264  1
  O  O470  1  0.98543718  0.25045316  0.58697183  1
  O  O471  1  0.98430906  0.25016175  0.83656978  1
  O  O472  1  0.98569025  0.58317130  0.08551030  1
  O  O473  1  0.98314510  0.58298647  0.33718200  1
  O  O474  1  0.98519845  0.58314780  0.58780727  1
  O  O475  1  0.98631994  0.58345190  0.83575169  1
  O  O476  1  0.98355340  0.91575421  0.08635957  1
  O  O477  1  0.98492672  0.91653229  0.33652108  1
  O  O478  1  0.98550533  0.91636490  0.58692844  1
  O  O479  1  0.98473659  0.91654286  0.83383358  1
  O  O480  1  0.08837946  0.31515126  0.07685224  1
  O  O481  1  0.08611730  0.31550063  0.32806766  1
  O  O482  1  0.08901889  0.31541759  0.57712620  1
  O  O483  1  0.08794531  0.31567899  0.82718415  1
  O  O484  1  0.08905524  0.64933611  0.07760895  1
  O  O485  1  0.08721804  0.64717871  0.32746189  1
  O  O486  1  0.08867414  0.64839520  0.57729467  1
  O  O487  1  0.09009714  0.64856532  0.82750561  1
  O  O488  1  0.08700355  0.98088255  0.07716090  1
  O  O489  1  0.08811359  0.98282358  0.32794110  1
  O  O490  1  0.08927208  0.98117254  0.57736871  1
  O  O491  1  0.08917084  0.98062823  0.82688711  1
  O  O492  1  0.58687654  0.31637852  0.07833807  1
  O  O493  1  0.58696649  0.31577162  0.32663076  1
  O  O494  1  0.58764417  0.31655600  0.57805795  1
  O  O495  1  0.58743505  0.31481554  0.82807700  1
  O  O496  1  0.58718259  0.64796555  0.07729749  1
  O  O497  1  0.58765207  0.64746056  0.32760862  1
  O  O498  1  0.58545160  0.64873539  0.57763781  1
  O  O499  1  0.58567205  0.64875832  0.82755063  1
  O  O500  1  0.58742694  0.98094445  0.07718147  1
  O  O501  1  0.58644318  0.98215429  0.32745695  1
  O  O502  1  0.58897085  0.97976839  0.57651346  1
  O  O503  1  0.58547882  0.98174788  0.82807786  1
  O  O504  1  0.41102961  0.01940259  0.17226396  1
  O  O505  1  0.41245296  0.01847111  0.42221640  1
  O  O506  1  0.41252864  0.01828148  0.67193918  1
  O  O507  1  0.41340903  0.01742559  0.92278571  1
  O  O508  1  0.41263606  0.35120300  0.17302787  1
  O  O509  1  0.41358184  0.35049910  0.42170245  1
  O  O510  1  0.41260349  0.35248934  0.67336908  1
  O  O511  1  0.41281629  0.35233713  0.92235673  1
  O  O512  1  0.41351998  0.68434867  0.17235175  1
  O  O513  1  0.41153522  0.68563536  0.42189457  1
  O  O514  1  0.41272816  0.68410613  0.67266408  1
  O  O515  1  0.41148374  0.68480843  0.92245147  1
  O  O516  1  0.91258402  0.01704313  0.17169230  1
  O  O517  1  0.91358102  0.01909446  0.42371538  1
  O  O518  1  0.91261928  0.01803453  0.67265520  1
  O  O519  1  0.91200295  0.01938303  0.92278171  1
  O  O520  1  0.91182066  0.35194762  0.17329200  1
  O  O521  1  0.91202458  0.35172274  0.42302186  1
  O  O522  1  0.91165576  0.35199353  0.67325528  1
  O  O523  1  0.91448164  0.35118712  0.92179379  1
  O  O524  1  0.91377652  0.68546739  0.17220001  1
  O  O525  1  0.91192936  0.68366650  0.42301297  1
  O  O526  1  0.91131310  0.68500490  0.67346756  1
  O  O527  1  0.91359563  0.68475155  0.92308035  1
  O  O528  1  0.16190558  0.01717723  0.20332537  1
  O  O529  1  0.16054874  0.01878888  0.45202356  1
  O  O530  1  0.16270065  0.01786790  0.70319015  1
  O  O531  1  0.16442368  0.01972176  0.95237990  1
  O  O532  1  0.16297511  0.35217382  0.20283207  1
  O  O533  1  0.16076207  0.35210541  0.45173727  1
  O  O534  1  0.16312748  0.35191248  0.70315369  1
  O  O535  1  0.16184947  0.35096340  0.95234237  1
  O  O536  1  0.16050716  0.68495945  0.20204466  1
  O  O537  1  0.16213623  0.68391779  0.45326159  1
  O  O538  1  0.16352660  0.68512540  0.70351833  1
  O  O539  1  0.16264061  0.68435603  0.95200163  1
  O  O540  1  0.66287029  0.01977510  0.20207747  1
  O  O541  1  0.66490610  0.01713027  0.45255356  1
  O  O542  1  0.66227508  0.01834960  0.70307946  1
  O  O543  1  0.66372847  0.01804401  0.95153193  1
  O  O544  1  0.66311125  0.35023159  0.20253457  1
  O  O545  1  0.66246264  0.35184894  0.45219097  1
  O  O546  1  0.66272182  0.35194584  0.70210799  1
  O  O547  1  0.66110184  0.35183709  0.95205149  1
  O  O548  1  0.66205103  0.68468898  0.20174664  1
  O  O549  1  0.66334850  0.68574275  0.45258676  1
  O  O550  1  0.66202504  0.68440874  0.70192875  1
  O  O551  1  0.66281897  0.68523052  0.95164932  1
  O  O552  1  0.33728826  0.31453562  0.04858612  1
  O  O553  1  0.33844128  0.31669722  0.29760995  1
  O  O554  1  0.33570140  0.31547033  0.54684113  1
  O  O555  1  0.33546309  0.31616102  0.79753613  1
  O  O556  1  0.33589021  0.64913908  0.04689658  1
  O  O557  1  0.33513170  0.64777775  0.29715968  1
  O  O558  1  0.33620155  0.64792758  0.54842077  1
  O  O559  1  0.33842846  0.64819241  0.79745941  1
  O  O560  1  0.33853987  0.98172953  0.04656235  1
  O  O561  1  0.33588061  0.98095732  0.29867885  1
  O  O562  1  0.33570779  0.98183147  0.54710377  1
  O  O563  1  0.33748013  0.98094348  0.79790541  1
  O  O564  1  0.83855452  0.31445037  0.04686498  1
  O  O565  1  0.83678513  0.31643182  0.29823762  1
  O  O566  1  0.83891043  0.31528728  0.54666856  1
  O  O567  1  0.83850423  0.31695491  0.79799563  1
  O  O568  1  0.83748430  0.64966691  0.04715636  1
  O  O569  1  0.83921445  0.64687689  0.29827034  1
  O  O570  1  0.83848886  0.64821012  0.54680674  1
  O  O571  1  0.83772282  0.64828098  0.79737760  1
  O  O572  1  0.83938694  0.98128804  0.04729570  1
  O  O573  1  0.83852723  0.98140990  0.29701664  1
  O  O574  1  0.83653562  0.98186926  0.54759349  1
  O  O575  1  0.83764007  0.98003570  0.79773134  1
  O  O576  1  0.41190628  0.14968084  0.17187140  1
  O  O577  1  0.41217539  0.14896969  0.42182543  1
  O  O578  1  0.41320417  0.14861813  0.67234443  1
  O  O579  1  0.41279267  0.14750057  0.92325257  1
  O  O580  1  0.41258069  0.48110462  0.17358338  1
  O  O581  1  0.41308886  0.48071078  0.42231000  1
  O  O582  1  0.41248932  0.48242045  0.67250615  1
  O  O583  1  0.41309455  0.48254216  0.92193799  1
  O  O584  1  0.41313465  0.81442070  0.17231304  1
  O  O585  1  0.41249257  0.81599462  0.42216090  1
  O  O586  1  0.41245665  0.81417177  0.67320480  1
  O  O587  1  0.41171448  0.81497370  0.92257368  1
  O  O588  1  0.91181397  0.14743703  0.17207570  1
  O  O589  1  0.91342272  0.14917790  0.42312925  1
  O  O590  1  0.91219402  0.14816074  0.67224094  1
  O  O591  1  0.91301878  0.14948506  0.92245365  1
  O  O592  1  0.91217175  0.48183763  0.17324057  1
  O  O593  1  0.91207011  0.48185597  0.42286891  1
  O  O594  1  0.91164211  0.48185672  0.67361213  1
  O  O595  1  0.91427137  0.48127548  0.92245143  1
  O  O596  1  0.91404257  0.81558509  0.17207311  1
  O  O597  1  0.91165806  0.81381482  0.42367653  1
  O  O598  1  0.91158104  0.81493531  0.67348929  1
  O  O599  1  0.91367715  0.81469693  0.92278447  1
  O  O600  1  0.08808798  0.18529882  0.07641719  1
  O  O601  1  0.08625504  0.18534805  0.32823194  1
  O  O602  1  0.08911076  0.18543107  0.57707414  1
  O  O603  1  0.08818881  0.18556766  0.82706114  1
  O  O604  1  0.08991209  0.51928581  0.07722281  1
  O  O605  1  0.08664968  0.51715740  0.32785117  1
  O  O606  1  0.08886912  0.51849431  0.57746548  1
  O  O607  1  0.09016850  0.51839067  0.82752410  1
  O  O608  1  0.08734435  0.85085797  0.07771610  1
  O  O609  1  0.08901827  0.85259933  0.32737801  1
  O  O610  1  0.08907991  0.85116721  0.57733150  1
  O  O611  1  0.08833648  0.85049921  0.82694765  1
  O  O612  1  0.58679886  0.18617535  0.07758350  1
  O  O613  1  0.58751610  0.18580032  0.32639323  1
  O  O614  1  0.58758693  0.18621988  0.57718730  1
  O  O615  1  0.58731151  0.18442828  0.82841702  1
  O  O616  1  0.58740346  0.51753298  0.07810044  1
  O  O617  1  0.58725385  0.51730820  0.32769298  1
  O  O618  1  0.58600811  0.51852334  0.57789078  1
  O  O619  1  0.58550584  0.51858182  0.82726981  1
  O  O620  1  0.58728644  0.85069403  0.07738160  1
  O  O621  1  0.58665618  0.85195920  0.32762142  1
  O  O622  1  0.58784596  0.84960724  0.57752890  1
  O  O623  1  0.58576062  0.85141467  0.82801419  1
  O  O624  1  0.33683984  0.18447037  0.04832928  1
  O  O625  1  0.33937394  0.18661364  0.29797252  1
  O  O626  1  0.33546436  0.18534264  0.54700257  1
  O  O627  1  0.33617033  0.18608080  0.79717162  1
  O  O628  1  0.33650876  0.51893327  0.04697812  1
  O  O629  1  0.33473227  0.51771130  0.29753178  1
  O  O630  1  0.33614916  0.51800416  0.54821239  1
  O  O631  1  0.33801338  0.51802755  0.79766945  1
  O  O632  1  0.33809413  0.85117577  0.04657843  1
  O  O633  1  0.33590340  0.85092212  0.29817670  1
  O  O634  1  0.33575806  0.85177868  0.54720109  1
  O  O635  1  0.33709117  0.85094776  0.79789935  1
  O  O636  1  0.83803794  0.18405186  0.04613237  1
  O  O637  1  0.83758386  0.18660447  0.29841552  1
  O  O638  1  0.83876771  0.18474017  0.54656063  1
  O  O639  1  0.83967690  0.18688818  0.79828676  1
  O  O640  1  0.83817572  0.51936887  0.04735649  1
  O  O641  1  0.83823578  0.51684674  0.29781564  1
  O  O642  1  0.83838902  0.51788287  0.54689990  1
  O  O643  1  0.83733182  0.51803147  0.79775243  1
  O  O644  1  0.83892969  0.85104548  0.04779439  1
  O  O645  1  0.83849531  0.85125143  0.29717013  1
  O  O646  1  0.83662842  0.85162863  0.54780741  1
  O  O647  1  0.83717951  0.84981558  0.79748408  1
  O  O648  1  0.16129953  0.14762105  0.20295340  1
  O  O649  1  0.16116513  0.14899107  0.45152449  1
  O  O650  1  0.16224738  0.14825321  0.70305734  1
  O  O651  1  0.16496829  0.14981694  0.95301865  1
  O  O652  1  0.16273081  0.48234046  0.20324581  1
  O  O653  1  0.16067028  0.48218205  0.45240580  1
  O  O654  1  0.16323769  0.48208278  0.70338137  1
  O  O655  1  0.16126626  0.48113304  0.95204852  1
  O  O656  1  0.16094522  0.81522746  0.20197628  1
  O  O657  1  0.16161204  0.81414906  0.45308079  1
  O  O658  1  0.16386205  0.81524414  0.70353956  1
  O  O659  1  0.16216450  0.81440133  0.95160996  1
  O  O660  1  0.66294871  0.15017167  0.20274799  1
  O  O661  1  0.66465902  0.14731771  0.45215640  1
  O  O662  1  0.66238682  0.14861992  0.70301873  1
  O  O663  1  0.66405846  0.14795755  0.95129068  1
  O  O664  1  0.66234621  0.48027481  0.20215862  1
  O  O665  1  0.66261638  0.48182464  0.45198032  1
  O  O666  1  0.66271523  0.48195050  0.70176739  1
  O  O667  1  0.66089400  0.48176316  0.95205320  1
  O  O668  1  0.66215905  0.81470703  0.20157899  1
  O  O669  1  0.66355225  0.81600731  0.45340303  1
  O  O670  1  0.66184090  0.81432163  0.70227054  1
  O  O671  1  0.66267399  0.81515909  0.95197191  1
