# generated using pymatgen
data_Na2MnFe(PO4)2
_symmetry_space_group_name_H-M   'P 1'
_cell_length_a   21.08458867
_cell_length_b   18.93707664
_cell_length_c   20.04403244
_cell_angle_alpha   90.00025797
_cell_angle_beta   89.99928229
_cell_angle_gamma   90.00050616
_symmetry_Int_Tables_number   1
_chemical_formula_structural   Na2MnFe(PO4)2
_chemical_formula_sum   'Na96 Mn48 Fe48 P96 O384'
_cell_volume   8003.19072507
_cell_formula_units_Z   48
loop_
 _symmetry_equiv_pos_site_id
 _symmetry_equiv_pos_as_xyz
  1  'x, y, z'
loop_
 _atom_site_type_symbol
 _atom_site_label
 _atom_site_symmetry_multiplicity
 _atom_site_fract_x
 _atom_site_fract_y
 _atom_site_fract_z
 _atom_site_occupancy
  Na  Na0  1  0.00117493  0.00096418  -0.00094657  1
  Na  Na1  1  -0.00005070  -0.00059960  0.24939206  1
  Na  Na2  1  -0.00098906  -0.00081575  0.50042682  1
  Na  Na3  1  -0.00112212  -0.00092334  0.75081503  1
  Na  Na4  1  -0.00101854  0.33327951  -0.00090611  1
  Na  Na5  1  -0.00176584  0.33270286  0.25025120  1
  Na  Na6  1  0.00092923  0.33405563  0.50037334  1
  Na  Na7  1  0.00045812  0.33349441  0.74999311  1
  Na  Na8  1  0.00041021  0.66626344  0.00099824  1
  Na  Na9  1  0.00217583  0.66751771  0.24881964  1
  Na  Na10  1  0.00024905  0.66709472  0.49993545  1
  Na  Na11  1  -0.00081251  0.66647385  0.75059581  1
  Na  Na12  1  0.49774943  -0.00068955  0.00073363  1
  Na  Na13  1  0.49987279  0.00046748  0.24940883  1
  Na  Na14  1  0.49833671  -0.00033594  0.50050523  1
  Na  Na15  1  0.49668162  -0.00070064  0.74971763  1
  Na  Na16  1  0.49887456  0.33285086  -0.00020057  1
  Na  Na17  1  0.49850814  0.33328990  0.24899120  1
  Na  Na18  1  0.50164061  0.33359946  0.50043709  1
  Na  Na19  1  0.50176215  0.33339562  0.75070264  1
  Na  Na20  1  0.49893471  0.66661772  0.00031323  1
  Na  Na21  1  0.49944163  0.66698941  0.25049067  1
  Na  Na22  1  0.49922761  0.66681004  0.49915662  1
  Na  Na23  1  0.50056277  0.66728753  0.74977708  1
  Na  Na24  1  0.25078820  0.00016326  0.12495237  1
  Na  Na25  1  0.24919362  -0.00085674  0.37396504  1
  Na  Na26  1  0.25179262  0.00061442  0.62622911  1
  Na  Na27  1  0.25113627  0.00011072  0.87452378  1
  Na  Na28  1  0.25310019  0.33519069  0.12529613  1
  Na  Na29  1  0.24927445  0.33315905  0.37458718  1
  Na  Na30  1  0.24835921  0.33280665  0.62534276  1
  Na  Na31  1  0.24947520  0.33307264  0.87541213  1
  Na  Na32  1  0.25104610  0.66675586  0.12472629  1
  Na  Na33  1  0.24985460  0.66670644  0.37457223  1
  Na  Na34  1  0.25200237  0.66779400  0.62615863  1
  Na  Na35  1  0.25039488  0.66617250  0.87431755  1
  Na  Na36  1  0.75094639  0.00003499  0.12455843  1
  Na  Na37  1  0.75105099  -0.00086930  0.37562021  1
  Na  Na38  1  0.75395896  0.00146142  0.62527918  1
  Na  Na39  1  0.75023971  -0.00003647  0.87425760  1
  Na  Na40  1  0.75081514  0.33361130  0.12444941  1
  Na  Na41  1  0.74903647  0.33295074  0.37427524  1
  Na  Na42  1  0.75138828  0.33411029  0.62457359  1
  Na  Na43  1  0.74951147  0.33227050  0.87613642  1
  Na  Na44  1  0.74811370  0.66669002  0.12403473  1
  Na  Na45  1  0.75004506  0.66761303  0.37492763  1
  Na  Na46  1  0.74825064  0.66654367  0.62634867  1
  Na  Na47  1  0.74890303  0.66695695  0.87530237  1
  Na  Na48  1  -0.00211477  0.16717663  -0.00072549  1
  Na  Na49  1  0.00055647  0.16554294  0.24939840  1
  Na  Na50  1  -0.00032580  0.16635954  0.50109340  1
  Na  Na51  1  -0.00061333  0.16620283  0.74969454  1
  Na  Na52  1  0.00175286  0.49954493  -0.00006463  1
  Na  Na53  1  0.00148641  0.50012110  0.24960260  1
  Na  Na54  1  0.00141333  0.49970577  0.49928183  1
  Na  Na55  1  -0.00101093  0.50084950  0.75114219  1
  Na  Na56  1  0.00075575  0.83298699  -0.00021341  1
  Na  Na57  1  0.00000080  0.83315040  0.24977864  1
  Na  Na58  1  -0.00105540  0.83372464  0.50021789  1
  Na  Na59  1  0.00079943  0.83291645  0.75092485  1
  Na  Na60  1  0.49992138  0.16642126  -0.00087194  1
  Na  Na61  1  0.49979515  0.16648229  0.24932149  1
  Na  Na62  1  0.49866787  0.16712726  0.50175734  1
  Na  Na63  1  0.50110724  0.16587319  0.74986589  1
  Na  Na64  1  0.49831149  0.50052104  0.00057541  1
  Na  Na65  1  0.49839954  0.50048455  0.24981368  1
  Na  Na66  1  0.50147229  0.49952753  0.49943939  1
  Na  Na67  1  0.49739479  0.50199296  0.75104652  1
  Na  Na68  1  0.49851554  0.83350113  0.00130401  1
  Na  Na69  1  0.49930968  0.83307873  0.24981797  1
  Na  Na70  1  0.49927714  0.83330865  0.49893245  1
  Na  Na71  1  0.49970381  0.83300826  0.74929711  1
  Na  Na72  1  0.25173959  0.16600647  0.12585444  1
  Na  Na73  1  0.24946752  0.16653685  0.37407036  1
  Na  Na74  1  0.25076867  0.16533711  0.62532346  1
  Na  Na75  1  0.24980616  0.16627436  0.87556336  1
  Na  Na76  1  0.25032324  0.50056677  0.12451303  1
  Na  Na77  1  0.24891223  0.50076996  0.37455674  1
  Na  Na78  1  0.25120885  0.49959504  0.62630017  1
  Na  Na79  1  0.25126821  0.49994230  0.87434593  1
  Na  Na80  1  0.25165537  0.83274287  0.12489275  1
  Na  Na81  1  0.25028372  0.83328629  0.37423590  1
  Na  Na82  1  0.25046311  0.83325963  0.62615394  1
  Na  Na83  1  0.25059568  0.83369434  0.87422546  1
  Na  Na84  1  0.75007433  0.16678159  0.12454880  1
  Na  Na85  1  0.75214688  0.16566391  0.37394149  1
  Na  Na86  1  0.75028561  0.16701550  0.62593432  1
  Na  Na87  1  0.75045592  0.16608219  0.87491538  1
  Na  Na88  1  0.75007502  0.50046332  0.12466136  1
  Na  Na89  1  0.74833333  0.50090425  0.37458143  1
  Na  Na90  1  0.75073901  0.49991548  0.62530766  1
  Na  Na91  1  0.75154891  0.49942154  0.87576218  1
  Na  Na92  1  0.74838535  0.83366130  0.12436478  1
  Na  Na93  1  0.75033778  0.83304951  0.37604674  1
  Na  Na94  1  0.75090291  0.83271556  0.62539864  1
  Na  Na95  1  0.74887145  0.83279133  0.87428763  1
  Mn  Mn96  1  0.35874697  0.75040011  0.75269916  1
  Mn  Mn97  1  0.10767804  0.08386100  0.12195947  1
  Mn  Mn98  1  0.64260503  0.25005104  0.49759425  1
  Mn  Mn99  1  0.89288432  0.58395183  0.37702707  1
  Mn  Mn100  1  0.39218190  0.24996938  0.37761984  1
  Mn  Mn101  1  0.10782170  0.75011523  0.62261344  1
  Mn  Mn102  1  0.39239779  0.24992869  0.87746804  1
  Mn  Mn103  1  0.14265809  0.58416186  0.49797662  1
  Mn  Mn104  1  0.64162532  0.91750872  0.74750263  1
  Mn  Mn105  1  0.14198947  0.91598290  0.24760266  1
  Mn  Mn106  1  0.89209444  0.24970802  0.62781400  1
  Mn  Mn107  1  0.64289957  0.91684348  0.49835087  1
  Mn  Mn108  1  0.60834648  0.08364716  0.37361878  1
  Mn  Mn109  1  0.64191951  0.58214782  0.74844884  1
  Mn  Mn110  1  0.35797449  0.41677613  0.50259456  1
  Mn  Mn111  1  0.14289869  0.91732528  0.74804111  1
  Mn  Mn112  1  0.60771602  0.75027824  0.37287487  1
  Mn  Mn113  1  0.85724162  0.74968725  0.75296963  1
  Mn  Mn114  1  0.39201853  0.25037760  0.62795523  1
  Mn  Mn115  1  0.89268904  0.91607449  0.87784631  1
  Mn  Mn116  1  0.35791835  0.08360743  0.25283135  1
  Mn  Mn117  1  0.85749917  0.74972085  0.25177909  1
  Mn  Mn118  1  0.64118824  0.91706044  0.99724781  1
  Mn  Mn119  1  0.14210670  0.24915500  0.49741953  1
  Mn  Mn120  1  0.35798027  0.41546294  0.75233138  1
  Mn  Mn121  1  0.60730514  0.08312183  0.12218773  1
  Mn  Mn122  1  0.60765452  0.08230630  0.62284259  1
  Mn  Mn123  1  0.10803644  0.41582816  0.12270421  1
  Mn  Mn124  1  0.85805889  0.08292939  0.25239123  1
  Mn  Mn125  1  0.39184290  0.91726072  0.37759883  1
  Mn  Mn126  1  0.60753196  0.41675005  0.87283591  1
  Mn  Mn127  1  0.89261224  0.58300759  0.12692463  1
  Mn  Mn128  1  0.10761795  0.41714617  0.62314103  1
  Mn  Mn129  1  0.64177936  0.58396616  0.24720928  1
  Mn  Mn130  1  0.39189018  0.58283314  0.37773329  1
  Mn  Mn131  1  0.10894636  0.75025674  0.12181934  1
  Mn  Mn132  1  0.85787015  0.41684626  0.00241654  1
  Mn  Mn133  1  0.64239464  0.24955101  0.24728730  1
  Mn  Mn134  1  0.89131216  0.58369333  0.62703583  1
  Mn  Mn135  1  0.14209013  0.25088254  0.24713682  1
  Mn  Mn136  1  0.85781693  0.41733650  0.50133399  1
  Mn  Mn137  1  0.60856587  0.41767375  0.62339490  1
  Mn  Mn138  1  0.10762947  0.08260069  0.62300546  1
  Mn  Mn139  1  0.60680871  0.41714417  0.12284457  1
  Mn  Mn140  1  0.14236073  0.24996823  0.99770832  1
  Mn  Mn141  1  0.14240323  0.58297065  0.74810746  1
  Mn  Mn142  1  0.89282937  0.24957411  0.37734993  1
  Mn  Mn143  1  0.89212384  0.91657798  0.12649772  1
  Fe  Fe144  1  0.64221515  0.58368381  0.49870753  1
  Fe  Fe145  1  0.89275904  0.25039907  0.87633187  1
  Fe  Fe146  1  0.64184181  0.58332471  0.99817303  1
  Fe  Fe147  1  0.85727345  0.41734537  0.25196819  1
  Fe  Fe148  1  0.85711121  0.08266924  0.00077923  1
  Fe  Fe149  1  0.85857821  0.08291850  0.50181682  1
  Fe  Fe150  1  0.14255865  0.91649412  0.49853446  1
  Fe  Fe151  1  0.10726966  0.08278466  0.37418766  1
  Fe  Fe152  1  0.60697622  0.08245360  0.87337971  1
  Fe  Fe153  1  0.89283044  0.91615597  0.37669715  1
  Fe  Fe154  1  0.35701068  0.75070280  0.50159559  1
  Fe  Fe155  1  0.60666500  0.75021620  0.62298494  1
  Fe  Fe156  1  0.14204818  0.24953163  0.74928875  1
  Fe  Fe157  1  0.35746573  0.75006544  0.00155873  1
  Fe  Fe158  1  0.89187621  0.25005952  0.12633676  1
  Fe  Fe159  1  0.85729258  0.08400189  0.75269161  1
  Fe  Fe160  1  0.64377759  0.25000819  0.74919849  1
  Fe  Fe161  1  0.10769551  0.74972499  0.87432138  1
  Fe  Fe162  1  0.64257812  0.91676759  0.24868175  1
  Fe  Fe163  1  0.60754911  0.41637302  0.37260619  1
  Fe  Fe164  1  0.39257391  0.58403759  0.87748469  1
  Fe  Fe165  1  0.39191329  0.91602201  0.62584487  1
  Fe  Fe166  1  0.89286468  0.91605842  0.62684638  1
  Fe  Fe167  1  0.14351629  0.58338959  0.24832930  1
  Fe  Fe168  1  0.85656452  0.75018154  0.00140163  1
  Fe  Fe169  1  0.60602425  0.74995279  0.12315781  1
  Fe  Fe170  1  0.39267543  0.91639805  0.87729830  1
  Fe  Fe171  1  0.89308682  0.58350727  0.87744280  1
  Fe  Fe172  1  0.10769149  0.75031322  0.37370731  1
  Fe  Fe173  1  0.35708814  0.41655956  0.00149801  1
  Fe  Fe174  1  0.85800640  0.41636013  0.75223470  1
  Fe  Fe175  1  0.64271454  0.24997107  0.99820841  1
  Fe  Fe176  1  0.39259394  0.25019918  0.12619384  1
  Fe  Fe177  1  0.35734323  0.08361857  0.00123656  1
  Fe  Fe178  1  0.10802484  0.41697986  0.37261873  1
  Fe  Fe179  1  0.60619354  0.75067243  0.87421839  1
  Fe  Fe180  1  0.35733024  0.08415104  0.75241814  1
  Fe  Fe181  1  0.85764715  0.74984014  0.50179970  1
  Fe  Fe182  1  0.39234575  0.91635281  0.12690824  1
  Fe  Fe183  1  0.10744788  0.08373286  0.87357148  1
  Fe  Fe184  1  0.14387200  0.58389142  0.99780569  1
  Fe  Fe185  1  0.39216784  0.58329850  0.12671096  1
  Fe  Fe186  1  0.39328836  0.58352468  0.62592977  1
  Fe  Fe187  1  0.35712172  0.41724312  0.25247823  1
  Fe  Fe188  1  0.10751017  0.41652281  0.87361149  1
  Fe  Fe189  1  0.35682282  0.08275121  0.50144860  1
  Fe  Fe190  1  0.14400219  0.91629439  0.99831639  1
  Fe  Fe191  1  0.35714427  0.74946729  0.25168696  1
  P  P192  1  0.05147202  0.25019449  0.10931324  1
  P  P193  1  0.05378496  0.24944870  0.35999358  1
  P  P194  1  0.05444587  0.24964682  0.61139960  1
  P  P195  1  0.05284233  0.24982722  0.85976583  1
  P  P196  1  0.05605612  0.58301538  0.11006009  1
  P  P197  1  0.05481015  0.58425564  0.35916982  1
  P  P198  1  0.05286581  0.58353651  0.60999850  1
  P  P199  1  0.05418728  0.58364358  0.86190013  1
  P  P200  1  0.05433286  0.91673307  0.10847180  1
  P  P201  1  0.05355914  0.91631455  0.36144164  1
  P  P202  1  0.05295574  0.91660057  0.60971498  1
  P  P203  1  0.05555348  0.91653007  0.86185428  1
  P  P204  1  0.55255577  0.25017162  0.10904424  1
  P  P205  1  0.55346812  0.25043369  0.35969372  1
  P  P206  1  0.55500712  0.24990604  0.61171750  1
  P  P207  1  0.55545343  0.24876942  0.86074405  1
  P  P208  1  0.55215091  0.58423455  0.10972347  1
  P  P209  1  0.55448959  0.58278922  0.36091488  1
  P  P210  1  0.55289777  0.58430673  0.60954231  1
  P  P211  1  0.55291136  0.58427087  0.86176870  1
  P  P212  1  0.55283802  0.91578325  0.11149811  1
  P  P213  1  0.55379080  0.91702786  0.35937590  1
  P  P214  1  0.55168087  0.91601171  0.60986109  1
  P  P215  1  0.55160830  0.91680791  0.86033768  1
  P  P216  1  0.44469769  0.08356260  0.13833341  1
  P  P217  1  0.44647605  0.08360073  0.39129195  1
  P  P218  1  0.44415431  0.08239736  0.63963734  1
  P  P219  1  0.44599739  0.08278189  0.88935772  1
  P  P220  1  0.44390212  0.41693640  0.13900034  1
  P  P221  1  0.44703334  0.41649342  0.38929578  1
  P  P222  1  0.44730893  0.41759890  0.64034988  1
  P  P223  1  0.44592951  0.41716550  0.89083606  1
  P  P224  1  0.44488830  0.74954725  0.13926695  1
  P  P225  1  0.44455026  0.75001893  0.38946569  1
  P  P226  1  0.44607674  0.74991535  0.63822745  1
  P  P227  1  0.44694316  0.75046581  0.89077947  1
  P  P228  1  0.94502150  0.08366570  0.13822956  1
  P  P229  1  0.94757741  0.08215004  0.39039873  1
  P  P230  1  0.94476812  0.08191316  0.64002671  1
  P  P231  1  0.94604692  0.08412182  0.88903518  1
  P  P232  1  0.94595972  0.41615999  0.14076938  1
  P  P233  1  0.94757144  0.41721881  0.38858376  1
  P  P234  1  0.94586031  0.41705848  0.64088349  1
  P  P235  1  0.94656889  0.41671134  0.88861102  1
  P  P236  1  0.94599417  0.75002700  0.13862106  1
  P  P237  1  0.94743127  0.75042613  0.39010310  1
  P  P238  1  0.94540469  0.75069644  0.63947323  1
  P  P239  1  0.94728571  0.74902824  0.89098013  1
  P  P240  1  0.19504774  0.08311437  0.23588958  1
  P  P241  1  0.19726979  0.08171292  0.48476441  1
  P  P242  1  0.19630245  0.08415306  0.73663217  1
  P  P243  1  0.19758306  0.08246823  0.98470250  1
  P  P244  1  0.19678966  0.41772638  0.23565101  1
  P  P245  1  0.19627365  0.41693765  0.48438113  1
  P  P246  1  0.19516300  0.41560485  0.73667319  1
  P  P247  1  0.19749639  0.41754167  0.98466266  1
  P  P248  1  0.19668996  0.74924564  0.23587363  1
  P  P249  1  0.19749946  0.75118174  0.48474729  1
  P  P250  1  0.19576018  0.74999477  0.73646386  1
  P  P251  1  0.19825206  0.75012098  0.98432764  1
  P  P252  1  0.69668449  0.08208661  0.23476540  1
  P  P253  1  0.69898476  0.08307166  0.48537328  1
  P  P254  1  0.69654036  0.08395326  0.73636468  1
  P  P255  1  0.69692983  0.08371752  0.98426287  1
  P  P256  1  0.69663435  0.41671254  0.23526967  1
  P  P257  1  0.69595159  0.41778652  0.48422001  1
  P  P258  1  0.69844230  0.41566338  0.73582139  1
  P  P259  1  0.69599583  0.41685889  0.98553374  1
  P  P260  1  0.69543659  0.75118575  0.23404333  1
  P  P261  1  0.69642466  0.74963920  0.48665655  1
  P  P262  1  0.69367884  0.75008816  0.73589454  1
  P  P263  1  0.69491614  0.74950364  0.98547723  1
  P  P264  1  0.30372330  0.24981144  0.01548469  1
  P  P265  1  0.30466949  0.25112843  0.26387736  1
  P  P266  1  0.30302690  0.24917335  0.51519044  1
  P  P267  1  0.30197276  0.24914150  0.76553618  1
  P  P268  1  0.30441791  0.58369930  0.01387115  1
  P  P269  1  0.30402556  0.58342947  0.26362401  1
  P  P270  1  0.30375843  0.58441631  0.51589660  1
  P  P271  1  0.30585963  0.58334707  0.76460213  1
  P  P272  1  0.30457726  0.91655570  0.01393374  1
  P  P273  1  0.30473227  0.91577163  0.26360194  1
  P  P274  1  0.30224562  0.91647135  0.51540258  1
  P  P275  1  0.30596060  0.91750899  0.76457674  1
  P  P276  1  0.80403576  0.24893644  0.01380870  1
  P  P277  1  0.80488399  0.25096050  0.26359286  1
  P  P278  1  0.80387365  0.24952572  0.51473090  1
  P  P279  1  0.80348171  0.25018041  0.76613050  1
  P  P280  1  0.80315107  0.58458809  0.01362855  1
  P  P281  1  0.80329588  0.58305949  0.26474475  1
  P  P282  1  0.80183369  0.58444502  0.51478561  1
  P  P283  1  0.80394260  0.58274004  0.76641847  1
  P  P284  1  0.80288558  0.91619437  0.01426595  1
  P  P285  1  0.80283080  0.91599153  0.26555828  1
  P  P286  1  0.80593479  0.91610850  0.51461989  1
  P  P287  1  0.80447184  0.91709375  0.76411391  1
  O  O288  1  0.05581064  0.25014341  0.18595057  1
  O  O289  1  0.05626852  0.24981324  0.43686791  1
  O  O290  1  0.05846421  0.24928091  0.68794466  1
  O  O291  1  0.05636467  0.24971531  0.93658611  1
  O  O292  1  0.06046557  0.58345179  0.18675672  1
  O  O293  1  0.05730395  0.58410906  0.43602967  1
  O  O294  1  0.05620802  0.58369991  0.68675048  1
  O  O295  1  0.05933369  0.58357779  0.93859389  1
  O  O296  1  0.05715434  0.91626117  0.18534383  1
  O  O297  1  0.05808480  0.91628563  0.43810094  1
  O  O298  1  0.05718947  0.91671938  0.68644110  1
  O  O299  1  0.05995907  0.91676670  0.93848055  1
  O  O300  1  0.55650517  0.25007279  0.18578635  1
  O  O301  1  0.55663750  0.24978985  0.43653067  1
  O  O302  1  0.55986007  0.24981587  0.68845070  1
  O  O303  1  0.55947583  0.24961096  0.93749977  1
  O  O304  1  0.55582904  0.58352600  0.18647838  1
  O  O305  1  0.55870262  0.58360888  0.43762215  1
  O  O306  1  0.55612926  0.58341153  0.68635386  1
  O  O307  1  0.55777599  0.58325087  0.93836262  1
  O  O308  1  0.55780967  0.91670626  0.18799366  1
  O  O309  1  0.55729391  0.91686078  0.43613181  1
  O  O310  1  0.55542213  0.91696924  0.68653838  1
  O  O311  1  0.55493223  0.91710780  0.93691340  1
  O  O312  1  0.44078530  0.08344241  0.06155536  1
  O  O313  1  0.44336734  0.08351642  0.31444090  1
  O  O314  1  0.43979713  0.08322073  0.56289423  1
  O  O315  1  0.44154479  0.08407601  0.81267397  1
  O  O316  1  0.44006030  0.41690028  0.06220776  1
  O  O317  1  0.44167004  0.41686655  0.31260549  1
  O  O318  1  0.44443607  0.41644426  0.56357521  1
  O  O319  1  0.44331072  0.41620200  0.81403213  1
  O  O320  1  0.44056989  0.74976982  0.06254762  1
  O  O321  1  0.44037586  0.74979450  0.31267994  1
  O  O322  1  0.44149580  0.75039148  0.56162676  1
  O  O323  1  0.44422887  0.75015972  0.81392240  1
  O  O324  1  0.94072488  0.08295610  0.06147260  1
  O  O325  1  0.94411279  0.08264697  0.31363389  1
  O  O326  1  0.94109327  0.08318869  0.56324046  1
  O  O327  1  0.94131926  0.08324484  0.81234969  1
  O  O328  1  0.94306810  0.41720088  0.06345148  1
  O  O329  1  0.94219074  0.41746840  0.31203471  1
  O  O330  1  0.94287190  0.41695420  0.56404384  1
  O  O331  1  0.94195621  0.41672705  0.81228360  1
  O  O332  1  0.94092831  0.74994532  0.06197539  1
  O  O333  1  0.94376829  0.74979699  0.31340363  1
  O  O334  1  0.94129199  0.74971154  0.56270978  1
  O  O335  1  0.94339665  0.74974283  0.81426967  1
  O  O336  1  0.19398090  0.08334445  0.06142643  1
  O  O337  1  0.19036113  0.08285941  0.31262003  1
  O  O338  1  0.19376781  0.08230750  0.56149866  1
  O  O339  1  0.19122947  0.08345859  0.81329629  1
  O  O340  1  0.19412080  0.41679796  0.06137441  1
  O  O341  1  0.19169901  0.41671671  0.31231686  1
  O  O342  1  0.19314843  0.41701745  0.56119112  1
  O  O343  1  0.19091747  0.41658899  0.81346017  1
  O  O344  1  0.19508784  0.75003249  0.06107965  1
  O  O345  1  0.19184196  0.75021835  0.31250577  1
  O  O346  1  0.19404974  0.75052100  0.56150610  1
  O  O347  1  0.19116610  0.74971250  0.81313924  1
  O  O348  1  0.69314227  0.08296577  0.06101111  1
  O  O349  1  0.69397742  0.08276458  0.31153832  1
  O  O350  1  0.69465865  0.08298809  0.56208668  1
  O  O351  1  0.69126248  0.08237130  0.81298020  1
  O  O352  1  0.69294732  0.41716186  0.06210509  1
  O  O353  1  0.69173861  0.41659723  0.31194233  1
  O  O354  1  0.69343885  0.41713684  0.56111543  1
  O  O355  1  0.69422148  0.41654738  0.81245747  1
  O  O356  1  0.68994580  0.75011536  0.06216134  1
  O  O357  1  0.69291415  0.75028455  0.31090353  1
  O  O358  1  0.69134734  0.75029933  0.56331539  1
  O  O359  1  0.68894715  0.75048231  0.81267580  1
  O  O360  1  0.30891459  0.25043094  0.18716312  1
  O  O361  1  0.30594602  0.24989893  0.43838406  1
  O  O362  1  0.30565646  0.24982286  0.68884691  1
  O  O363  1  0.30640063  0.24966103  0.93868658  1
  O  O364  1  0.30816848  0.58345403  0.18691583  1
  O  O365  1  0.30615861  0.58340620  0.43902993  1
  O  O366  1  0.31023601  0.58363867  0.68789532  1
  O  O367  1  0.30886317  0.58377106  0.93712135  1
  O  O368  1  0.30888806  0.91643502  0.18680823  1
  O  O369  1  0.30547485  0.91650866  0.43862278  1
  O  O370  1  0.30963576  0.91616583  0.68783727  1
  O  O371  1  0.30878138  0.91649492  0.93716416  1
  O  O372  1  0.80848210  0.25034380  0.18675892  1
  O  O373  1  0.80688975  0.24978470  0.43801019  1
  O  O374  1  0.80657864  0.25035227  0.68894480  1
  O  O375  1  0.80902525  0.24979937  0.93724411  1
  O  O376  1  0.80657020  0.58360648  0.18797028  1
  O  O377  1  0.80581866  0.58426802  0.43810554  1
  O  O378  1  0.80652154  0.58375903  0.68960177  1
  O  O379  1  0.80855153  0.58392418  0.93708324  1
  O  O380  1  0.80661538  0.91604931  0.18883950  1
  O  O381  1  0.80974148  0.91591178  0.43777266  1
  O  O382  1  0.80862099  0.91626742  0.68743092  1
  O  O383  1  0.80604626  0.91592169  0.93737624  1
  O  O384  1  0.23403829  0.25020707  0.04095822  1
  O  O385  1  0.23468452  0.25035912  0.28807109  1
  O  O386  1  0.23340833  0.24916316  0.54053030  1
  O  O387  1  0.23214327  0.24938747  0.79054407  1
  O  O388  1  0.23398828  0.58394943  0.03761366  1
  O  O389  1  0.23391847  0.58342172  0.28801613  1
  O  O390  1  0.23425358  0.58389154  0.54163750  1
  O  O391  1  0.23569549  0.58307095  0.78830958  1
  O  O392  1  0.23427660  0.91645810  0.03812278  1
  O  O393  1  0.23474649  0.91610366  0.28772372  1
  O  O394  1  0.23237817  0.91658434  0.54071202  1
  O  O395  1  0.23591460  0.91709543  0.78866394  1
  O  O396  1  0.73358832  0.24990554  0.03740415  1
  O  O397  1  0.73501763  0.24967946  0.28818889  1
  O  O398  1  0.73436907  0.25030527  0.54029907  1
  O  O399  1  0.73355761  0.24943190  0.79070379  1
  O  O400  1  0.73275096  0.58381925  0.03716232  1
  O  O401  1  0.73353227  0.58398833  0.28954490  1
  O  O402  1  0.73194837  0.58364185  0.53983428  1
  O  O403  1  0.73412210  0.58307773  0.79138118  1
  O  O404  1  0.73324334  0.91675371  0.03928018  1
  O  O405  1  0.73282250  0.91609686  0.29015142  1
  O  O406  1  0.73596725  0.91662274  0.53924977  1
  O  O407  1  0.73442300  0.91659226  0.78830743  1
  O  O408  1  0.26521762  0.08313802  0.21231909  1
  O  O409  1  0.26728797  0.08237708  0.45992681  1
  O  O410  1  0.26667594  0.08345110  0.71315824  1
  O  O411  1  0.26782603  0.08307123  0.96048177  1
  O  O412  1  0.26709053  0.41787812  0.21203320  1
  O  O413  1  0.26607947  0.41704603  0.45947277  1
  O  O414  1  0.26517702  0.41598298  0.71242136  1
  O  O415  1  0.26770489  0.41672010  0.96032803  1
  O  O416  1  0.26695432  0.74956734  0.21191799  1
  O  O417  1  0.26750673  0.75046618  0.46003465  1
  O  O418  1  0.26598482  0.75046873  0.71290723  1
  O  O419  1  0.26838663  0.74990357  0.95967628  1
  O  O420  1  0.76632061  0.08298342  0.20944742  1
  O  O421  1  0.76909387  0.08243238  0.46101845  1
  O  O422  1  0.76702475  0.08430944  0.71310829  1
  O  O423  1  0.76714130  0.08292577  0.96001172  1
  O  O424  1  0.76681950  0.41707422  0.21126220  1
  O  O425  1  0.76562278  0.41698723  0.45884385  1
  O  O426  1  0.76845932  0.41651788  0.71129317  1
  O  O427  1  0.76601306  0.41641621  0.96054926  1
  O  O428  1  0.76506906  0.74999993  0.20874584  1
  O  O429  1  0.76674688  0.75027983  0.46279761  1
  O  O430  1  0.76401581  0.74982445  0.71276655  1
  O  O431  1  0.76532420  0.75003380  0.96176582  1
  O  O432  1  0.01498375  0.08278652  0.16256065  1
  O  O433  1  0.01757876  0.08273087  0.41525473  1
  O  O434  1  0.01473219  0.08229568  0.66433258  1
  O  O435  1  0.01655353  0.08396685  0.91249913  1
  O  O436  1  0.01567452  0.41647219  0.16536167  1
  O  O437  1  0.01799939  0.41734194  0.41204414  1
  O  O438  1  0.01550004  0.41728245  0.66590200  1
  O  O439  1  0.01691738  0.41651542  0.91284593  1
  O  O440  1  0.01621131  0.75029323  0.16209443  1
  O  O441  1  0.01756944  0.75017939  0.41461132  1
  O  O442  1  0.01530704  0.75038567  0.66400455  1
  O  O443  1  0.01751878  0.74966248  0.91514365  1
  O  O444  1  0.51468696  0.08349225  0.16275465  1
  O  O445  1  0.51608294  0.08338504  0.41649994  1
  O  O446  1  0.51435570  0.08266730  0.66347343  1
  O  O447  1  0.51628422  0.08293305  0.91334784  1
  O  O448  1  0.51397471  0.41726636  0.16328525  1
  O  O449  1  0.51732845  0.41652211  0.41278277  1
  O  O450  1  0.51681147  0.41785304  0.66611295  1
  O  O451  1  0.51558883  0.41662960  0.91602982  1
  O  O452  1  0.51520697  0.74970405  0.16325400  1
  O  O453  1  0.51470013  0.75020096  0.41314455  1
  O  O454  1  0.51624656  0.75006151  0.66259089  1
  O  O455  1  0.51683613  0.75042246  0.91587160  1
  O  O456  1  0.48232866  0.24984845  0.08502854  1
  O  O457  1  0.48385239  0.25005358  0.33441532  1
  O  O458  1  0.48483664  0.25000995  0.58803533  1
  O  O459  1  0.48529163  0.24968420  0.83670971  1
  O  O460  1  0.48188542  0.58361887  0.08575318  1
  O  O461  1  0.48445640  0.58354456  0.33669228  1
  O  O462  1  0.48297964  0.58359337  0.58456821  1
  O  O463  1  0.48251523  0.58443508  0.83810999  1
  O  O464  1  0.48235467  0.91589992  0.08790390  1
  O  O465  1  0.48389901  0.91687303  0.33482493  1
  O  O466  1  0.48164056  0.91619152  0.58525727  1
  O  O467  1  0.48165181  0.91650428  0.83529377  1
  O  O468  1  0.98143506  0.25049681  0.08494004  1
  O  O469  1  0.98421688  0.24915503  0.33440576  1
  O  O470  1  0.98426366  0.25001173  0.58698499  1
  O  O471  1  0.98269760  0.24987564  0.83531453  1
  O  O472  1  0.98580256  0.58275109  0.08644927  1
  O  O473  1  0.98519019  0.58422549  0.33362008  1
  O  O474  1  0.98326435  0.58328315  0.58475474  1
  O  O475  1  0.98374999  0.58364959  0.83830973  1
  O  O476  1  0.98461273  0.91685276  0.08354212  1
  O  O477  1  0.98334402  0.91607683  0.33699012  1
  O  O478  1  0.98278553  0.91658958  0.58587239  1
  O  O479  1  0.98538243  0.91615572  0.83770042  1
  O  O480  1  0.08542848  0.31516215  0.07656274  1
  O  O481  1  0.08778530  0.31465345  0.32751443  1
  O  O482  1  0.08805880  0.31460244  0.57841997  1
  O  O483  1  0.08688079  0.31488428  0.82735083  1
  O  O484  1  0.08957038  0.64795032  0.07658289  1
  O  O485  1  0.08909003  0.64955021  0.32717645  1
  O  O486  1  0.08687032  0.64866971  0.57751808  1
  O  O487  1  0.08730323  0.64881855  0.82857274  1
  O  O488  1  0.08881444  0.98162167  0.07625610  1
  O  O489  1  0.08684176  0.98146813  0.32824300  1
  O  O490  1  0.08674031  0.98151106  0.57664584  1
  O  O491  1  0.08846492  0.98192407  0.82852159  1
  O  O492  1  0.58615602  0.31531803  0.07636165  1
  O  O493  1  0.58741567  0.31560201  0.32728858  1
  O  O494  1  0.58836363  0.31507198  0.57869457  1
  O  O495  1  0.58963143  0.31347934  0.82744868  1
  O  O496  1  0.58570994  0.64947749  0.07716242  1
  O  O497  1  0.58817802  0.64781796  0.32778037  1
  O  O498  1  0.58658122  0.64957148  0.57705817  1
  O  O499  1  0.58619738  0.64934039  0.82879661  1
  O  O500  1  0.58588780  0.98060417  0.07733469  1
  O  O501  1  0.58783506  0.98205926  0.32681052  1
  O  O502  1  0.58563873  0.98096306  0.57696313  1
  O  O503  1  0.58542004  0.98190160  0.82735255  1
  O  O504  1  0.41116792  0.01842356  0.17133941  1
  O  O505  1  0.41193266  0.01860242  0.42351562  1
  O  O506  1  0.41067075  0.01712481  0.67220819  1
  O  O507  1  0.41247617  0.01756560  0.92213087  1
  O  O508  1  0.41053392  0.35171150  0.17195193  1
  O  O509  1  0.41381431  0.35152396  0.42278366  1
  O  O510  1  0.41319453  0.35254516  0.67315700  1
  O  O511  1  0.41129589  0.35233302  0.92327819  1
  O  O512  1  0.41161812  0.68424726  0.17233561  1
  O  O513  1  0.41095366  0.68520477  0.42277576  1
  O  O514  1  0.41298916  0.68462972  0.67147590  1
  O  O515  1  0.41260686  0.68569794  0.92342409  1
  O  O516  1  0.91124656  0.01880269  0.17156976  1
  O  O517  1  0.91374596  0.01697294  0.42274825  1
  O  O518  1  0.91114440  0.01674812  0.67255112  1
  O  O519  1  0.91269162  0.01917207  0.92279200  1
  O  O520  1  0.91174449  0.35097406  0.17224689  1
  O  O521  1  0.91453365  0.35207358  0.42202604  1
  O  O522  1  0.91182490  0.35177383  0.67348028  1
  O  O523  1  0.91313392  0.35152111  0.92185167  1
  O  O524  1  0.91295890  0.68487535  0.17206682  1
  O  O525  1  0.91335222  0.68557285  0.42327181  1
  O  O526  1  0.91153129  0.68585774  0.67270495  1
  O  O527  1  0.91356105  0.68397179  0.92373500  1
  O  O528  1  0.16178937  0.01808391  0.20258074  1
  O  O529  1  0.16351404  0.01642837  0.45231500  1
  O  O530  1  0.16303462  0.01918465  0.70291234  1
  O  O531  1  0.16412209  0.01731574  0.95197552  1
  O  O532  1  0.16377655  0.35267377  0.20175707  1
  O  O533  1  0.16205779  0.35191939  0.45185589  1
  O  O534  1  0.16181713  0.35024458  0.70424300  1
  O  O535  1  0.16298849  0.35279375  0.95193498  1
  O  O536  1  0.16366086  0.68402673  0.20271447  1
  O  O537  1  0.16313632  0.68645298  0.45182213  1
  O  O538  1  0.16276100  0.68492939  0.70294931  1
  O  O539  1  0.16401979  0.68521835  0.95167243  1
  O  O540  1  0.66301251  0.01662581  0.20260786  1
  O  O541  1  0.66487419  0.01821496  0.45270636  1
  O  O542  1  0.66371188  0.01900808  0.70209262  1
  O  O543  1  0.66264371  0.01896821  0.95119096  1
  O  O544  1  0.66330929  0.35164651  0.20193604  1
  O  O545  1  0.66123741  0.35300492  0.45171036  1
  O  O546  1  0.66511060  0.35038082  0.70323944  1
  O  O547  1  0.66206790  0.35170216  0.95324207  1
  O  O548  1  0.66028676  0.68671988  0.20135458  1
  O  O549  1  0.66330545  0.68448147  0.45338493  1
  O  O550  1  0.66021873  0.68493892  0.70291963  1
  O  O551  1  0.66167135  0.68430633  0.95237333  1
  O  O552  1  0.33828925  0.31482800  0.04747383  1
  O  O553  1  0.33776058  0.31659575  0.29673714  1
  O  O554  1  0.33707534  0.31428169  0.54781912  1
  O  O555  1  0.33615582  0.31401274  0.79830608  1
  O  O556  1  0.33787440  0.64871573  0.04717806  1
  O  O557  1  0.33745811  0.64849534  0.29669923  1
  O  O558  1  0.33784899  0.64986989  0.54754153  1
  O  O559  1  0.33919979  0.64850391  0.79801654  1
  O  O560  1  0.33805304  0.98162193  0.04702994  1
  O  O561  1  0.33829090  0.98070017  0.29694612  1
  O  O562  1  0.33661669  0.98137472  0.54782533  1
  O  O563  1  0.33941290  0.98277900  0.79717621  1
  O  O564  1  0.83790058  0.31379552  0.04746029  1
  O  O565  1  0.83797226  0.31641082  0.29634938  1
  O  O566  1  0.83839836  0.31461589  0.54687583  1
  O  O567  1  0.83716984  0.31525240  0.79867957  1
  O  O568  1  0.83607423  0.64974354  0.04701826  1
  O  O569  1  0.83757010  0.64797816  0.29736319  1
  O  O570  1  0.83541955  0.64956481  0.54771560  1
  O  O571  1  0.83826120  0.64762953  0.79919788  1
  O  O572  1  0.83723074  0.98133612  0.04620732  1
  O  O573  1  0.83711839  0.98087535  0.29830037  1
  O  O574  1  0.84007709  0.98104530  0.54726185  1
  O  O575  1  0.83790575  0.98239021  0.79685579  1
  O  O576  1  0.41134560  0.14885311  0.17120244  1
  O  O577  1  0.41211241  0.14843549  0.42372240  1
  O  O578  1  0.41055456  0.14727175  0.67344597  1
  O  O579  1  0.41229954  0.14754322  0.92302812  1
  O  O580  1  0.41023882  0.48209328  0.17200283  1
  O  O581  1  0.41372028  0.48148255  0.42276397  1
  O  O582  1  0.41282202  0.48279054  0.67182862  1
  O  O583  1  0.41185616  0.48239021  0.92285018  1
  O  O584  1  0.41119663  0.81443404  0.17254766  1
  O  O585  1  0.41090706  0.81499161  0.42260766  1
  O  O586  1  0.41251076  0.81480454  0.67174700  1
  O  O587  1  0.41289812  0.81559539  0.92307788  1
  O  O588  1  0.91199240  0.14914191  0.17098085  1
  O  O589  1  0.91328485  0.14696634  0.42328266  1
  O  O590  1  0.91075558  0.14688744  0.67338490  1
  O  O591  1  0.91256969  0.14919321  0.92190979  1
  O  O592  1  0.91164151  0.48102626  0.17319230  1
  O  O593  1  0.91432992  0.48220993  0.42221466  1
  O  O594  1  0.91128935  0.48175229  0.67332488  1
  O  O595  1  0.91330412  0.48176023  0.92239786  1
  O  O596  1  0.91264045  0.81504343  0.17195574  1
  O  O597  1  0.91341045  0.81540752  0.42269143  1
  O  O598  1  0.91204359  0.81605445  0.67222263  1
  O  O599  1  0.91302549  0.81389303  0.92387593  1
  O  O600  1  0.08511044  0.18516874  0.07634257  1
  O  O601  1  0.08794277  0.18415307  0.32821083  1
  O  O602  1  0.08755677  0.18443363  0.57813687  1
  O  O603  1  0.08678584  0.18478561  0.82703003  1
  O  O604  1  0.08963984  0.51803677  0.07694032  1
  O  O605  1  0.08929662  0.51929957  0.32680584  1
  O  O606  1  0.08720436  0.51866600  0.57764079  1
  O  O607  1  0.08724864  0.51843071  0.82853754  1
  O  O608  1  0.08884490  0.85186874  0.07603284  1
  O  O609  1  0.08711101  0.85116163  0.32821677  1
  O  O610  1  0.08680637  0.85172358  0.57662416  1
  O  O611  1  0.08899533  0.85132679  0.82896862  1
  O  O612  1  0.58673005  0.18537071  0.07616381  1
  O  O613  1  0.58762740  0.18524753  0.32736994  1
  O  O614  1  0.58819359  0.18479555  0.57826277  1
  O  O615  1  0.58852717  0.18331888  0.82797802  1
  O  O616  1  0.58630126  0.51953680  0.07662809  1
  O  O617  1  0.58760333  0.51748969  0.32788028  1
  O  O618  1  0.58753148  0.51962820  0.57692587  1
  O  O619  1  0.58587032  0.51918564  0.82781778  1
  O  O620  1  0.58583206  0.85054386  0.07820781  1
  O  O621  1  0.58785652  0.85201429  0.32669600  1
  O  O622  1  0.58554123  0.85094517  0.57738234  1
  O  O623  1  0.58561299  0.85168817  0.82796593  1
  O  O624  1  0.33781721  0.18461917  0.04771456  1
  O  O625  1  0.33847780  0.18627520  0.29711688  1
  O  O626  1  0.33710041  0.18396090  0.54714555  1
  O  O627  1  0.33605956  0.18411734  0.79802312  1
  O  O628  1  0.33751263  0.51854197  0.04718678  1
  O  O629  1  0.33752758  0.51838920  0.29694121  1
  O  O630  1  0.33863241  0.51972082  0.54831743  1
  O  O631  1  0.33960597  0.51854109  0.79783372  1
  O  O632  1  0.33804584  0.85137048  0.04699861  1
  O  O633  1  0.33806253  0.85057015  0.29635063  1
  O  O634  1  0.33637949  0.85132725  0.54794936  1
  O  O635  1  0.33984094  0.85273792  0.79814352  1
  O  O636  1  0.83687468  0.18356162  0.04688564  1
  O  O637  1  0.83921250  0.18616432  0.29644236  1
  O  O638  1  0.83775511  0.18428864  0.54712900  1
  O  O639  1  0.83796740  0.18532336  0.79826380  1
  O  O640  1  0.83674762  0.51950479  0.04707042  1
  O  O641  1  0.83692811  0.51778068  0.29722944  1
  O  O642  1  0.83603953  0.51936670  0.54717293  1
  O  O643  1  0.83820377  0.51759966  0.79838726  1
  O  O644  1  0.83663104  0.85096862  0.04678303  1
  O  O645  1  0.83680039  0.85096236  0.29831597  1
  O  O646  1  0.83936780  0.85086050  0.54764311  1
  O  O647  1  0.83819243  0.85227149  0.79760670  1
  O  O648  1  0.16177013  0.14824746  0.20258636  1
  O  O649  1  0.16288742  0.14644049  0.45184961  1
  O  O650  1  0.16327729  0.14925462  0.70341089  1
  O  O651  1  0.16328954  0.14728766  0.95181628  1
  O  O652  1  0.16347569  0.48280536  0.20269094  1
  O  O653  1  0.16207788  0.48196508  0.45189659  1
  O  O654  1  0.16174632  0.48063057  0.70330854  1
  O  O655  1  0.16405694  0.48275899  0.95193199  1
  O  O656  1  0.16330540  0.81411858  0.20215316  1
  O  O657  1  0.16373330  0.81640594  0.45219768  1
  O  O658  1  0.16232555  0.81503709  0.70332679  1
  O  O659  1  0.16436052  0.81521529  0.95182665  1
  O  O660  1  0.66206393  0.14681054  0.20211415  1
  O  O661  1  0.66565606  0.14827796  0.45242925  1
  O  O662  1  0.66326754  0.14918409  0.70361255  1
  O  O663  1  0.66338855  0.14895242  0.95183923  1
  O  O664  1  0.66291844  0.48172910  0.20217566  1
  O  O665  1  0.66198461  0.48313398  0.45232464  1
  O  O666  1  0.66429851  0.48061597  0.70292006  1
  O  O667  1  0.66240017  0.48202308  0.95269266  1
  O  O668  1  0.66165215  0.81666330  0.20213773  1
  O  O669  1  0.66289260  0.81453791  0.45311639  1
  O  O670  1  0.66037635  0.81497948  0.70218163  1
  O  O671  1  0.66129184  0.81437263  0.95189047  1
