# generated using pymatgen
data_Na2MnFe(PO4)2
_symmetry_space_group_name_H-M   'P 1'
_cell_length_a   21.08209411
_cell_length_b   18.93485135
_cell_length_c   20.04136578
_cell_angle_alpha   90.00007746
_cell_angle_beta   89.99981996
_cell_angle_gamma   90.00158887
_symmetry_Int_Tables_number   1
_chemical_formula_structural   Na2MnFe(PO4)2
_chemical_formula_sum   'Na96 Mn48 Fe48 P96 O384'
_cell_volume   8000.23901336
_cell_formula_units_Z   48
loop_
 _symmetry_equiv_pos_site_id
 _symmetry_equiv_pos_as_xyz
  1  'x, y, z'
loop_
 _atom_site_type_symbol
 _atom_site_label
 _atom_site_symmetry_multiplicity
 _atom_site_fract_x
 _atom_site_fract_y
 _atom_site_fract_z
 _atom_site_occupancy
  Na  Na0  1  0.00043682  -0.00074779  0.00056258  1
  Na  Na1  1  0.00139245  0.00010298  0.24940080  1
  Na  Na2  1  0.00079216  -0.00058732  0.50118501  1
  Na  Na3  1  0.00146398  0.00009937  0.74976918  1
  Na  Na4  1  0.00148843  0.33388143  -0.00113916  1
  Na  Na5  1  0.00082170  0.33349488  0.24901485  1
  Na  Na6  1  -0.00118324  0.33332446  0.50031403  1
  Na  Na7  1  -0.00071634  0.33365822  0.75055406  1
  Na  Na8  1  -0.00141133  0.66598041  0.00001021  1
  Na  Na9  1  0.00026780  0.66667572  0.25031732  1
  Na  Na10  1  -0.00226399  0.66653535  0.50016176  1
  Na  Na11  1  -0.00276151  0.66663411  0.74979860  1
  Na  Na12  1  0.49596558  -0.00060070  0.00006676  1
  Na  Na13  1  0.49671359  -0.00055344  0.25043067  1
  Na  Na14  1  0.49799335  -0.00045583  0.49927348  1
  Na  Na15  1  0.49799984  0.00012293  0.74933698  1
  Na  Na16  1  0.49976186  0.33304477  0.00069113  1
  Na  Na17  1  0.49845610  0.33224391  0.25095990  1
  Na  Na18  1  0.50157881  0.33331671  0.49901903  1
  Na  Na19  1  0.50042736  0.33307023  0.75029820  1
  Na  Na20  1  0.49847636  0.66615402  -0.00102859  1
  Na  Na21  1  0.50191477  0.66734215  0.25128687  1
  Na  Na22  1  0.50189336  0.66693312  0.49972343  1
  Na  Na23  1  0.49908637  0.66652484  0.74986903  1
  Na  Na24  1  0.25212839  0.00037649  0.12625926  1
  Na  Na25  1  0.25039223  -0.00054624  0.37456417  1
  Na  Na26  1  0.25106194  -0.00042035  0.62428629  1
  Na  Na27  1  0.25225369  0.00009680  0.87413459  1
  Na  Na28  1  0.24914317  0.33340195  0.12618978  1
  Na  Na29  1  0.25032860  0.33422815  0.37527671  1
  Na  Na30  1  0.24802433  0.33270870  0.62368373  1
  Na  Na31  1  0.24871099  0.33312133  0.87504690  1
  Na  Na32  1  0.25020678  0.66590259  0.12492833  1
  Na  Na33  1  0.24861712  0.66578018  0.37566761  1
  Na  Na34  1  0.25122975  0.66695295  0.62529668  1
  Na  Na35  1  0.25283701  0.66722240  0.87441571  1
  Na  Na36  1  0.75075222  0.00064952  0.12570362  1
  Na  Na37  1  0.75101101  0.00075806  0.37589307  1
  Na  Na38  1  0.74894698  -0.00100571  0.62445843  1
  Na  Na39  1  0.75051529  0.00041865  0.87489249  1
  Na  Na40  1  0.74893103  0.33215914  0.12507670  1
  Na  Na41  1  0.75099297  0.33300029  0.37559888  1
  Na  Na42  1  0.75247453  0.33370272  0.62435770  1
  Na  Na43  1  0.75075638  0.33317108  0.87430592  1
  Na  Na44  1  0.75021935  0.66709072  0.12500243  1
  Na  Na45  1  0.74882035  0.66691060  0.37449100  1
  Na  Na46  1  0.75029793  0.66717587  0.62470079  1
  Na  Na47  1  0.75120976  0.66722471  0.87567467  1
  Na  Na48  1  0.00073615  0.16623389  0.00018796  1
  Na  Na49  1  0.00013259  0.16608148  0.24920240  1
  Na  Na50  1  -0.00277257  0.16724457  0.50065029  1
  Na  Na51  1  -0.00195404  0.16712283  0.75066679  1
  Na  Na52  1  -0.00208214  0.50050519  -0.00007877  1
  Na  Na53  1  0.00149211  0.49918945  0.24919614  1
  Na  Na54  1  -0.00009895  0.49961411  0.49998474  1
  Na  Na55  1  -0.00281747  0.50057438  0.74951085  1
  Na  Na56  1  0.00232825  0.83342264  -0.00060790  1
  Na  Na57  1  0.00048811  0.83445743  0.25048773  1
  Na  Na58  1  0.00089938  0.83356993  0.50096109  1
  Na  Na59  1  0.00168245  0.83319504  0.74979649  1
  Na  Na60  1  0.49834025  0.16721003  0.00009643  1
  Na  Na61  1  0.49799576  0.16754395  0.25009798  1
  Na  Na62  1  0.50060168  0.16619574  0.49898125  1
  Na  Na63  1  0.50038929  0.16615104  0.74989200  1
  Na  Na64  1  0.49769674  0.50060188  0.00062285  1
  Na  Na65  1  0.49813887  0.50087080  0.25152024  1
  Na  Na66  1  0.50003939  0.50007372  0.49924362  1
  Na  Na67  1  0.49846740  0.50100690  0.74964905  1
  Na  Na68  1  0.49885858  0.83291396  -0.00065297  1
  Na  Na69  1  0.49951695  0.83397558  0.25068426  1
  Na  Na70  1  0.50207406  0.83264138  0.50009656  1
  Na  Na71  1  0.49789647  0.83434432  0.74959241  1
  Na  Na72  1  0.25225980  0.16593427  0.12707034  1
  Na  Na73  1  0.25192172  0.16603161  0.37443296  1
  Na  Na74  1  0.25224832  0.16570485  0.62420702  1
  Na  Na75  1  0.25205282  0.16637593  0.87498808  1
  Na  Na76  1  0.25083817  0.49940835  0.12527398  1
  Na  Na77  1  0.24800810  0.49993330  0.37548105  1
  Na  Na78  1  0.24971886  0.49984848  0.62498194  1
  Na  Na79  1  0.25120621  0.49972952  0.87491877  1
  Na  Na80  1  0.24889398  0.83434578  0.12498826  1
  Na  Na81  1  0.24946336  0.83368799  0.37558201  1
  Na  Na82  1  0.24915111  0.83430568  0.62402359  1
  Na  Na83  1  0.25008490  0.83399191  0.87397153  1
  Na  Na84  1  0.74941160  0.16667719  0.12523688  1
  Na  Na85  1  0.74993671  0.16658677  0.37619411  1
  Na  Na86  1  0.74962469  0.16673627  0.62422585  1
  Na  Na87  1  0.74923300  0.16673155  0.87372678  1
  Na  Na88  1  0.75227876  0.49919375  0.12475507  1
  Na  Na89  1  0.75066356  0.50041302  0.37419533  1
  Na  Na90  1  0.75260976  0.50013207  0.62522149  1
  Na  Na91  1  0.75384935  0.49941806  0.87502485  1
  Na  Na92  1  0.74880689  0.83377021  0.12551600  1
  Na  Na93  1  0.75008559  0.83307249  0.37565985  1
  Na  Na94  1  0.74966992  0.83309402  0.62395847  1
  Na  Na95  1  0.75007713  0.83270603  0.87631965  1
  Mn  Mn96  1  0.64289427  0.58342089  0.74803272  1
  Mn  Mn97  1  0.14213154  0.24927912  0.74721211  1
  Mn  Mn98  1  0.14249031  0.24992594  0.24834165  1
  Mn  Mn99  1  0.85785756  0.75080194  0.00309263  1
  Mn  Mn100  1  0.64100871  0.91777957  0.99810577  1
  Mn  Mn101  1  0.10825936  0.74925048  0.87220179  1
  Mn  Mn102  1  0.64256574  0.25038499  0.74725862  1
  Mn  Mn103  1  0.60693994  0.41731180  0.12297215  1
  Mn  Mn104  1  0.10726680  0.75003023  0.37282059  1
  Mn  Mn105  1  0.10897903  0.08337610  0.87306804  1
  Mn  Mn106  1  0.60903323  0.41691506  0.62238236  1
  Mn  Mn107  1  0.85840026  0.41585050  0.25213369  1
  Mn  Mn108  1  0.35788948  0.75038379  0.00288289  1
  Mn  Mn109  1  0.39215337  0.58367982  0.37775736  1
  Mn  Mn110  1  0.89274689  0.91665562  0.87725553  1
  Mn  Mn111  1  0.10716335  0.41734288  0.87265971  1
  Mn  Mn112  1  0.35781479  0.74930929  0.25273780  1
  Mn  Mn113  1  0.60703100  0.75008806  0.87252878  1
  Mn  Mn114  1  0.10839328  0.74928050  0.12261588  1
  Mn  Mn115  1  0.35773789  0.41570338  0.00288144  1
  Mn  Mn116  1  0.64120933  0.91627331  0.74790126  1
  Mn  Mn117  1  0.14235188  0.58341286  0.99717042  1
  Mn  Mn118  1  0.60834960  0.41741865  0.87307313  1
  Mn  Mn119  1  0.60712416  0.08292648  0.37296020  1
  Mn  Mn120  1  0.89278363  0.91622248  0.12724710  1
  Mn  Mn121  1  0.10831607  0.08380799  0.62238819  1
  Mn  Mn122  1  0.35823282  0.75020989  0.50268334  1
  Mn  Mn123  1  0.35733910  0.41638515  0.50265953  1
  Mn  Mn124  1  0.89195555  0.24969491  0.87811012  1
  Mn  Mn125  1  0.60618602  0.08281589  0.12285456  1
  Mn  Mn126  1  0.39174065  0.25066715  0.87756126  1
  Mn  Mn127  1  0.39302471  0.25041476  0.62668209  1
  Mn  Mn128  1  0.64212804  0.58242853  0.24690394  1
  Mn  Mn129  1  0.14200551  0.58398976  0.74744087  1
  Mn  Mn130  1  0.60686599  0.08279926  0.87334765  1
  Mn  Mn131  1  0.89235147  0.25017022  0.12665234  1
  Mn  Mn132  1  0.60833027  0.41654209  0.37281683  1
  Mn  Mn133  1  0.64162319  0.91775271  0.24792995  1
  Mn  Mn134  1  0.14125865  0.58372796  0.49854112  1
  Mn  Mn135  1  0.85754825  0.75066811  0.25225484  1
  Mn  Mn136  1  0.89252205  0.91651926  0.62740577  1
  Mn  Mn137  1  0.85746217  0.08232621  0.75221896  1
  Mn  Mn138  1  0.14129142  0.24876453  0.49725940  1
  Mn  Mn139  1  0.89247509  0.58366827  0.37736815  1
  Mn  Mn140  1  0.35776293  0.41654789  0.75156367  1
  Mn  Mn141  1  0.64237579  0.58236267  0.99834249  1
  Mn  Mn142  1  0.85827363  0.08336219  0.25272310  1
  Mn  Mn143  1  0.10909963  0.08397699  0.12228517  1
  Fe  Fe144  1  0.10762906  0.41679498  0.12293668  1
  Fe  Fe145  1  0.89234978  0.24922303  0.37623979  1
  Fe  Fe146  1  0.64330331  0.58312279  0.49934552  1
  Fe  Fe147  1  0.14421254  0.91675948  0.74829546  1
  Fe  Fe148  1  0.85804135  0.41701396  0.75185873  1
  Fe  Fe149  1  0.35773973  0.75015929  0.75034414  1
  Fe  Fe150  1  0.14251864  0.58348168  0.24803697  1
  Fe  Fe151  1  0.39306928  0.91601899  0.62592138  1
  Fe  Fe152  1  0.64212024  0.24990965  0.99902400  1
  Fe  Fe153  1  0.60631755  0.75005418  0.12376850  1
  Fe  Fe154  1  0.85659045  0.75036292  0.50195813  1
  Fe  Fe155  1  0.85739474  0.08284551  0.50179530  1
  Fe  Fe156  1  0.14401036  0.91751552  0.99824081  1
  Fe  Fe157  1  0.39152007  0.91614245  0.87675502  1
  Fe  Fe158  1  0.89328128  0.58348663  0.12668862  1
  Fe  Fe159  1  0.10668632  0.41580607  0.37345875  1
  Fe  Fe160  1  0.64226710  0.24987407  0.24844486  1
  Fe  Fe161  1  0.39229718  0.91635752  0.37737552  1
  Fe  Fe162  1  0.39317563  0.58361124  0.62615873  1
  Fe  Fe163  1  0.14353470  0.24916362  0.99878991  1
  Fe  Fe164  1  0.14326852  0.91708812  0.49801429  1
  Fe  Fe165  1  0.10584431  0.41719652  0.62381514  1
  Fe  Fe166  1  0.35644692  0.41663035  0.25201007  1
  Fe  Fe167  1  0.64407147  0.25017119  0.49828062  1
  Fe  Fe168  1  0.10700143  0.08375897  0.37422234  1
  Fe  Fe169  1  0.39278979  0.25000252  0.37728836  1
  Fe  Fe170  1  0.89186537  0.58370724  0.62622338  1
  Fe  Fe171  1  0.39177936  0.91582669  0.12729537  1
  Fe  Fe172  1  0.10715923  0.74922249  0.62358719  1
  Fe  Fe173  1  0.85810468  0.41705099  0.50118136  1
  Fe  Fe174  1  0.35704068  0.08363945  0.25251939  1
  Fe  Fe175  1  0.64248781  0.91684410  0.49822557  1
  Fe  Fe176  1  0.60775845  0.75047703  0.37359027  1
  Fe  Fe177  1  0.60762497  0.75032885  0.62384315  1
  Fe  Fe178  1  0.35805175  0.08329085  0.75109045  1
  Fe  Fe179  1  0.39237969  0.58319271  0.87650481  1
  Fe  Fe180  1  0.89233495  0.25006096  0.62657240  1
  Fe  Fe181  1  0.60689734  0.08264942  0.62289399  1
  Fe  Fe182  1  0.14329067  0.91633553  0.24902155  1
  Fe  Fe183  1  0.89222663  0.58408091  0.87712477  1
  Fe  Fe184  1  0.89319185  0.91750431  0.37714289  1
  Fe  Fe185  1  0.39211551  0.58325587  0.12753797  1
  Fe  Fe186  1  0.85745079  0.75049428  0.75148837  1
  Fe  Fe187  1  0.35723624  0.08391863  0.00216906  1
  Fe  Fe188  1  0.85732715  0.41547893  0.00225311  1
  Fe  Fe189  1  0.35718348  0.08350179  0.50146135  1
  Fe  Fe190  1  0.85721637  0.08364459  0.00133906  1
  Fe  Fe191  1  0.39201033  0.25081132  0.12754318  1
  P  P192  1  0.05451708  0.25084121  0.10913029  1
  P  P193  1  0.05162209  0.24925521  0.36024407  1
  P  P194  1  0.05174551  0.25068144  0.61019876  1
  P  P195  1  0.05460237  0.24966541  0.86099496  1
  P  P196  1  0.05377021  0.58252060  0.11069988  1
  P  P197  1  0.05378971  0.58257001  0.35950486  1
  P  P198  1  0.05132061  0.58369547  0.61047013  1
  P  P199  1  0.05152021  0.58329631  0.85947651  1
  P  P200  1  0.05623004  0.91668613  0.11040575  1
  P  P201  1  0.05429331  0.91795860  0.36113709  1
  P  P202  1  0.05621209  0.91574331  0.61099689  1
  P  P203  1  0.05621656  0.91693430  0.86011384  1
  P  P204  1  0.55287574  0.24991757  0.11105448  1
  P  P205  1  0.55437725  0.24967222  0.36072578  1
  P  P206  1  0.55460010  0.24912472  0.60886113  1
  P  P207  1  0.55449105  0.25001790  0.86111669  1
  P  P208  1  0.55140407  0.58387762  0.11020889  1
  P  P209  1  0.55545268  0.58382873  0.36168200  1
  P  P210  1  0.55324425  0.58420060  0.60970828  1
  P  P211  1  0.55214613  0.58324767  0.85992355  1
  P  P212  1  0.55083124  0.91631393  0.11027814  1
  P  P213  1  0.55312711  0.91645962  0.36147245  1
  P  P214  1  0.55280851  0.91677947  0.60946367  1
  P  P215  1  0.55074629  0.91695757  0.85985127  1
  P  P216  1  0.44355047  0.08363947  0.13967085  1
  P  P217  1  0.44404200  0.08352031  0.38920895  1
  P  P218  1  0.44608801  0.08264180  0.63847270  1
  P  P219  1  0.44393682  0.08280600  0.88944879  1
  P  P220  1  0.44550509  0.41659815  0.14147182  1
  P  P221  1  0.44527477  0.41597019  0.38907994  1
  P  P222  1  0.44760371  0.41715092  0.63960471  1
  P  P223  1  0.44664594  0.41732502  0.89025479  1
  P  P224  1  0.44719143  0.74959650  0.14042558  1
  P  P225  1  0.44783714  0.75059517  0.39035374  1
  P  P226  1  0.44764071  0.75011133  0.63975846  1
  P  P227  1  0.44445603  0.75000910  0.88823609  1
  P  P228  1  0.94612818  0.08336040  0.13886111  1
  P  P229  1  0.94732601  0.08281521  0.39070038  1
  P  P230  1  0.94559567  0.08351255  0.63906581  1
  P  P231  1  0.94664100  0.08278282  0.89108198  1
  P  P232  1  0.94674519  0.41687769  0.13849405  1
  P  P233  1  0.94720286  0.41578886  0.39007061  1
  P  P234  1  0.94499007  0.41676401  0.63893093  1
  P  P235  1  0.94426879  0.41749814  0.88960684  1
  P  P236  1  0.94724268  0.74959292  0.14038846  1
  P  P237  1  0.94577522  0.75152164  0.39088068  1
  P  P238  1  0.94570803  0.74990934  0.63924949  1
  P  P239  1  0.94576395  0.75000522  0.88906370  1
  P  P240  1  0.19650915  0.08275471  0.23713169  1
  P  P241  1  0.19737525  0.08251091  0.48407420  1
  P  P242  1  0.19872850  0.08258424  0.73464353  1
  P  P243  1  0.19884018  0.08356235  0.98538166  1
  P  P244  1  0.19515892  0.41721182  0.23602366  1
  P  P245  1  0.19375182  0.41649545  0.48567129  1
  P  P246  1  0.19560717  0.41691776  0.73393400  1
  P  P247  1  0.19550584  0.41582980  0.98616197  1
  P  P248  1  0.19667177  0.74984106  0.23539995  1
  P  P249  1  0.19545650  0.75057659  0.48641091  1
  P  P250  1  0.19767260  0.75060879  0.73417057  1
  P  P251  1  0.19717228  0.75060831  0.98454292  1
  P  P252  1  0.69625410  0.08433336  0.23528513  1
  P  P253  1  0.69623187  0.08304688  0.48651775  1
  P  P254  1  0.69551289  0.08287281  0.73388481  1
  P  P255  1  0.69715139  0.08415614  0.98517360  1
  P  P256  1  0.69689790  0.41533692  0.23476054  1
  P  P257  1  0.69869206  0.41701650  0.48523200  1
  P  P258  1  0.69896676  0.41727573  0.73486889  1
  P  P259  1  0.69799779  0.41596284  0.98520593  1
  P  P260  1  0.69443689  0.75052220  0.23533665  1
  P  P261  1  0.69542675  0.75005816  0.48605002  1
  P  P262  1  0.69731137  0.74991356  0.73445929  1
  P  P263  1  0.69471944  0.74987752  0.98648030  1
  P  P264  1  0.30273664  0.24951772  0.01635826  1
  P  P265  1  0.30515429  0.25079892  0.26497865  1
  P  P266  1  0.30401698  0.24913595  0.51359991  1
  P  P267  1  0.30351161  0.24973040  0.76445959  1
  P  P268  1  0.30497539  0.58303676  0.01486692  1
  P  P269  1  0.30297220  0.58236244  0.26450871  1
  P  P270  1  0.30353509  0.58322969  0.51595600  1
  P  P271  1  0.30529901  0.58407268  0.76386803  1
  P  P272  1  0.30405441  0.91746743  0.01458533  1
  P  P273  1  0.30432128  0.91653460  0.26488022  1
  P  P274  1  0.30445600  0.91743204  0.51411704  1
  P  P275  1  0.30511799  0.91623132  0.76309771  1
  P  P276  1  0.80206073  0.24944918  0.01490314  1
  P  P277  1  0.80272689  0.24960228  0.26583004  1
  P  P278  1  0.80507852  0.24965790  0.51384449  1
  P  P279  1  0.80503460  0.25026911  0.76350025  1
  P  P280  1  0.80542280  0.58277386  0.01491165  1
  P  P281  1  0.80470953  0.58349412  0.26379982  1
  P  P282  1  0.80314868  0.58392307  0.51482758  1
  P  P283  1  0.80572305  0.58429662  0.76419780  1
  P  P284  1  0.80295424  0.91783658  0.01541826  1
  P  P285  1  0.80382284  0.91689079  0.26635210  1
  P  P286  1  0.80361757  0.91667188  0.51361502  1
  P  P287  1  0.80281991  0.91533661  0.76509526  1
  O  O288  1  0.05745994  0.24966215  0.18602860  1
  O  O289  1  0.05479290  0.24924461  0.43687531  1
  O  O290  1  0.05554304  0.24964312  0.68692772  1
  O  O291  1  0.05957038  0.24904938  0.93765926  1
  O  O292  1  0.05863701  0.58323194  0.18737901  1
  O  O293  1  0.05620564  0.58368122  0.43631070  1
  O  O294  1  0.05498242  0.58396263  0.68710400  1
  O  O295  1  0.05586423  0.58335422  0.93617005  1
  O  O296  1  0.06058025  0.91698435  0.18724416  1
  O  O297  1  0.05902793  0.91718772  0.43785266  1
  O  O298  1  0.06071966  0.91678652  0.68776198  1
  O  O299  1  0.06081631  0.91728410  0.93691265  1
  O  O300  1  0.55781666  0.24972695  0.18773193  1
  O  O301  1  0.56045989  0.24989212  0.43734582  1
  O  O302  1  0.55710101  0.25005171  0.68574195  1
  O  O303  1  0.55890913  0.25010605  0.93793268  1
  O  O304  1  0.55548353  0.58297619  0.18693728  1
  O  O305  1  0.56010153  0.58265488  0.43839383  1
  O  O306  1  0.55683303  0.58342522  0.68641703  1
  O  O307  1  0.55625599  0.58290505  0.93659639  1
  O  O308  1  0.55486401  0.91746989  0.18697133  1
  O  O309  1  0.55849113  0.91734108  0.43811020  1
  O  O310  1  0.55566842  0.91709726  0.68620055  1
  O  O311  1  0.55472026  0.91715476  0.93655293  1
  O  O312  1  0.44018671  0.08387585  0.06277882  1
  O  O313  1  0.44014972  0.08353318  0.31235594  1
  O  O314  1  0.44154932  0.08348072  0.56176728  1
  O  O315  1  0.44054649  0.08378346  0.81256226  1
  O  O316  1  0.44305560  0.41615077  0.06463645  1
  O  O317  1  0.44074055  0.41666446  0.31241208  1
  O  O318  1  0.44427679  0.41632525  0.56283584  1
  O  O319  1  0.44364602  0.41628109  0.81350474  1
  O  O320  1  0.44378112  0.74961659  0.06368140  1
  O  O321  1  0.44383657  0.75009065  0.31368440  1
  O  O322  1  0.44449802  0.75001976  0.56304994  1
  O  O323  1  0.44099894  0.75035841  0.81148996  1
  O  O324  1  0.94119170  0.08337504  0.06220854  1
  O  O325  1  0.94444860  0.08255638  0.31389472  1
  O  O326  1  0.94104099  0.08249734  0.56233085  1
  O  O327  1  0.94306399  0.08268471  0.81425169  1
  O  O328  1  0.94176099  0.41579563  0.06183877  1
  O  O329  1  0.94406592  0.41638548  0.31330153  1
  O  O330  1  0.94088582  0.41687905  0.56213382  1
  O  O331  1  0.94054857  0.41641562  0.81272183  1
  O  O332  1  0.94425598  0.75053331  0.06357175  1
  O  O333  1  0.94311405  0.75086650  0.31409603  1
  O  O334  1  0.94063800  0.75083185  0.56256807  1
  O  O335  1  0.94174739  0.75111116  0.81231892  1
  O  O336  1  0.19571579  0.08339967  0.06214650  1
  O  O337  1  0.19130337  0.08351718  0.31368017  1
  O  O338  1  0.19386416  0.08353651  0.56082900  1
  O  O339  1  0.19510692  0.08334837  0.81130501  1
  O  O340  1  0.19170558  0.41706296  0.06296736  1
  O  O341  1  0.19021507  0.41628664  0.31276523  1
  O  O342  1  0.18879473  0.41653945  0.56240337  1
  O  O343  1  0.19265369  0.41726834  0.81078535  1
  O  O344  1  0.19413660  0.74944954  0.06133063  1
  O  O345  1  0.19364609  0.74973313  0.31220632  1
  O  O346  1  0.19124612  0.74945278  0.56311845  1
  O  O347  1  0.19422221  0.74943261  0.81090714  1
  O  O348  1  0.69297175  0.08319717  0.06187082  1
  O  O349  1  0.69297050  0.08337819  0.31205782  1
  O  O350  1  0.69138831  0.08252007  0.56312748  1
  O  O351  1  0.69218204  0.08269439  0.81069016  1
  O  O352  1  0.69366368  0.41691195  0.06188940  1
  O  O353  1  0.69395253  0.41642855  0.31154977  1
  O  O354  1  0.69540528  0.41706302  0.56194062  1
  O  O355  1  0.69485290  0.41733602  0.81154451  1
  O  O356  1  0.68967872  0.74995676  0.06324097  1
  O  O357  1  0.69052505  0.75067238  0.31220322  1
  O  O358  1  0.69078841  0.75029066  0.56277426  1
  O  O359  1  0.69326110  0.74998378  0.81121400  1
  O  O360  1  0.30850907  0.25087953  0.18819173  1
  O  O361  1  0.30823435  0.25027934  0.43687315  1
  O  O362  1  0.30675606  0.25051598  0.68769230  1
  O  O363  1  0.30607612  0.25079440  0.93960006  1
  O  O364  1  0.30809156  0.58326142  0.18781821  1
  O  O365  1  0.30657046  0.58318637  0.43912086  1
  O  O366  1  0.30972432  0.58326828  0.68710159  1
  O  O367  1  0.30923055  0.58297629  0.93806570  1
  O  O368  1  0.30873548  0.91562545  0.18811451  1
  O  O369  1  0.30891618  0.91596348  0.43739634  1
  O  O370  1  0.30940588  0.91609898  0.68634835  1
  O  O371  1  0.30803862  0.91628066  0.93782475  1
  O  O372  1  0.80679686  0.24955202  0.18915492  1
  O  O373  1  0.80947245  0.24942031  0.43710307  1
  O  O374  1  0.80892381  0.24972844  0.68668764  1
  O  O375  1  0.80555771  0.24952138  0.93817818  1
  O  O376  1  0.80940532  0.58354472  0.18706281  1
  O  O377  1  0.80630683  0.58403565  0.43808298  1
  O  O378  1  0.80920486  0.58430626  0.68731993  1
  O  O379  1  0.80898679  0.58403899  0.93805957  1
  O  O380  1  0.80728889  0.91677271  0.18957105  1
  O  O381  1  0.80848561  0.91704684  0.43702159  1
  O  O382  1  0.80607970  0.91585973  0.68830792  1
  O  O383  1  0.80640988  0.91674814  0.93867191  1
  O  O384  1  0.23288181  0.24951712  0.04144871  1
  O  O385  1  0.23508388  0.25040955  0.28949677  1
  O  O386  1  0.23402422  0.24893388  0.53783246  1
  O  O387  1  0.23389325  0.24978491  0.78977959  1
  O  O388  1  0.23485335  0.58281070  0.03867467  1
  O  O389  1  0.23262645  0.58264821  0.28815810  1
  O  O390  1  0.23373874  0.58332399  0.54070012  1
  O  O391  1  0.23517343  0.58342815  0.78799872  1
  O  O392  1  0.23384957  0.91734933  0.03882977  1
  O  O393  1  0.23387542  0.91645386  0.28847079  1
  O  O394  1  0.23408776  0.91731755  0.53768132  1
  O  O395  1  0.23477827  0.91665522  0.78719842  1
  O  O396  1  0.73211838  0.24962131  0.03989046  1
  O  O397  1  0.73268179  0.24975425  0.29028195  1
  O  O398  1  0.73459669  0.24976630  0.53754764  1
  O  O399  1  0.73507611  0.24976894  0.78786262  1
  O  O400  1  0.73543726  0.58323419  0.03943006  1
  O  O401  1  0.73462602  0.58348792  0.28760350  1
  O  O402  1  0.73312428  0.58385612  0.53982617  1
  O  O403  1  0.73583872  0.58391103  0.78911850  1
  O  O404  1  0.73320909  0.91745305  0.04055146  1
  O  O405  1  0.73394051  0.91715217  0.29093974  1
  O  O406  1  0.73315349  0.91625205  0.53729135  1
  O  O407  1  0.73319655  0.91606858  0.79041614  1
  O  O408  1  0.26707428  0.08324346  0.21396004  1
  O  O409  1  0.26741932  0.08261415  0.45963892  1
  O  O410  1  0.26879415  0.08246913  0.70998061  1
  O  O411  1  0.26870546  0.08351051  0.96021590  1
  O  O412  1  0.26562871  0.41639969  0.21270015  1
  O  O413  1  0.26405477  0.41690619  0.46235950  1
  O  O414  1  0.26536795  0.41649584  0.70897812  1
  O  O415  1  0.26542022  0.41628942  0.96160259  1
  O  O416  1  0.26624737  0.75002677  0.20988961  1
  O  O417  1  0.26544967  0.75023795  0.46201404  1
  O  O418  1  0.26775800  0.75048837  0.70956372  1
  O  O419  1  0.26680974  0.75057610  0.95940685  1
  O  O420  1  0.76597763  0.08382452  0.21042322  1
  O  O421  1  0.76668731  0.08348103  0.46284127  1
  O  O422  1  0.76537376  0.08283500  0.70923239  1
  O  O423  1  0.76711681  0.08391709  0.96036165  1
  O  O424  1  0.76652850  0.41541817  0.20955539  1
  O  O425  1  0.76874798  0.41683133  0.46028503  1
  O  O426  1  0.76910495  0.41730653  0.71063356  1
  O  O427  1  0.76812622  0.41601801  0.96092256  1
  O  O428  1  0.76453089  0.75051810  0.21136512  1
  O  O429  1  0.76593952  0.75018302  0.46245307  1
  O  O430  1  0.76736746  0.74986608  0.71009939  1
  O  O431  1  0.76498275  0.74991909  0.96312556  1
  O  O432  1  0.01633992  0.08346571  0.16247808  1
  O  O433  1  0.01724678  0.08309641  0.41594402  1
  O  O434  1  0.01568628  0.08325519  0.66316204  1
  O  O435  1  0.01652326  0.08263463  0.91555617  1
  O  O436  1  0.01703621  0.41649945  0.16230660  1
  O  O437  1  0.01723747  0.41622797  0.41479478  1
  O  O438  1  0.01528005  0.41710918  0.66321386  1
  O  O439  1  0.01432146  0.41712143  0.91368830  1
  O  O440  1  0.01683045  0.75021502  0.16575031  1
  O  O441  1  0.01554907  0.75034965  0.41590643  1
  O  O442  1  0.01616955  0.75018249  0.66278585  1
  O  O443  1  0.01571070  0.74987877  0.91356625  1
  O  O444  1  0.51345876  0.08346742  0.16449973  1
  O  O445  1  0.51415649  0.08318086  0.41321762  1
  O  O446  1  0.51642906  0.08302403  0.66236171  1
  O  O447  1  0.51378121  0.08331671  0.91431009  1
  O  O448  1  0.51509384  0.41675262  0.16708251  1
  O  O449  1  0.51544142  0.41634710  0.41298748  1
  O  O450  1  0.51729151  0.41709638  0.66482810  1
  O  O451  1  0.51614579  0.41712227  0.91599574  1
  O  O452  1  0.51706566  0.75012510  0.16554320  1
  O  O453  1  0.51792656  0.75004488  0.41467775  1
  O  O454  1  0.51768013  0.75047454  0.66471317  1
  O  O455  1  0.51422476  0.74967719  0.91328457  1
  O  O456  1  0.48231842  0.25015140  0.08781624  1
  O  O457  1  0.48365137  0.24954387  0.33838645  1
  O  O458  1  0.48495277  0.24976198  0.58351409  1
  O  O459  1  0.48445600  0.24975936  0.83705091  1
  O  O460  1  0.48128726  0.58330680  0.08593231  1
  O  O461  1  0.48527130  0.58398152  0.33790470  1
  O  O462  1  0.48310746  0.58380958  0.58508556  1
  O  O463  1  0.48206023  0.58371526  0.83564942  1
  O  O464  1  0.48066116  0.91630485  0.08598037  1
  O  O465  1  0.48264447  0.91683901  0.33817757  1
  O  O466  1  0.48269923  0.91611513  0.58464308  1
  O  O467  1  0.48075585  0.91690205  0.83532336  1
  O  O468  1  0.98481552  0.25033671  0.08409413  1
  O  O469  1  0.98174471  0.24938855  0.33484059  1
  O  O470  1  0.98167876  0.25045731  0.58572256  1
  O  O471  1  0.98442122  0.25018360  0.83742219  1
  O  O472  1  0.98349421  0.58294398  0.08686467  1
  O  O473  1  0.98407965  0.58309075  0.33429224  1
  O  O474  1  0.98126802  0.58329171  0.58562509  1
  O  O475  1  0.98141426  0.58340841  0.83543183  1
  O  O476  1  0.98607404  0.91632943  0.08664571  1
  O  O477  1  0.98390266  0.91737259  0.33745362  1
  O  O478  1  0.98590464  0.91631994  0.58750610  1
  O  O479  1  0.98604318  0.91689657  0.83637970  1
  O  O480  1  0.08857747  0.31606034  0.07725555  1
  O  O481  1  0.08583606  0.31427758  0.32777178  1
  O  O482  1  0.08534076  0.31583061  0.57777380  1
  O  O483  1  0.08804876  0.31476036  0.82797249  1
  O  O484  1  0.08714427  0.64749720  0.07710605  1
  O  O485  1  0.08841653  0.64736779  0.32685981  1
  O  O486  1  0.08497978  0.64883222  0.57758307  1
  O  O487  1  0.08531223  0.64826109  0.82647917  1
  O  O488  1  0.08968740  0.98177249  0.07704596  1
  O  O489  1  0.08750077  0.98317499  0.32798771  1
  O  O490  1  0.08994674  0.98048666  0.57724115  1
  O  O491  1  0.08992236  0.98182101  0.82674536  1
  O  O492  1  0.58637690  0.31488910  0.07767728  1
  O  O493  1  0.58735926  0.31463415  0.32684794  1
  O  O494  1  0.58947130  0.31389814  0.57640801  1
  O  O495  1  0.58797476  0.31514534  0.82795569  1
  O  O496  1  0.58495655  0.64903263  0.07767695  1
  O  O497  1  0.58887610  0.64910423  0.32910270  1
  O  O498  1  0.58704607  0.64950132  0.57746164  1
  O  O499  1  0.58606617  0.64822264  0.82715666  1
  O  O500  1  0.58416564  0.98148834  0.07695509  1
  O  O501  1  0.58609708  0.98140692  0.32749483  1
  O  O502  1  0.58646007  0.98181714  0.57633052  1
  O  O503  1  0.58448416  0.98193478  0.82701775  1
  O  O504  1  0.40957102  0.01848461  0.17223256  1
  O  O505  1  0.41024793  0.01854158  0.42214786  1
  O  O506  1  0.41283599  0.01722621  0.67121948  1
  O  O507  1  0.41021222  0.01739990  0.92162631  1
  O  O508  1  0.41109743  0.35155350  0.17370834  1
  O  O509  1  0.41207738  0.35067704  0.42213038  1
  O  O510  1  0.41358493  0.35209434  0.67231578  1
  O  O511  1  0.41239258  0.35237126  0.92308305  1
  O  O512  1  0.41355968  0.68435681  0.17318973  1
  O  O513  1  0.41381792  0.68572832  0.42322106  1
  O  O514  1  0.41353048  0.68514385  0.67234077  1
  O  O515  1  0.41054480  0.68495692  0.92092674  1
  O  O516  1  0.91293568  0.01835921  0.17239941  1
  O  O517  1  0.91321316  0.01786579  0.42359858  1
  O  O518  1  0.91221229  0.01846115  0.67249673  1
  O  O519  1  0.91240162  0.01794806  0.92372310  1
  O  O520  1  0.91341498  0.35189239  0.17212737  1
  O  O521  1  0.91323831  0.35071992  0.42243997  1
  O  O522  1  0.91180563  0.35155465  0.67210754  1
  O  O523  1  0.91049048  0.35264114  0.92313898  1
  O  O524  1  0.91336248  0.68420659  0.17231346  1
  O  O525  1  0.91086752  0.68680157  0.42333439  1
  O  O526  1  0.91233231  0.68471840  0.67207712  1
  O  O527  1  0.91196405  0.68476034  0.92153098  1
  O  O528  1  0.16382715  0.01761082  0.20358597  1
  O  O529  1  0.16332382  0.01739336  0.45183687  1
  O  O530  1  0.16481639  0.01760591  0.70210186  1
  O  O531  1  0.16498476  0.01858791  0.95258581  1
  O  O532  1  0.16146368  0.35235771  0.20252549  1
  O  O533  1  0.16067706  0.35133060  0.45206292  1
  O  O534  1  0.16098640  0.35206061  0.70163794  1
  O  O535  1  0.16216466  0.35022570  0.95404238  1
  O  O536  1  0.16269349  0.68463953  0.20291995  1
  O  O537  1  0.16160184  0.68579985  0.45311181  1
  O  O538  1  0.16340082  0.68580056  0.70110967  1
  O  O539  1  0.16318054  0.68556478  0.95166017  1
  O  O540  1  0.66196013  0.01946771  0.20244185  1
  O  O541  1  0.66316052  0.01799359  0.45278445  1
  O  O542  1  0.66129906  0.01787008  0.70130663  1
  O  O543  1  0.66317560  0.01914738  0.95211503  1
  O  O544  1  0.66265315  0.35006060  0.20306141  1
  O  O545  1  0.66464348  0.35193447  0.45273562  1
  O  O546  1  0.66531122  0.35226327  0.70193179  1
  O  O547  1  0.66421071  0.35078576  0.95283644  1
  O  O548  1  0.66071279  0.68553825  0.20223892  1
  O  O549  1  0.66234892  0.68484038  0.45283200  1
  O  O550  1  0.66330534  0.68498763  0.70160447  1
  O  O551  1  0.66168524  0.68469085  0.95305978  1
  O  O552  1  0.33684897  0.31432652  0.04952636  1
  O  O553  1  0.33863654  0.31591602  0.29798516  1
  O  O554  1  0.33742277  0.31396195  0.54729859  1
  O  O555  1  0.33746810  0.31473512  0.79738420  1
  O  O556  1  0.33841805  0.64816622  0.04811105  1
  O  O557  1  0.33629750  0.64737200  0.29815732  1
  O  O558  1  0.33791207  0.64824189  0.54822574  1
  O  O559  1  0.33851022  0.64958009  0.79642852  1
  O  O560  1  0.33762763  0.98255656  0.04728102  1
  O  O561  1  0.33776908  0.98165976  0.29774141  1
  O  O562  1  0.33790363  0.98267983  0.54677724  1
  O  O563  1  0.33876621  0.98115228  0.79628992  1
  O  O564  1  0.83609869  0.31450116  0.04761925  1
  O  O565  1  0.83699735  0.31446911  0.29855890  1
  O  O566  1  0.83836788  0.31492014  0.54682222  1
  O  O567  1  0.83838452  0.31555934  0.79621105  1
  O  O568  1  0.83963517  0.64739695  0.04831431  1
  O  O569  1  0.83800789  0.64849429  0.29717385  1
  O  O570  1  0.83711358  0.64893463  0.54763129  1
  O  O571  1  0.83924898  0.64961359  0.79699390  1
  O  O572  1  0.83689768  0.98318157  0.04740694  1
  O  O573  1  0.83816109  0.98184673  0.29892037  1
  O  O574  1  0.83672699  0.98166472  0.54731474  1
  O  O575  1  0.83737281  0.98023170  0.79744180  1
  O  O576  1  0.40976168  0.14873018  0.17254050  1
  O  O577  1  0.41069309  0.14867398  0.42234444  1
  O  O578  1  0.41248271  0.14738573  0.67226983  1
  O  O579  1  0.40979076  0.14751002  0.92280363  1
  O  O580  1  0.41095217  0.48171480  0.17347764  1
  O  O581  1  0.41171725  0.48091272  0.42241804  1
  O  O582  1  0.41335652  0.48230745  0.67153973  1
  O  O583  1  0.41231658  0.48253691  0.92201095  1
  O  O584  1  0.41295726  0.81458403  0.17284754  1
  O  O585  1  0.41430290  0.81577601  0.42305815  1
  O  O586  1  0.41330754  0.81516854  0.67209086  1
  O  O587  1  0.41098960  0.81528319  0.92130178  1
  O  O588  1  0.91282866  0.14851359  0.17213145  1
  O  O589  1  0.91281427  0.14783638  0.42277768  1
  O  O590  1  0.91219843  0.14882467  0.67157484  1
  O  O591  1  0.91257025  0.14786052  0.92370250  1
  O  O592  1  0.91357328  0.48205942  0.17160377  1
  O  O593  1  0.91304156  0.48072007  0.42296837  1
  O  O594  1  0.91125892  0.48181244  0.67181915  1
  O  O595  1  0.91075300  0.48278907  0.92196861  1
  O  O596  1  0.91281907  0.81442978  0.17299254  1
  O  O597  1  0.91224017  0.81687458  0.42332730  1
  O  O598  1  0.91236106  0.81470891  0.67324644  1
  O  O599  1  0.91232301  0.81493480  0.92265247  1
  O  O600  1  0.08912934  0.18602243  0.07648901  1
  O  O601  1  0.08569458  0.18411091  0.32778165  1
  O  O602  1  0.08558308  0.18569434  0.57707001  1
  O  O603  1  0.08755542  0.18446813  0.82734107  1
  O  O604  1  0.08683692  0.51733244  0.07746953  1
  O  O605  1  0.08770039  0.51723912  0.32753599  1
  O  O606  1  0.08529383  0.51868687  0.57792459  1
  O  O607  1  0.08510605  0.51830087  0.82654521  1
  O  O608  1  0.09004103  0.85185028  0.07728075  1
  O  O609  1  0.08802114  0.85310819  0.32754700  1
  O  O610  1  0.08927809  0.85039319  0.57807824  1
  O  O611  1  0.08984042  0.85190425  0.82696094  1
  O  O612  1  0.58593285  0.18488334  0.07733234  1
  O  O613  1  0.58717590  0.18460061  0.32691369  1
  O  O614  1  0.58848103  0.18374391  0.57688965  1
  O  O615  1  0.58799585  0.18497591  0.82804442  1
  O  O616  1  0.58528905  0.51881743  0.07721589  1
  O  O617  1  0.58854773  0.51879342  0.32788480  1
  O  O618  1  0.58754661  0.51946799  0.57655337  1
  O  O619  1  0.58575000  0.51821651  0.82685202  1
  O  O620  1  0.58466326  0.85126229  0.07786776  1
  O  O621  1  0.58618752  0.85124895  0.32846885  1
  O  O622  1  0.58734577  0.85181249  0.57731208  1
  O  O623  1  0.58457531  0.85187279  0.82713624  1
  O  O624  1  0.33697347  0.18439005  0.04833461  1
  O  O625  1  0.33914700  0.18575237  0.29761814  1
  O  O626  1  0.33777547  0.18380532  0.54594163  1
  O  O627  1  0.33767865  0.18450467  0.79636206  1
  O  O628  1  0.33873851  0.51825386  0.04819979  1
  O  O629  1  0.33612551  0.51719646  0.29764829  1
  O  O630  1  0.33783332  0.51839859  0.54848913  1
  O  O631  1  0.33922216  0.51933863  0.79741714  1
  O  O632  1  0.33756648  0.85259306  0.04835970  1
  O  O633  1  0.33769505  0.85165834  0.29862914  1
  O  O634  1  0.33797852  0.85275097  0.54809191  1
  O  O635  1  0.33803254  0.85095808  0.79649722  1
  O  O636  1  0.83600596  0.18438804  0.04748166  1
  O  O637  1  0.83670315  0.18467864  0.29884354  1
  O  O638  1  0.83840027  0.18465614  0.54730224  1
  O  O639  1  0.83875743  0.18535695  0.79670521  1
  O  O640  1  0.83900953  0.51725050  0.04706360  1
  O  O641  1  0.83811599  0.51833159  0.29686427  1
  O  O642  1  0.83734787  0.51886656  0.54720863  1
  O  O643  1  0.83985801  0.51930920  0.79677392  1
  O  O644  1  0.83709679  0.85288901  0.04835866  1
  O  O645  1  0.83788500  0.85194464  0.29902741  1
  O  O646  1  0.83695403  0.85155790  0.54692293  1
  O  O647  1  0.83668314  0.85006162  0.79734208  1
  O  O648  1  0.16346538  0.14779337  0.20331051  1
  O  O649  1  0.16321318  0.14728639  0.45093055  1
  O  O650  1  0.16498835  0.14760554  0.70149260  1
  O  O651  1  0.16497803  0.14876021  0.95293051  1
  O  O652  1  0.16222176  0.48238854  0.20255302  1
  O  O653  1  0.16014238  0.48140598  0.45241923  1
  O  O654  1  0.16146746  0.48200932  0.70141692  1
  O  O655  1  0.16167381  0.48056676  0.95255292  1
  O  O656  1  0.16254183  0.81507974  0.20343170  1
  O  O657  1  0.16215882  0.81602168  0.45374792  1
  O  O658  1  0.16369268  0.81573776  0.70201593  1
  O  O659  1  0.16321812  0.81595625  0.95276235  1
  O  O660  1  0.66233630  0.14961570  0.20317416  1
  O  O661  1  0.66290234  0.14817159  0.45336041  1
  O  O662  1  0.66140882  0.14784920  0.70131039  1
  O  O663  1  0.66334233  0.14934663  0.95281025  1
  O  O664  1  0.66282370  0.48027702  0.20186520  1
  O  O665  1  0.66487801  0.48213502  0.45271166  1
  O  O666  1  0.66537619  0.48234648  0.70200311  1
  O  O667  1  0.66466326  0.48117570  0.95193626  1
  O  O668  1  0.66066674  0.81555018  0.20239682  1
  O  O669  1  0.66194122  0.81507444  0.45253975  1
  O  O670  1  0.66322253  0.81482282  0.70157065  1
  O  O671  1  0.66138979  0.81501402  0.95317262  1
