# generated using pymatgen
data_Na2MnFe(PO4)2
_symmetry_space_group_name_H-M   'P 1'
_cell_length_a   21.08180880
_cell_length_b   18.93413820
_cell_length_c   20.04153105
_cell_angle_alpha   90.00009212
_cell_angle_beta   90.00332257
_cell_angle_gamma   89.99978034
_symmetry_Int_Tables_number   1
_chemical_formula_structural   Na2MnFe(PO4)2
_chemical_formula_sum   'Na96 Mn48 Fe48 P96 O384'
_cell_volume   7999.89539157
_cell_formula_units_Z   48
loop_
 _symmetry_equiv_pos_site_id
 _symmetry_equiv_pos_as_xyz
  1  'x, y, z'
loop_
 _atom_site_type_symbol
 _atom_site_label
 _atom_site_symmetry_multiplicity
 _atom_site_fract_x
 _atom_site_fract_y
 _atom_site_fract_z
 _atom_site_occupancy
  Na  Na0  1  0.00183408  0.00027295  0.00041473  1
  Na  Na1  1  0.00029487  -0.00112508  0.24993819  1
  Na  Na2  1  0.00170418  0.00072945  0.50032116  1
  Na  Na3  1  -0.00011536  -0.00059535  0.75034213  1
  Na  Na4  1  -0.00085349  0.33296996  0.00111353  1
  Na  Na5  1  -0.00086217  0.33282230  0.24994245  1
  Na  Na6  1  -0.00074245  0.33293712  0.49903947  1
  Na  Na7  1  -0.00075998  0.33281062  0.74998231  1
  Na  Na8  1  0.00467313  0.66779579  -0.00038300  1
  Na  Na9  1  0.00187803  0.66681241  0.25098503  1
  Na  Na10  1  0.00036570  0.66636693  0.50016338  1
  Na  Na11  1  0.00262315  0.66663462  0.74979155  1
  Na  Na12  1  0.49975099  0.00045474  0.00098707  1
  Na  Na13  1  0.49821063  -0.00013661  0.25023942  1
  Na  Na14  1  0.49769720  -0.00000821  0.49939921  1
  Na  Na15  1  0.49816667  -0.00036115  0.74895106  1
  Na  Na16  1  0.49794743  0.33262570  0.00153489  1
  Na  Na17  1  0.49864055  0.33278571  0.25026046  1
  Na  Na18  1  0.49959636  0.33353166  0.49916356  1
  Na  Na19  1  0.49899022  0.33322510  0.74898128  1
  Na  Na20  1  0.49751932  0.66670667  0.00039431  1
  Na  Na21  1  0.49991727  0.66696001  0.24975158  1
  Na  Na22  1  0.49914392  0.66694196  0.49853519  1
  Na  Na23  1  0.49597450  0.66551472  0.75041708  1
  Na  Na24  1  0.24884804  -0.00041601  0.12504866  1
  Na  Na25  1  0.25036718  0.00054469  0.37533124  1
  Na  Na26  1  0.25051170  0.00028702  0.62527913  1
  Na  Na27  1  0.24877998  -0.00064041  0.87400249  1
  Na  Na28  1  0.24974717  0.33263152  0.12550639  1
  Na  Na29  1  0.25022610  0.33359732  0.37511856  1
  Na  Na30  1  0.24984364  0.33286346  0.62452041  1
  Na  Na31  1  0.25197919  0.33410480  0.87537054  1
  Na  Na32  1  0.25019663  0.66709835  0.12434156  1
  Na  Na33  1  0.25012360  0.66709041  0.37487835  1
  Na  Na34  1  0.24919858  0.66585060  0.62532919  1
  Na  Na35  1  0.24952386  0.66631029  0.87529938  1
  Na  Na36  1  0.75140452  0.00062371  0.12655377  1
  Na  Na37  1  0.74956557  -0.00077867  0.37427413  1
  Na  Na38  1  0.75170015  0.00071988  0.62449662  1
  Na  Na39  1  0.74981828  0.00006556  0.87544572  1
  Na  Na40  1  0.75194449  0.33347471  0.12558949  1
  Na  Na41  1  0.75287976  0.33409878  0.37492186  1
  Na  Na42  1  0.75022746  0.33245967  0.62487509  1
  Na  Na43  1  0.75175500  0.33343669  0.87421421  1
  Na  Na44  1  0.74762194  0.66576865  0.12429992  1
  Na  Na45  1  0.74970990  0.66643465  0.37488815  1
  Na  Na46  1  0.75190430  0.66754718  0.62545572  1
  Na  Na47  1  0.74942872  0.66671255  0.87492496  1
  Na  Na48  1  0.00124051  0.16695074  -0.00007210  1
  Na  Na49  1  0.00146074  0.16705607  0.25017160  1
  Na  Na50  1  0.00008400  0.16711066  0.49971964  1
  Na  Na51  1  -0.00057237  0.16711426  0.75076750  1
  Na  Na52  1  0.00033168  0.50064176  0.00006713  1
  Na  Na53  1  -0.00041861  0.49978027  0.25000844  1
  Na  Na54  1  -0.00004270  0.49972121  0.49984177  1
  Na  Na55  1  0.00097342  0.50017374  0.74978050  1
  Na  Na56  1  0.00177472  0.83361879  0.00063112  1
  Na  Na57  1  0.00093952  0.83386540  0.25103560  1
  Na  Na58  1  0.00042249  0.83382182  0.49959035  1
  Na  Na59  1  0.00291182  0.83216609  0.74993537  1
  Na  Na60  1  0.50006567  0.16690971  0.00158746  1
  Na  Na61  1  0.50042741  0.16662313  0.25080237  1
  Na  Na62  1  0.50078140  0.16640797  0.49878930  1
  Na  Na63  1  0.49983779  0.16648005  0.74856264  1
  Na  Na64  1  0.49620611  0.50119873  0.00139997  1
  Na  Na65  1  0.49839303  0.49991332  0.24995828  1
  Na  Na66  1  0.49753555  0.50046200  0.49875008  1
  Na  Na67  1  0.49797988  0.49988945  0.74946134  1
  Na  Na68  1  0.49757430  0.83335479  -0.00048267  1
  Na  Na69  1  0.49874534  0.83301359  0.24963205  1
  Na  Na70  1  0.49745970  0.83369880  0.49924561  1
  Na  Na71  1  0.49639231  0.83382641  0.75069202  1
  Na  Na72  1  0.24975502  0.16640258  0.12507512  1
  Na  Na73  1  0.24917811  0.16708312  0.37541040  1
  Na  Na74  1  0.25025352  0.16658466  0.62500568  1
  Na  Na75  1  0.24819641  0.16774697  0.87516921  1
  Na  Na76  1  0.25191772  0.49900757  0.12554752  1
  Na  Na77  1  0.24941679  0.50030156  0.37404360  1
  Na  Na78  1  0.25026290  0.49968950  0.62490952  1
  Na  Na79  1  0.25005684  0.50066933  0.87476107  1
  Na  Na80  1  0.24901474  0.83395734  0.12415758  1
  Na  Na81  1  0.24954398  0.83365753  0.37629424  1
  Na  Na82  1  0.25016246  0.83344246  0.62490363  1
  Na  Na83  1  0.25183090  0.83213944  0.87482793  1
  Na  Na84  1  0.75030918  0.16649530  0.12602744  1
  Na  Na85  1  0.74836068  0.16827325  0.37450504  1
  Na  Na86  1  0.75039041  0.16644011  0.62451030  1
  Na  Na87  1  0.74932720  0.16674109  0.87455360  1
  Na  Na88  1  0.75174173  0.49894743  0.12479767  1
  Na  Na89  1  0.75010731  0.50030910  0.37545995  1
  Na  Na90  1  0.75301871  0.49936976  0.62567803  1
  Na  Na91  1  0.75122841  0.50010254  0.87436836  1
  Na  Na92  1  0.74980306  0.83328075  0.12517469  1
  Na  Na93  1  0.75304847  0.83224651  0.37441716  1
  Na  Na94  1  0.74998799  0.83404739  0.62459096  1
  Na  Na95  1  0.75018243  0.83311680  0.87582745  1
  Mn  Mn96  1  0.85835874  0.08350748  0.00226770  1
  Mn  Mn97  1  0.39129545  0.25011494  0.12817191  1
  Mn  Mn98  1  0.64261574  0.58303434  0.49882210  1
  Mn  Mn99  1  0.85832125  0.08386298  0.25301929  1
  Mn  Mn100  1  0.10856823  0.41684859  0.87329557  1
  Mn  Mn101  1  0.10785339  0.41714954  0.12285279  1
  Mn  Mn102  1  0.64138233  0.58255574  0.99748251  1
  Mn  Mn103  1  0.89256556  0.24975008  0.87781881  1
  Mn  Mn104  1  0.35708237  0.08348958  0.00163428  1
  Mn  Mn105  1  0.14278567  0.58349931  0.24738150  1
  Mn  Mn106  1  0.39178810  0.58310004  0.37713154  1
  Mn  Mn107  1  0.35696536  0.74964677  0.50285353  1
  Mn  Mn108  1  0.64191061  0.25002987  0.74809691  1
  Mn  Mn109  1  0.10757219  0.08330178  0.62271878  1
  Mn  Mn110  1  0.10763250  0.41650284  0.62210461  1
  Mn  Mn111  1  0.10832086  0.08318965  0.12301192  1
  Mn  Mn112  1  0.60740374  0.41731437  0.12286395  1
  Mn  Mn113  1  0.64120496  0.58362604  0.74768444  1
  Mn  Mn114  1  0.85815227  0.74895237  0.25119355  1
  Mn  Mn115  1  0.60775406  0.75073469  0.37287209  1
  Mn  Mn116  1  0.64213542  0.91619590  0.24798640  1
  Mn  Mn117  1  0.64182136  0.91662946  0.49741788  1
  Mn  Mn118  1  0.89289233  0.58436899  0.12698634  1
  Mn  Mn119  1  0.60746872  0.41745327  0.62217257  1
  Mn  Mn120  1  0.64129009  0.91654516  0.74802391  1
  Mn  Mn121  1  0.14230491  0.25070453  0.74767175  1
  Mn  Mn122  1  0.89219802  0.58338188  0.37749327  1
  Mn  Mn123  1  0.10792877  0.75010313  0.37270374  1
  Mn  Mn124  1  0.85838852  0.41656052  0.75232500  1
  Mn  Mn125  1  0.89295176  0.91678870  0.62747365  1
  Mn  Mn126  1  0.14307367  0.91631368  0.74762599  1
  Mn  Mn127  1  0.89366882  0.58405460  0.87722173  1
  Mn  Mn128  1  0.39082116  0.91664401  0.12761046  1
  Mn  Mn129  1  0.85882667  0.74957970  0.00276373  1
  Mn  Mn130  1  0.60772386  0.41627334  0.37283216  1
  Mn  Mn131  1  0.89312324  0.91601641  0.87754034  1
  Mn  Mn132  1  0.64207506  0.91677821  0.99804364  1
  Mn  Mn133  1  0.60670088  0.74981792  0.62321934  1
  Mn  Mn134  1  0.35805884  0.41684040  0.75253552  1
  Mn  Mn135  1  0.60586178  0.75027682  0.87275180  1
  Mn  Mn136  1  0.64238974  0.25038365  0.99798378  1
  Mn  Mn137  1  0.35817918  0.08333899  0.75302776  1
  Mn  Mn138  1  0.60766231  0.08264357  0.62216728  1
  Mn  Mn139  1  0.60684878  0.41642256  0.87353394  1
  Mn  Mn140  1  0.39195989  0.25002902  0.62607572  1
  Mn  Mn141  1  0.60751003  0.08247374  0.12331251  1
  Mn  Mn142  1  0.85801415  0.08342405  0.50133094  1
  Mn  Mn143  1  0.85891227  0.75084086  0.75247347  1
  Fe  Fe144  1  0.14355333  0.58301613  0.74780803  1
  Fe  Fe145  1  0.35652527  0.08412860  0.50100303  1
  Fe  Fe146  1  0.39117498  0.58375950  0.62637777  1
  Fe  Fe147  1  0.85815152  0.74966533  0.50219936  1
  Fe  Fe148  1  0.35705543  0.41653682  0.00179253  1
  Fe  Fe149  1  0.89389899  0.58369320  0.62679177  1
  Fe  Fe150  1  0.35671255  0.41602136  0.25246585  1
  Fe  Fe151  1  0.39197320  0.58384223  0.12735106  1
  Fe  Fe152  1  0.89396389  0.91662142  0.12660940  1
  Fe  Fe153  1  0.35611521  0.74978366  0.00195928  1
  Fe  Fe154  1  0.35682770  0.75063223  0.25125367  1
  Fe  Fe155  1  0.64235762  0.58261559  0.24813352  1
  Fe  Fe156  1  0.14204390  0.25013609  0.49792816  1
  Fe  Fe157  1  0.39239372  0.24952121  0.87696545  1
  Fe  Fe158  1  0.89256994  0.24993689  0.62609824  1
  Fe  Fe159  1  0.39138147  0.91721874  0.37647698  1
  Fe  Fe160  1  0.14266860  0.91663556  0.99769884  1
  Fe  Fe161  1  0.35612562  0.41632417  0.50091856  1
  Fe  Fe162  1  0.39110804  0.58285066  0.87747209  1
  Fe  Fe163  1  0.14267206  0.25026743  0.99839955  1
  Fe  Fe164  1  0.39218929  0.91746910  0.87738879  1
  Fe  Fe165  1  0.39225568  0.24917275  0.37702883  1
  Fe  Fe166  1  0.85742754  0.08291077  0.75216924  1
  Fe  Fe167  1  0.89379203  0.91717251  0.37678148  1
  Fe  Fe168  1  0.89320422  0.24948168  0.12709785  1
  Fe  Fe169  1  0.10873813  0.75014048  0.12360656  1
  Fe  Fe170  1  0.14404499  0.58282797  0.99846679  1
  Fe  Fe171  1  0.35671057  0.08338112  0.25237706  1
  Fe  Fe172  1  0.10821975  0.08376286  0.37364942  1
  Fe  Fe173  1  0.85804942  0.41708169  0.50175098  1
  Fe  Fe174  1  0.35638476  0.74960944  0.75152911  1
  Fe  Fe175  1  0.60614593  0.08316409  0.37356332  1
  Fe  Fe176  1  0.64327520  0.25104705  0.24885634  1
  Fe  Fe177  1  0.14302208  0.91706141  0.24891963  1
  Fe  Fe178  1  0.10715443  0.41577531  0.37333861  1
  Fe  Fe179  1  0.60688321  0.08337061  0.87344093  1
  Fe  Fe180  1  0.10766144  0.08326813  0.87319551  1
  Fe  Fe181  1  0.14307410  0.24989656  0.24887627  1
  Fe  Fe182  1  0.60614593  0.74992253  0.12325720  1
  Fe  Fe183  1  0.89350623  0.24920243  0.37671908  1
  Fe  Fe184  1  0.14248948  0.58250734  0.49849392  1
  Fe  Fe185  1  0.14321515  0.91707460  0.49815199  1
  Fe  Fe186  1  0.85749508  0.41705643  0.25161567  1
  Fe  Fe187  1  0.10908255  0.75046000  0.87293522  1
  Fe  Fe188  1  0.10802693  0.74981810  0.62294450  1
  Fe  Fe189  1  0.39160489  0.91622872  0.62645877  1
  Fe  Fe190  1  0.85807895  0.41682203  0.00172942  1
  Fe  Fe191  1  0.64334249  0.25037239  0.49777271  1
  P  P192  1  0.05442511  0.25020102  0.11099484  1
  P  P193  1  0.05461687  0.25015294  0.36065540  1
  P  P194  1  0.05263245  0.25006555  0.60913430  1
  P  P195  1  0.05499778  0.24986637  0.86126970  1
  P  P196  1  0.05484585  0.58406580  0.10950018  1
  P  P197  1  0.05483170  0.58194870  0.36123705  1
  P  P198  1  0.05461755  0.58372093  0.61043816  1
  P  P199  1  0.05674487  0.58400428  0.86045379  1
  P  P200  1  0.05525966  0.91598425  0.11101679  1
  P  P201  1  0.05491211  0.91786191  0.36097431  1
  P  P202  1  0.05473199  0.91588701  0.60939355  1
  P  P203  1  0.05563356  0.91658067  0.86110981  1
  P  P204  1  0.55429254  0.25032665  0.11184026  1
  P  P205  1  0.55392045  0.24947186  0.36072880  1
  P  P206  1  0.55407938  0.25008718  0.60842268  1
  P  P207  1  0.55158061  0.24945335  0.86030317  1
  P  P208  1  0.55272764  0.58403359  0.11129980  1
  P  P209  1  0.55397823  0.58308624  0.35921403  1
  P  P210  1  0.55059157  0.58370899  0.60942993  1
  P  P211  1  0.55047210  0.58303247  0.86029475  1
  P  P212  1  0.55245892  0.91543455  0.11019290  1
  P  P213  1  0.55137016  0.91758878  0.35999366  1
  P  P214  1  0.55103062  0.91606037  0.60952662  1
  P  P215  1  0.55122935  0.91757478  0.86033441  1
  P  P216  1  0.44509830  0.08348055  0.14132157  1
  P  P217  1  0.44474717  0.08360520  0.38898795  1
  P  P218  1  0.44469224  0.08295845  0.63804308  1
  P  P219  1  0.44766842  0.08376400  0.89035703  1
  P  P220  1  0.44393542  0.41743153  0.14001471  1
  P  P221  1  0.44420224  0.41530009  0.38920988  1
  P  P222  1  0.44453883  0.41732844  0.63799085  1
  P  P223  1  0.44543065  0.41620860  0.89113243  1
  P  P224  1  0.44463707  0.74937267  0.13934133  1
  P  P225  1  0.44451201  0.75093902  0.38848447  1
  P  P226  1  0.44486087  0.74983126  0.64036530  1
  P  P227  1  0.44309444  0.74983467  0.88952959  1
  P  P228  1  0.94717319  0.08337637  0.14016141  1
  P  P229  1  0.94866480  0.08344283  0.38966247  1
  P  P230  1  0.94606690  0.08435925  0.64055370  1
  P  P231  1  0.94749806  0.08285690  0.88939618  1
  P  P232  1  0.94508446  0.41625657  0.13962131  1
  P  P233  1  0.94592283  0.41573757  0.38900596  1
  P  P234  1  0.94560136  0.41656779  0.63843168  1
  P  P235  1  0.94685652  0.41693918  0.89095304  1
  P  P236  1  0.94945157  0.75063987  0.14022596  1
  P  P237  1  0.94630629  0.75055895  0.39046139  1
  P  P238  1  0.94773070  0.74934101  0.63898502  1
  P  P239  1  0.94959561  0.74993791  0.89035746  1
  P  P240  1  0.19651369  0.08360140  0.23683535  1
  P  P241  1  0.19673266  0.08351688  0.48486632  1
  P  P242  1  0.19591831  0.08354905  0.73576999  1
  P  P243  1  0.19565447  0.08338858  0.98444310  1
  P  P244  1  0.19649156  0.41558188  0.23647750  1
  P  P245  1  0.19654321  0.41663961  0.48433003  1
  P  P246  1  0.19691645  0.41726584  0.73481951  1
  P  P247  1  0.19809265  0.41669376  0.98560764  1
  P  P248  1  0.19735934  0.75116858  0.23472836  1
  P  P249  1  0.19515731  0.74958900  0.48652116  1
  P  P250  1  0.19622523  0.74918640  0.73537879  1
  P  P251  1  0.19606564  0.74986720  0.98581788  1
  P  P252  1  0.69518401  0.08423894  0.23695845  1
  P  P253  1  0.69594183  0.08392403  0.48382513  1
  P  P254  1  0.69629927  0.08312350  0.73565792  1
  P  P255  1  0.69616122  0.08343953  0.98463420  1
  P  P256  1  0.69762510  0.41649599  0.23536050  1
  P  P257  1  0.69827940  0.41616299  0.48521723  1
  P  P258  1  0.69643016  0.41668452  0.73483445  1
  P  P259  1  0.69824449  0.41635912  0.98477739  1
  P  P260  1  0.69574174  0.74908590  0.23422917  1
  P  P261  1  0.69813170  0.74989031  0.48513241  1
  P  P262  1  0.69657299  0.75034802  0.73490163  1
  P  P263  1  0.69529587  0.74990055  0.98585388  1
  P  P264  1  0.30312615  0.25025330  0.01407429  1
  P  P265  1  0.30265000  0.24964627  0.26593697  1
  P  P266  1  0.30265408  0.24996743  0.51314833  1
  P  P267  1  0.30401937  0.24997446  0.76575263  1
  P  P268  1  0.30409475  0.58328692  0.01445776  1
  P  P269  1  0.30450074  0.58380883  0.26352399  1
  P  P270  1  0.30215756  0.58223990  0.51494107  1
  P  P271  1  0.30375156  0.58417200  0.76437859  1
  P  P272  1  0.30281938  0.91654240  0.01348261  1
  P  P273  1  0.30221436  0.91660149  0.26553690  1
  P  P274  1  0.30357967  0.91784203  0.51416574  1
  P  P275  1  0.30528532  0.91562632  0.76433892  1
  P  P276  1  0.80441870  0.25036644  0.01600851  1
  P  P277  1  0.80487426  0.25075535  0.26460373  1
  P  P278  1  0.80461384  0.25040327  0.51382736  1
  P  P279  1  0.80498908  0.24877719  0.76371613  1
  P  P280  1  0.80358517  0.58285963  0.01488669  1
  P  P281  1  0.80235549  0.58273812  0.26469002  1
  P  P282  1  0.80474445  0.58339912  0.51577794  1
  P  P283  1  0.80490443  0.58395118  0.76423415  1
  P  P284  1  0.80442869  0.91668235  0.01635623  1
  P  P285  1  0.80590687  0.91633005  0.26444409  1
  P  P286  1  0.80503419  0.91625580  0.51352828  1
  P  P287  1  0.80348612  0.91749444  0.76544791  1
  O  O288  1  0.05943176  0.25030821  0.18769524  1
  O  O289  1  0.05903641  0.25023987  0.43739532  1
  O  O290  1  0.05659954  0.25035281  0.68585218  1
  O  O291  1  0.05925117  0.25079626  0.93807940  1
  O  O292  1  0.05752106  0.58288558  0.18636419  1
  O  O293  1  0.05876990  0.58236037  0.43798791  1
  O  O294  1  0.05939450  0.58294559  0.68714336  1
  O  O295  1  0.06105939  0.58288511  0.93724781  1
  O  O296  1  0.05986957  0.91659007  0.18777273  1
  O  O297  1  0.05974086  0.91738346  0.43764122  1
  O  O298  1  0.05775010  0.91640579  0.68620730  1
  O  O299  1  0.05919993  0.91659466  0.93796392  1
  O  O300  1  0.55902948  0.25085382  0.18852639  1
  O  O301  1  0.55908201  0.25080066  0.43738175  1
  O  O302  1  0.55704858  0.25014378  0.68526225  1
  O  O303  1  0.55524614  0.25020572  0.93704950  1
  O  O304  1  0.55802215  0.58276814  0.18792831  1
  O  O305  1  0.55741122  0.58294610  0.43599845  1
  O  O306  1  0.55449975  0.58332661  0.68615383  1
  O  O307  1  0.55468996  0.58313118  0.93702480  1
  O  O308  1  0.55583162  0.91602768  0.18694959  1
  O  O309  1  0.55529037  0.91687801  0.43668981  1
  O  O310  1  0.55497338  0.91623738  0.68622427  1
  O  O311  1  0.55532084  0.91689580  0.93699536  1
  O  O312  1  0.44168500  0.08371389  0.06457384  1
  O  O313  1  0.44021331  0.08380023  0.31227517  1
  O  O314  1  0.44033599  0.08392888  0.56128514  1
  O  O315  1  0.44439528  0.08364191  0.81360103  1
  O  O316  1  0.43959906  0.41634210  0.06323584  1
  O  O317  1  0.44003631  0.41588809  0.31240704  1
  O  O318  1  0.44006266  0.41664866  0.56123928  1
  O  O319  1  0.44329119  0.41637825  0.81423892  1
  O  O320  1  0.43970531  0.75012585  0.06262941  1
  O  O321  1  0.44047160  0.75038363  0.31173903  1
  O  O322  1  0.44259471  0.74970274  0.56344955  1
  O  O323  1  0.43957594  0.74955193  0.81274418  1
  O  O324  1  0.94462402  0.08363307  0.06343296  1
  O  O325  1  0.94509626  0.08338503  0.31295935  1
  O  O326  1  0.94327106  0.08360562  0.56374828  1
  O  O327  1  0.94241141  0.08287690  0.81276420  1
  O  O328  1  0.94133786  0.41703190  0.06285433  1
  O  O329  1  0.94132212  0.41686016  0.31228475  1
  O  O330  1  0.94204854  0.41657518  0.56160448  1
  O  O331  1  0.94384303  0.41685467  0.81409096  1
  O  O332  1  0.94579966  0.74979507  0.06354547  1
  O  O333  1  0.94351605  0.74951802  0.31367130  1
  O  O334  1  0.94272678  0.74991469  0.56234338  1
  O  O335  1  0.94533852  0.74976977  0.81365012  1
  O  O336  1  0.19339160  0.08327393  0.06139956  1
  O  O337  1  0.19203715  0.08360017  0.31346359  1
  O  O338  1  0.19354062  0.08356566  0.56160073  1
  O  O339  1  0.19142736  0.08353652  0.81247643  1
  O  O340  1  0.19455412  0.41656064  0.06231887  1
  O  O341  1  0.19160300  0.41620893  0.31306746  1
  O  O342  1  0.19334680  0.41638181  0.56108646  1
  O  O343  1  0.19409689  0.41658129  0.81155044  1
  O  O344  1  0.19203786  0.75034159  0.06255808  1
  O  O345  1  0.19365217  0.75039562  0.31148615  1
  O  O346  1  0.19187803  0.74966829  0.56333055  1
  O  O347  1  0.19254822  0.75008588  0.81216310  1
  O  O348  1  0.69292908  0.08316837  0.06147695  1
  O  O349  1  0.69045022  0.08323144  0.31362280  1
  O  O350  1  0.69333513  0.08292036  0.56069055  1
  O  O351  1  0.69078649  0.08306251  0.81233446  1
  O  O352  1  0.69379837  0.41644880  0.06147104  1
  O  O353  1  0.69407460  0.41649207  0.31206470  1
  O  O354  1  0.69427196  0.41659735  0.56187748  1
  O  O355  1  0.69279024  0.41677613  0.81161021  1
  O  O356  1  0.69021714  0.74994776  0.06255361  1
  O  O357  1  0.69310435  0.75022718  0.31108336  1
  O  O358  1  0.69366001  0.75040611  0.56178110  1
  O  O359  1  0.69231454  0.75019191  0.81167792  1
  O  O360  1  0.30560307  0.24947974  0.18908823  1
  O  O361  1  0.30732954  0.24966436  0.43656867  1
  O  O362  1  0.30706369  0.24967520  0.68892863  1
  O  O363  1  0.30808538  0.24954283  0.93749612  1
  O  O364  1  0.30773624  0.58381989  0.18670890  1
  O  O365  1  0.30588281  0.58331671  0.43821704  1
  O  O366  1  0.30787886  0.58335667  0.68765751  1
  O  O367  1  0.30775911  0.58323046  0.93764290  1
  O  O368  1  0.30517602  0.91666884  0.18873181  1
  O  O369  1  0.30793370  0.91710116  0.43744849  1
  O  O370  1  0.30864975  0.91672098  0.68748915  1
  O  O371  1  0.30782501  0.91740959  0.93684486  1
  O  O372  1  0.80952946  0.24925584  0.18795489  1
  O  O373  1  0.80953368  0.24951005  0.43709829  1
  O  O374  1  0.80883922  0.24929794  0.68694490  1
  O  O375  1  0.80717947  0.24939272  0.93914424  1
  O  O376  1  0.80643558  0.58360091  0.18805439  1
  O  O377  1  0.80696657  0.58348010  0.43890567  1
  O  O378  1  0.81003588  0.58420486  0.68751951  1
  O  O379  1  0.80722684  0.58410928  0.93814668  1
  O  O380  1  0.81062765  0.91658527  0.18771743  1
  O  O381  1  0.80969817  0.91704185  0.43676993  1
  O  O382  1  0.80697589  0.91681809  0.68864319  1
  O  O383  1  0.80765122  0.91648505  0.93952925  1
  O  O384  1  0.23280750  0.24966544  0.03805429  1
  O  O385  1  0.23258298  0.25007172  0.29057195  1
  O  O386  1  0.23233115  0.24982525  0.53729449  1
  O  O387  1  0.23426382  0.25076775  0.79051583  1
  O  O388  1  0.23380376  0.58320073  0.03868984  1
  O  O389  1  0.23467288  0.58379296  0.28845648  1
  O  O390  1  0.23205242  0.58245316  0.53935976  1
  O  O391  1  0.23351671  0.58359701  0.78841502  1
  O  O392  1  0.23243403  0.91677171  0.03712651  1
  O  O393  1  0.23220928  0.91696277  0.29049359  1
  O  O394  1  0.23321702  0.91706360  0.53804209  1
  O  O395  1  0.23534177  0.91590374  0.78871745  1
  O  O396  1  0.73477197  0.24979822  0.04130755  1
  O  O397  1  0.73446551  0.25096031  0.28824021  1
  O  O398  1  0.73418838  0.24964035  0.53736867  1
  O  O399  1  0.73508469  0.24974994  0.78834538  1
  O  O400  1  0.73377701  0.58252292  0.03968440  1
  O  O401  1  0.73233036  0.58299061  0.28930725  1
  O  O402  1  0.73516297  0.58321323  0.54149308  1
  O  O403  1  0.73473410  0.58361050  0.78794190  1
  O  O404  1  0.73461657  0.91705709  0.04116416  1
  O  O405  1  0.73559676  0.91596494  0.28794306  1
  O  O406  1  0.73495421  0.91712767  0.53765862  1
  O  O407  1  0.73381718  0.91671801  0.79057136  1
  O  O408  1  0.26673447  0.08330352  0.21252856  1
  O  O409  1  0.26681141  0.08382468  0.46018567  1
  O  O410  1  0.26593080  0.08343952  0.71179931  1
  O  O411  1  0.26520688  0.08337541  0.95883460  1
  O  O412  1  0.26687640  0.41566334  0.21281534  1
  O  O413  1  0.26660202  0.41687628  0.45959291  1
  O  O414  1  0.26651110  0.41661646  0.70954615  1
  O  O415  1  0.26803853  0.41732612  0.96064922  1
  O  O416  1  0.26737946  0.75060799  0.21013754  1
  O  O417  1  0.26502956  0.74978948  0.46165704  1
  O  O418  1  0.26638115  0.74967932  0.71108304  1
  O  O419  1  0.26639999  0.74940721  0.96180843  1
  O  O420  1  0.76541572  0.08390142  0.21319772  1
  O  O421  1  0.76566703  0.08366650  0.45861658  1
  O  O422  1  0.76660757  0.08327960  0.71201457  1
  O  O423  1  0.76601870  0.08350586  0.95998472  1
  O  O424  1  0.76770312  0.41625406  0.21078728  1
  O  O425  1  0.76843390  0.41705506  0.46087069  1
  O  O426  1  0.76631866  0.41616728  0.71037451  1
  O  O427  1  0.76835519  0.41655015  0.96054625  1
  O  O428  1  0.76550895  0.74951993  0.20906613  1
  O  O429  1  0.76830712  0.74927201  0.46097027  1
  O  O430  1  0.76651141  0.75084957  0.71063752  1
  O  O431  1  0.76555409  0.74988672  0.96229583  1
  O  O432  1  0.01682839  0.08313603  0.16568222  1
  O  O433  1  0.01864520  0.08404492  0.41449083  1
  O  O434  1  0.01582227  0.08332039  0.66566014  1
  O  O435  1  0.01775715  0.08327527  0.91326885  1
  O  O436  1  0.01517890  0.41668518  0.16386042  1
  O  O437  1  0.01630062  0.41581137  0.41276058  1
  O  O438  1  0.01545716  0.41644292  0.66334935  1
  O  O439  1  0.01659180  0.41668172  0.91592286  1
  O  O440  1  0.01939879  0.75020614  0.16523528  1
  O  O441  1  0.01617395  0.75015681  0.41524708  1
  O  O442  1  0.01811703  0.74956201  0.66267157  1
  O  O443  1  0.01978467  0.75058335  0.91432182  1
  O  O444  1  0.51491816  0.08312492  0.16589563  1
  O  O445  1  0.51514186  0.08354548  0.41271954  1
  O  O446  1  0.51469287  0.08316121  0.66230035  1
  O  O447  1  0.51742414  0.08357247  0.91581430  1
  O  O448  1  0.51405974  0.41669213  0.16393158  1
  O  O449  1  0.51436037  0.41652448  0.41305856  1
  O  O450  1  0.51445855  0.41665416  0.66245690  1
  O  O451  1  0.51483572  0.41673286  0.91732521  1
  O  O452  1  0.51496311  0.74969971  0.16297254  1
  O  O453  1  0.51448338  0.75042440  0.41293188  1
  O  O454  1  0.51423069  0.74977730  0.66647273  1
  O  O455  1  0.51307040  0.75006281  0.91415725  1
  O  O456  1  0.48399764  0.24999640  0.08835186  1
  O  O457  1  0.48332941  0.24942003  0.33754885  1
  O  O458  1  0.48422492  0.24998645  0.58364887  1
  O  O459  1  0.48169863  0.24971995  0.83513520  1
  O  O460  1  0.48221920  0.58406848  0.08803816  1
  O  O461  1  0.48396636  0.58310334  0.33497805  1
  O  O462  1  0.48057979  0.58402413  0.58471733  1
  O  O463  1  0.48017123  0.58274145  0.83643401  1
  O  O464  1  0.48262534  0.91633446  0.08540585  1
  O  O465  1  0.48123695  0.91730433  0.33556430  1
  O  O466  1  0.48089684  0.91629422  0.58517028  1
  O  O467  1  0.48102183  0.91709956  0.83612013  1
  O  O468  1  0.98397384  0.25010993  0.08771244  1
  O  O469  1  0.98418690  0.24990976  0.33695538  1
  O  O470  1  0.98252142  0.25003153  0.58490450  1
  O  O471  1  0.98499939  0.25011812  0.83709754  1
  O  O472  1  0.98524295  0.58404937  0.08419775  1
  O  O473  1  0.98485844  0.58295898  0.33675214  1
  O  O474  1  0.98425334  0.58320984  0.58677541  1
  O  O475  1  0.98669287  0.58333605  0.83632863  1
  O  O476  1  0.98491517  0.91691575  0.08723487  1
  O  O477  1  0.98446350  0.91674275  0.33751730  1
  O  O478  1  0.98494104  0.91697732  0.58461490  1
  O  O479  1  0.98588681  0.91580265  0.83611470  1
  O  O480  1  0.08778981  0.31509409  0.07737562  1
  O  O481  1  0.08773900  0.31531043  0.32719271  1
  O  O482  1  0.08661007  0.31485678  0.57593715  1
  O  O483  1  0.08838051  0.31491900  0.82786918  1
  O  O484  1  0.08944152  0.64917821  0.07794853  1
  O  O485  1  0.08894456  0.64689270  0.32838934  1
  O  O486  1  0.08798142  0.64878109  0.57730835  1
  O  O487  1  0.09002255  0.64945323  0.82780125  1
  O  O488  1  0.08910283  0.98077471  0.07757402  1
  O  O489  1  0.08769147  0.98314896  0.32755968  1
  O  O490  1  0.08936603  0.98070772  0.57685983  1
  O  O491  1  0.08897440  0.98188469  0.82828506  1
  O  O492  1  0.58727644  0.31535432  0.07806632  1
  O  O493  1  0.58712925  0.31441565  0.32672220  1
  O  O494  1  0.58825712  0.31508647  0.57582621  1
  O  O495  1  0.58552860  0.31450794  0.82749065  1
  O  O496  1  0.58579276  0.64922214  0.07810927  1
  O  O497  1  0.58797567  0.64808906  0.32665228  1
  O  O498  1  0.58464935  0.64874888  0.57696521  1
  O  O499  1  0.58379733  0.64822202  0.82724709  1
  O  O500  1  0.58678146  0.98043531  0.07780449  1
  O  O501  1  0.58513723  0.98269868  0.32743681  1
  O  O502  1  0.58497661  0.98098397  0.57665279  1
  O  O503  1  0.58468206  0.98280222  0.82755543  1
  O  O504  1  0.41062913  0.01852405  0.17364048  1
  O  O505  1  0.41109182  0.01860696  0.42204841  1
  O  O506  1  0.41119584  0.01770896  0.67076457  1
  O  O507  1  0.41329096  0.01878229  0.92284256  1
  O  O508  1  0.40990315  0.35269073  0.17350723  1
  O  O509  1  0.41112848  0.34991896  0.42214453  1
  O  O510  1  0.41080521  0.35242203  0.67124542  1
  O  O511  1  0.41122157  0.35088596  0.92317395  1
  O  O512  1  0.41124676  0.68438480  0.17260552  1
  O  O513  1  0.41072312  0.68599348  0.42172212  1
  O  O514  1  0.41008652  0.68481296  0.67230341  1
  O  O515  1  0.40947399  0.68471227  0.92260151  1
  O  O516  1  0.91296572  0.01827495  0.17232501  1
  O  O517  1  0.91504669  0.01835168  0.42244254  1
  O  O518  1  0.91132043  0.01968033  0.67327132  1
  O  O519  1  0.91453692  0.01771409  0.92287481  1
  O  O520  1  0.91163252  0.35098349  0.17238421  1
  O  O521  1  0.91251462  0.35048805  0.42180445  1
  O  O522  1  0.91193236  0.35127457  0.67100047  1
  O  O523  1  0.91236022  0.35211435  0.92340246  1
  O  O524  1  0.91536709  0.68563461  0.17312273  1
  O  O525  1  0.91206452  0.68568457  0.42328152  1
  O  O526  1  0.91465443  0.68423404  0.67233207  1
  O  O527  1  0.91642043  0.68473492  0.92349767  1
  O  O528  1  0.16301403  0.01857346  0.20366193  1
  O  O529  1  0.16306364  0.01838399  0.45204495  1
  O  O530  1  0.16252261  0.01843710  0.70266709  1
  O  O531  1  0.16128750  0.01835718  0.95227461  1
  O  O532  1  0.16325779  0.35046570  0.20331739  1
  O  O533  1  0.16262457  0.35154224  0.45160732  1
  O  O534  1  0.16242202  0.35254583  0.70208496  1
  O  O535  1  0.16456245  0.35151718  0.95282987  1
  O  O536  1  0.16312316  0.68642283  0.20170081  1
  O  O537  1  0.16170676  0.68437004  0.45371732  1
  O  O538  1  0.16267677  0.68394873  0.70272155  1
  O  O539  1  0.16264145  0.68468825  0.95294496  1
  O  O540  1  0.66189543  0.01920034  0.20333587  1
  O  O541  1  0.66124657  0.01914913  0.45126077  1
  O  O542  1  0.66310506  0.01799703  0.70208938  1
  O  O543  1  0.66196386  0.01849385  0.95192220  1
  O  O544  1  0.66373979  0.35143430  0.20269346  1
  O  O545  1  0.66503521  0.35088636  0.45217033  1
  O  O546  1  0.66234844  0.35168954  0.70230999  1
  O  O547  1  0.66474346  0.35110758  0.95197201  1
  O  O548  1  0.66162819  0.68373329  0.20238592  1
  O  O549  1  0.66401542  0.68485554  0.45268423  1
  O  O550  1  0.66297001  0.68510477  0.70210032  1
  O  O551  1  0.66177701  0.68487880  0.95253424  1
  O  O552  1  0.33612859  0.31552254  0.04731270  1
  O  O553  1  0.33701243  0.31447955  0.29835396  1
  O  O554  1  0.33577905  0.31528910  0.54621350  1
  O  O555  1  0.33867032  0.31473273  0.79805513  1
  O  O556  1  0.33742134  0.64854183  0.04745923  1
  O  O557  1  0.33800976  0.64900143  0.29626964  1
  O  O558  1  0.33604206  0.64712582  0.54818364  1
  O  O559  1  0.33680206  0.64944384  0.79741478  1
  O  O560  1  0.33599639  0.98141214  0.04728341  1
  O  O561  1  0.33647948  0.98149230  0.29814981  1
  O  O562  1  0.33663992  0.98315718  0.54701305  1
  O  O563  1  0.33919191  0.98039450  0.79784820  1
  O  O564  1  0.83860113  0.31567510  0.04782938  1
  O  O565  1  0.83856292  0.31588159  0.29724415  1
  O  O566  1  0.83769994  0.31570786  0.54690262  1
  O  O567  1  0.83923592  0.31356744  0.79668167  1
  O  O568  1  0.83733849  0.64790888  0.04814944  1
  O  O569  1  0.83635446  0.64766982  0.29766664  1
  O  O570  1  0.83924897  0.64845597  0.54797353  1
  O  O571  1  0.83825559  0.64899505  0.79773554  1
  O  O572  1  0.83886145  0.98167287  0.04865704  1
  O  O573  1  0.83919873  0.98141954  0.29808414  1
  O  O574  1  0.83883454  0.98119956  0.54668111  1
  O  O575  1  0.83728178  0.98289003  0.79765910  1
  O  O576  1  0.41109976  0.14843623  0.17420324  1
  O  O577  1  0.41145369  0.14870881  0.42253590  1
  O  O578  1  0.41124226  0.14790331  0.67151581  1
  O  O579  1  0.41366793  0.14894185  0.92282503  1
  O  O580  1  0.41059984  0.48281094  0.17256582  1
  O  O581  1  0.40984976  0.47996157  0.42230802  1
  O  O582  1  0.41122869  0.48268482  0.67086302  1
  O  O583  1  0.41039370  0.48111142  0.92304120  1
  O  O584  1  0.41099561  0.81427552  0.17288465  1
  O  O585  1  0.41094695  0.81613764  0.42120356  1
  O  O586  1  0.41024158  0.81494382  0.67215997  1
  O  O587  1  0.40919029  0.81496107  0.92231753  1
  O  O588  1  0.91322471  0.14856857  0.17271135  1
  O  O589  1  0.91441109  0.14842328  0.42209869  1
  O  O590  1  0.91249397  0.14986239  0.67260037  1
  O  O591  1  0.91398802  0.14779054  0.92278380  1
  O  O592  1  0.91121552  0.48115666  0.17295119  1
  O  O593  1  0.91243118  0.48056398  0.42276650  1
  O  O594  1  0.91216639  0.48182089  0.67127519  1
  O  O595  1  0.91283956  0.48204741  0.92331757  1
  O  O596  1  0.91560717  0.81578334  0.17251788  1
  O  O597  1  0.91250151  0.81583363  0.42264622  1
  O  O598  1  0.91463873  0.81450193  0.67257319  1
  O  O599  1  0.91545881  0.81467814  0.92321698  1
  O  O600  1  0.08784010  0.18518050  0.07770768  1
  O  O601  1  0.08829244  0.18518952  0.32749178  1
  O  O602  1  0.08663917  0.18506839  0.57642673  1
  O  O603  1  0.08836699  0.18459716  0.82850046  1
  O  O604  1  0.08916278  0.51912354  0.07678341  1
  O  O605  1  0.08790470  0.51665104  0.32821783  1
  O  O606  1  0.08808634  0.51883963  0.57670268  1
  O  O607  1  0.09065013  0.51927646  0.82689273  1
  O  O608  1  0.08840586  0.85078332  0.07784363  1
  O  O609  1  0.08871506  0.85308314  0.32741065  1
  O  O610  1  0.08849503  0.85068185  0.57703070  1
  O  O611  1  0.08992116  0.85160706  0.82851885  1
  O  O612  1  0.58763513  0.18517826  0.07884451  1
  O  O613  1  0.58730169  0.18431639  0.32784350  1
  O  O614  1  0.58832391  0.18508070  0.57606475  1
  O  O615  1  0.58553137  0.18423392  0.82789994  1
  O  O616  1  0.58558879  0.51894996  0.07730629  1
  O  O617  1  0.58784688  0.51794828  0.32645475  1
  O  O618  1  0.58441987  0.51869258  0.57646491  1
  O  O619  1  0.58427843  0.51806437  0.82747659  1
  O  O620  1  0.58586527  0.85010710  0.07765991  1
  O  O621  1  0.58533715  0.85260583  0.32716022  1
  O  O622  1  0.58459676  0.85091499  0.57668931  1
  O  O623  1  0.58475409  0.85251465  0.82714687  1
  O  O624  1  0.33661409  0.18536970  0.04769115  1
  O  O625  1  0.33639086  0.18454962  0.29866837  1
  O  O626  1  0.33612858  0.18506047  0.54659042  1
  O  O627  1  0.33775006  0.18490431  0.79871869  1
  O  O628  1  0.33786081  0.51844301  0.04751620  1
  O  O629  1  0.33808510  0.51857522  0.29621401  1
  O  O630  1  0.33598133  0.51707982  0.54725594  1
  O  O631  1  0.33756594  0.51942392  0.79793387  1
  O  O632  1  0.33581053  0.85126750  0.04664175  1
  O  O633  1  0.33605872  0.85144138  0.29801654  1
  O  O634  1  0.33728873  0.85295566  0.54761064  1
  O  O635  1  0.33868748  0.85025805  0.79666431  1
  O  O636  1  0.83907967  0.18559528  0.04873473  1
  O  O637  1  0.83819958  0.18594744  0.29879008  1
  O  O638  1  0.83830785  0.18560582  0.54740157  1
  O  O639  1  0.83819880  0.18342140  0.79672232  1
  O  O640  1  0.83785895  0.51774459  0.04689085  1
  O  O641  1  0.83620251  0.51759557  0.29730286  1
  O  O642  1  0.83936437  0.51827349  0.54759211  1
  O  O643  1  0.83854678  0.51879774  0.79711063  1
  O  O644  1  0.83868045  0.85163994  0.04887611  1
  O  O645  1  0.83967051  0.85137118  0.29736639  1
  O  O646  1  0.83817899  0.85088930  0.54657235  1
  O  O647  1  0.83806946  0.85265883  0.79806899  1
  O  O648  1  0.16329510  0.14880944  0.20363765  1
  O  O649  1  0.16245580  0.14834190  0.45209135  1
  O  O650  1  0.16245703  0.14858875  0.70257338  1
  O  O651  1  0.16122857  0.14852596  0.95259256  1
  O  O652  1  0.16344036  0.48061336  0.20274701  1
  O  O653  1  0.16242897  0.48163027  0.45178891  1
  O  O654  1  0.16312661  0.48262465  0.70263971  1
  O  O655  1  0.16408027  0.48167945  0.95304465  1
  O  O656  1  0.16372325  0.81644326  0.20233922  1
  O  O657  1  0.16158102  0.81478949  0.45375259  1
  O  O658  1  0.16231209  0.81386904  0.70192798  1
  O  O659  1  0.16295070  0.81488368  0.95215775  1
  O  O660  1  0.66213088  0.14968912  0.20421508  1
  O  O661  1  0.66169036  0.14923077  0.45206900  1
  O  O662  1  0.66293401  0.14818425  0.70231103  1
  O  O663  1  0.66203382  0.14850901  0.95213087  1
  O  O664  1  0.66388612  0.48163954  0.20250712  1
  O  O665  1  0.66396688  0.48097091  0.45251052  1
  O  O666  1  0.66279734  0.48193206  0.70208431  1
  O  O667  1  0.66419894  0.48124612  0.95188487  1
  O  O668  1  0.66110080  0.81389315  0.20165209  1
  O  O669  1  0.66471215  0.81498565  0.45171954  1
  O  O670  1  0.66247795  0.81533058  0.70222005  1
  O  O671  1  0.66199099  0.81510456  0.95260768  1
