# generated using pymatgen
data_Na2MnFe(PO4)2
_symmetry_space_group_name_H-M   'P 1'
_cell_length_a   21.08875346
_cell_length_b   18.94106137
_cell_length_c   20.04670929
_cell_angle_alpha   89.99904901
_cell_angle_beta   89.99694585
_cell_angle_gamma   89.99835797
_symmetry_Int_Tables_number   1
_chemical_formula_structural   Na2MnFe(PO4)2
_chemical_formula_sum   'Na96 Mn48 Fe48 P96 O384'
_cell_volume   8007.52516766
_cell_formula_units_Z   48
loop_
 _symmetry_equiv_pos_site_id
 _symmetry_equiv_pos_as_xyz
  1  'x, y, z'
loop_
 _atom_site_type_symbol
 _atom_site_label
 _atom_site_symmetry_multiplicity
 _atom_site_fract_x
 _atom_site_fract_y
 _atom_site_fract_z
 _atom_site_occupancy
  Na  Na0  1  0.00144246  0.00063263  0.00051569  1
  Na  Na1  1  -0.00208093  -0.00055353  0.25005927  1
  Na  Na2  1  -0.00124849  0.00009733  0.49889619  1
  Na  Na3  1  0.00076650  -0.00017958  0.75052503  1
  Na  Na4  1  -0.00280814  0.33266220  -0.00052444  1
  Na  Na5  1  -0.00289551  0.33358348  0.24980790  1
  Na  Na6  1  -0.00186690  0.33357964  0.50020342  1
  Na  Na7  1  -0.00166357  0.33292180  0.74979194  1
  Na  Na8  1  -0.00041578  0.66553605  0.00066243  1
  Na  Na9  1  0.00008444  0.66561052  0.24983123  1
  Na  Na10  1  0.00025963  0.66611013  0.49993777  1
  Na  Na11  1  -0.00091916  0.66562603  0.75051289  1
  Na  Na12  1  0.49871861  0.00056431  0.00059614  1
  Na  Na13  1  0.49605949  -0.00070531  0.24968413  1
  Na  Na14  1  0.49680020  -0.00048031  0.49984685  1
  Na  Na15  1  0.49910607  0.00105215  0.74948698  1
  Na  Na16  1  0.49829063  0.33264481  0.00060983  1
  Na  Na17  1  0.49928921  0.33287624  0.25001050  1
  Na  Na18  1  0.50017559  0.33377208  0.49875854  1
  Na  Na19  1  0.49949524  0.33343267  0.75078765  1
  Na  Na20  1  0.50296241  0.66762597  0.00009580  1
  Na  Na21  1  0.50300326  0.66686947  0.24979318  1
  Na  Na22  1  0.50088100  0.66568765  0.50004883  1
  Na  Na23  1  0.49949894  0.66568775  0.74999689  1
  Na  Na24  1  0.25137296  0.00017125  0.12562393  1
  Na  Na25  1  0.25364520  0.00128700  0.37560987  1
  Na  Na26  1  0.25013840  0.00043823  0.62523470  1
  Na  Na27  1  0.24954135  0.00025582  0.87376525  1
  Na  Na28  1  0.25237662  0.33470931  0.12616390  1
  Na  Na29  1  0.25086419  0.33398803  0.37508610  1
  Na  Na30  1  0.25038175  0.33399549  0.62443408  1
  Na  Na31  1  0.24970015  0.33330470  0.87467593  1
  Na  Na32  1  0.24860578  0.66546126  0.12538256  1
  Na  Na33  1  0.25062575  0.66574491  0.37581401  1
  Na  Na34  1  0.25231295  0.66631524  0.62413478  1
  Na  Na35  1  0.24952068  0.66565865  0.87396503  1
  Na  Na36  1  0.75129064  0.00082682  0.12439170  1
  Na  Na37  1  0.75212290  0.00094892  0.37592330  1
  Na  Na38  1  0.75115134  0.00006721  0.62580218  1
  Na  Na39  1  0.74966752  -0.00014328  0.87450066  1
  Na  Na40  1  0.75137064  0.33303293  0.12478236  1
  Na  Na41  1  0.75114046  0.33358780  0.37544727  1
  Na  Na42  1  0.75170755  0.33371339  0.62481834  1
  Na  Na43  1  0.75281227  0.33362255  0.87427425  1
  Na  Na44  1  0.74867503  0.66625492  0.12493796  1
  Na  Na45  1  0.74786664  0.66585923  0.37411308  1
  Na  Na46  1  0.74860860  0.66593440  0.62498056  1
  Na  Na47  1  0.74958750  0.66644809  0.87600809  1
  Na  Na48  1  -0.00057565  0.16735587  0.00024946  1
  Na  Na49  1  -0.00261546  0.16795621  0.25066937  1
  Na  Na50  1  -0.00077945  0.16744053  0.49958333  1
  Na  Na51  1  0.00186758  0.16637523  0.74982700  1
  Na  Na52  1  -0.00208590  0.50027619  0.00020610  1
  Na  Na53  1  -0.00157272  0.50005578  0.24916239  1
  Na  Na54  1  -0.00062100  0.49938784  0.49943900  1
  Na  Na55  1  -0.00099458  0.49956768  0.75031487  1
  Na  Na56  1  0.00084384  0.83352873  0.00027300  1
  Na  Na57  1  -0.00078761  0.83353180  0.24991300  1
  Na  Na58  1  -0.00170791  0.83401841  0.49968449  1
  Na  Na59  1  -0.00131712  0.83444553  0.75100620  1
  Na  Na60  1  0.50024353  0.16716975  0.00103651  1
  Na  Na61  1  0.50011917  0.16711633  0.24968165  1
  Na  Na62  1  0.50009669  0.16733908  0.49900152  1
  Na  Na63  1  0.50010298  0.16739522  0.74989513  1
  Na  Na64  1  0.49870209  0.49990811  0.00076258  1
  Na  Na65  1  0.49858476  0.50015380  0.24997736  1
  Na  Na66  1  0.49856381  0.49981925  0.49941408  1
  Na  Na67  1  0.49856793  0.49942935  0.75014322  1
  Na  Na68  1  0.50008799  0.83327625  -0.00067340  1
  Na  Na69  1  0.49986054  0.83340800  0.24987164  1
  Na  Na70  1  0.49940278  0.83339770  0.50031639  1
  Na  Na71  1  0.49891691  0.83350628  0.75026842  1
  Na  Na72  1  0.25312195  0.16542256  0.12510631  1
  Na  Na73  1  0.25195016  0.16655009  0.37551334  1
  Na  Na74  1  0.24995193  0.16663307  0.62551638  1
  Na  Na75  1  0.24830566  0.16762767  0.87401244  1
  Na  Na76  1  0.24974093  0.49972535  0.12624353  1
  Na  Na77  1  0.25127915  0.49883837  0.37627122  1
  Na  Na78  1  0.25039575  0.49944321  0.62392875  1
  Na  Na79  1  0.25116668  0.49887553  0.87379556  1
  Na  Na80  1  0.25001877  0.83349267  0.12564716  1
  Na  Na81  1  0.25140455  0.83374128  0.37481829  1
  Na  Na82  1  0.25296549  0.83272660  0.62433362  1
  Na  Na83  1  0.24958221  0.83391658  0.87454470  1
  Na  Na84  1  0.75020261  0.16721134  0.12430833  1
  Na  Na85  1  0.74977769  0.16770724  0.37500983  1
  Na  Na86  1  0.75025424  0.16735488  0.62555938  1
  Na  Na87  1  0.74917969  0.16786075  0.87406058  1
  Na  Na88  1  0.75278032  0.49920079  0.12477794  1
  Na  Na89  1  0.75069623  0.49976188  0.37547799  1
  Na  Na90  1  0.74989143  0.49999172  0.62436115  1
  Na  Na91  1  0.75300636  0.49858728  0.87557568  1
  Na  Na92  1  0.74867500  0.83367389  0.12500113  1
  Na  Na93  1  0.74961803  0.83349593  0.37521625  1
  Na  Na94  1  0.75125624  0.83302931  0.62573544  1
  Na  Na95  1  0.75059740  0.83305379  0.87518611  1
  Mn  Mn96  1  0.64268703  0.25069515  0.74761069  1
  Mn  Mn97  1  0.85882121  0.08379713  0.75269236  1
  Mn  Mn98  1  0.85752969  0.74978398  0.00246572  1
  Mn  Mn99  1  0.10718004  0.41606368  0.87324671  1
  Mn  Mn100  1  0.39159558  0.24968787  0.87734629  1
  Mn  Mn101  1  0.10801848  0.08400782  0.12357754  1
  Mn  Mn102  1  0.10810912  0.74986225  0.12289901  1
  Mn  Mn103  1  0.64149973  0.91776219  0.99738718  1
  Mn  Mn104  1  0.10742307  0.08387601  0.37245564  1
  Mn  Mn105  1  0.35854219  0.74909006  0.25249217  1
  Mn  Mn106  1  0.89222327  0.91661649  0.12725027  1
  Mn  Mn107  1  0.60740259  0.08295797  0.12313085  1
  Mn  Mn108  1  0.85799942  0.08381143  0.50284687  1
  Mn  Mn109  1  0.39257700  0.25025380  0.37742042  1
  Mn  Mn110  1  0.14219652  0.91628868  0.74701667  1
  Mn  Mn111  1  0.64175153  0.91758128  0.24783725  1
  Mn  Mn112  1  0.39213347  0.91703922  0.87754454  1
  Mn  Mn113  1  0.85802653  0.08365466  0.00151271  1
  Mn  Mn114  1  0.10759219  0.74936458  0.37271193  1
  Mn  Mn115  1  0.39197770  0.58353121  0.87773742  1
  Mn  Mn116  1  0.60801549  0.41653079  0.87296919  1
  Mn  Mn117  1  0.64186969  0.91702706  0.49796934  1
  Mn  Mn118  1  0.14211580  0.25019063  0.24799505  1
  Mn  Mn119  1  0.60780722  0.41667240  0.12301874  1
  Mn  Mn120  1  0.10792009  0.74998802  0.87261265  1
  Mn  Mn121  1  0.64256398  0.91674871  0.74786441  1
  Mn  Mn122  1  0.14275984  0.91676058  0.49786066  1
  Mn  Mn123  1  0.64295615  0.58193312  0.99783741  1
  Mn  Mn124  1  0.64245048  0.58236505  0.74838946  1
  Mn  Mn125  1  0.89167343  0.58371616  0.62712168  1
  Mn  Mn126  1  0.60719016  0.74951936  0.62279903  1
  Mn  Mn127  1  0.14235460  0.25008851  0.99878063  1
  Mn  Mn128  1  0.14281476  0.58316150  0.49768420  1
  Mn  Mn129  1  0.35904504  0.74972544  0.50234582  1
  Mn  Mn130  1  0.60745084  0.08248336  0.37270789  1
  Mn  Mn131  1  0.35762989  0.74962882  0.00253199  1
  Mn  Mn132  1  0.60789353  0.41694915  0.37238358  1
  Mn  Mn133  1  0.10818834  0.75013433  0.62260748  1
  Mn  Mn134  1  0.85682878  0.75019006  0.25254384  1
  Mn  Mn135  1  0.35702792  0.08408356  0.75232911  1
  Mn  Mn136  1  0.14284112  0.91658651  0.24860134  1
  Mn  Mn137  1  0.85727494  0.74940143  0.50207926  1
  Mn  Mn138  1  0.60715269  0.08399767  0.62247874  1
  Mn  Mn139  1  0.14220991  0.25001616  0.49780554  1
  Mn  Mn140  1  0.10691192  0.41614165  0.12317626  1
  Mn  Mn141  1  0.39190813  0.58357402  0.12751655  1
  Mn  Mn142  1  0.14238907  0.58284761  0.74745430  1
  Mn  Mn143  1  0.85822743  0.74926351  0.75269216  1
  Fe  Fe144  1  0.35697513  0.41687431  0.25222001  1
  Fe  Fe145  1  0.89338562  0.91695348  0.87722876  1
  Fe  Fe146  1  0.35709038  0.41650148  0.00177688  1
  Fe  Fe147  1  0.89185509  0.25033985  0.37717025  1
  Fe  Fe148  1  0.60738591  0.75064251  0.87298018  1
  Fe  Fe149  1  0.89294455  0.91705321  0.62673299  1
  Fe  Fe150  1  0.89314847  0.24954587  0.62676307  1
  Fe  Fe151  1  0.14250901  0.58283363  0.24925917  1
  Fe  Fe152  1  0.85685685  0.41698736  0.50200315  1
  Fe  Fe153  1  0.64299783  0.25021857  0.99843028  1
  Fe  Fe154  1  0.14314218  0.91663412  0.99885847  1
  Fe  Fe155  1  0.89210303  0.58352926  0.37648843  1
  Fe  Fe156  1  0.60708345  0.75060479  0.12340362  1
  Fe  Fe157  1  0.35710180  0.41646573  0.75100704  1
  Fe  Fe158  1  0.85728248  0.08377564  0.25155672  1
  Fe  Fe159  1  0.35752868  0.41582797  0.50241086  1
  Fe  Fe160  1  0.10627634  0.41680297  0.37346643  1
  Fe  Fe161  1  0.14199543  0.25100569  0.74773287  1
  Fe  Fe162  1  0.64304297  0.58223769  0.24814338  1
  Fe  Fe163  1  0.39255070  0.91675820  0.62722658  1
  Fe  Fe164  1  0.39340210  0.58261563  0.62669278  1
  Fe  Fe165  1  0.35797792  0.74924332  0.75183961  1
  Fe  Fe166  1  0.64313343  0.25048391  0.49877744  1
  Fe  Fe167  1  0.39272817  0.24981069  0.12693477  1
  Fe  Fe168  1  0.64191602  0.58249126  0.49794767  1
  Fe  Fe169  1  0.10670877  0.41628839  0.62311710  1
  Fe  Fe170  1  0.35762370  0.08446754  0.50252975  1
  Fe  Fe171  1  0.39330583  0.58378894  0.37626225  1
  Fe  Fe172  1  0.89276772  0.58357988  0.12754710  1
  Fe  Fe173  1  0.85702009  0.41662884  0.25219180  1
  Fe  Fe174  1  0.85786924  0.41702560  0.75115095  1
  Fe  Fe175  1  0.10696462  0.08358711  0.62283508  1
  Fe  Fe176  1  0.60722727  0.75023372  0.37367495  1
  Fe  Fe177  1  0.39281342  0.91566897  0.37697547  1
  Fe  Fe178  1  0.39195173  0.91665886  0.12626398  1
  Fe  Fe179  1  0.35731943  0.08388349  0.00118218  1
  Fe  Fe180  1  0.89142462  0.24983046  0.12706641  1
  Fe  Fe181  1  0.60707126  0.08324725  0.87357684  1
  Fe  Fe182  1  0.39288162  0.25066685  0.62651812  1
  Fe  Fe183  1  0.35792405  0.08406027  0.25198044  1
  Fe  Fe184  1  0.60723100  0.41628309  0.62329987  1
  Fe  Fe185  1  0.10787947  0.08353720  0.87421399  1
  Fe  Fe186  1  0.14212473  0.58304010  0.99860015  1
  Fe  Fe187  1  0.89337619  0.24923741  0.87673737  1
  Fe  Fe188  1  0.85764239  0.41623254  0.00171971  1
  Fe  Fe189  1  0.89264530  0.58361486  0.87733332  1
  Fe  Fe190  1  0.89199619  0.91621102  0.37679881  1
  Fe  Fe191  1  0.64372525  0.25041323  0.24826979  1
  P  P192  1  0.05116489  0.25038992  0.11039388  1
  P  P193  1  0.05159668  0.25154052  0.36028603  1
  P  P194  1  0.05331017  0.25046028  0.61103204  1
  P  P195  1  0.05326354  0.24973745  0.85980193  1
  P  P196  1  0.05380640  0.58255149  0.11085516  1
  P  P197  1  0.05240125  0.58169594  0.35970350  1
  P  P198  1  0.05324412  0.58202304  0.60994660  1
  P  P199  1  0.05327959  0.58265132  0.86129747  1
  P  P200  1  0.05434710  0.91705959  0.10983381  1
  P  P201  1  0.05187090  0.91679494  0.36013494  1
  P  P202  1  0.05228920  0.91748556  0.60973042  1
  P  P203  1  0.05429082  0.91742321  0.86161562  1
  P  P204  1  0.55437931  0.25024396  0.11101295  1
  P  P205  1  0.55548559  0.25009912  0.36007977  1
  P  P206  1  0.55279959  0.25142256  0.60940527  1
  P  P207  1  0.55443440  0.24943566  0.86135822  1
  P  P208  1  0.55474461  0.58327295  0.11125932  1
  P  P209  1  0.55435713  0.58338248  0.36042502  1
  P  P210  1  0.55302304  0.58151087  0.60981324  1
  P  P211  1  0.55347931  0.58332646  0.86020985  1
  P  P212  1  0.55165018  0.91654966  0.11016634  1
  P  P213  1  0.55179677  0.91631422  0.36016435  1
  P  P214  1  0.55170086  0.91700703  0.61033277  1
  P  P215  1  0.55327855  0.91756118  0.85987365  1
  P  P216  1  0.44437101  0.08378723  0.13906949  1
  P  P217  1  0.44472736  0.08316017  0.38944739  1
  P  P218  1  0.44504972  0.08465788  0.63876321  1
  P  P219  1  0.44699343  0.08400209  0.89076362  1
  P  P220  1  0.44451913  0.41585425  0.13970260  1
  P  P221  1  0.44475645  0.41752433  0.38916156  1
  P  P222  1  0.44621493  0.41602411  0.63910231  1
  P  P223  1  0.44483269  0.41630606  0.88992000  1
  P  P224  1  0.44773350  0.75030523  0.13975991  1
  P  P225  1  0.44814486  0.74914928  0.38969740  1
  P  P226  1  0.44618436  0.74925863  0.64059036  1
  P  P227  1  0.44686407  0.74980845  0.88919693  1
  P  P228  1  0.94580293  0.08423586  0.14065518  1
  P  P229  1  0.94475241  0.08382944  0.38869876  1
  P  P230  1  0.94784590  0.08356244  0.63992543  1
  P  P231  1  0.94843140  0.08353411  0.88998031  1
  P  P232  1  0.94380216  0.41660516  0.13925282  1
  P  P233  1  0.94459439  0.41711314  0.38919791  1
  P  P234  1  0.94556020  0.41620928  0.63906039  1
  P  P235  1  0.94451175  0.41636338  0.88908781  1
  P  P236  1  0.94654629  0.74916933  0.14025710  1
  P  P237  1  0.94616698  0.74918764  0.38975042  1
  P  P238  1  0.94690774  0.75057593  0.64013938  1
  P  P239  1  0.94672871  0.74994782  0.89053962  1
  P  P240  1  0.19837184  0.08359413  0.23551261  1
  P  P241  1  0.19680270  0.08359227  0.48602872  1
  P  P242  1  0.19394237  0.08446028  0.73545182  1
  P  P243  1  0.19764407  0.08300568  0.98483929  1
  P  P244  1  0.19599007  0.41732946  0.23693960  1
  P  P245  1  0.19586365  0.41623503  0.48551196  1
  P  P246  1  0.19654959  0.41598513  0.73412236  1
  P  P247  1  0.19747054  0.41703407  0.98541412  1
  P  P248  1  0.19699985  0.74874973  0.23565345  1
  P  P249  1  0.19758319  0.75015737  0.48470330  1
  P  P250  1  0.19854731  0.74959359  0.73436124  1
  P  P251  1  0.19670744  0.74967768  0.98494940  1
  P  P252  1  0.69792582  0.08420805  0.23511799  1
  P  P253  1  0.69658952  0.08451343  0.48537344  1
  P  P254  1  0.69594003  0.08356284  0.73579396  1
  P  P255  1  0.69600885  0.08466791  0.98421128  1
  P  P256  1  0.69806592  0.41652528  0.23519272  1
  P  P257  1  0.69618154  0.41616720  0.48625600  1
  P  P258  1  0.69771516  0.41659416  0.73417786  1
  P  P259  1  0.69834152  0.41537479  0.98514145  1
  P  P260  1  0.69409552  0.74945884  0.23570643  1
  P  P261  1  0.69539967  0.74924865  0.48453737  1
  P  P262  1  0.69571054  0.74976302  0.73603633  1
  P  P263  1  0.69441535  0.75018654  0.98558623  1
  P  P264  1  0.30383529  0.25016124  0.01525973  1
  P  P265  1  0.30469596  0.25029759  0.26435681  1
  P  P266  1  0.30421656  0.25031573  0.51549947  1
  P  P267  1  0.30298189  0.25123574  0.76354292  1
  P  P268  1  0.30176378  0.58241446  0.01505253  1
  P  P269  1  0.30291099  0.58234901  0.26609244  1
  P  P270  1  0.30609327  0.58205166  0.51417339  1
  P  P271  1  0.30515639  0.58245786  0.76315366  1
  P  P272  1  0.30268435  0.91748002  0.01510441  1
  P  P273  1  0.30587454  0.91719804  0.26459417  1
  P  P274  1  0.30588706  0.91761616  0.51457425  1
  P  P275  1  0.30482900  0.91614037  0.76372678  1
  P  P276  1  0.80441654  0.25018517  0.01396346  1
  P  P277  1  0.80407973  0.25008094  0.26435771  1
  P  P278  1  0.80438040  0.25094717  0.51467378  1
  P  P279  1  0.80602012  0.25087043  0.76411712  1
  P  P280  1  0.80556315  0.58267239  0.01480316  1
  P  P281  1  0.80365731  0.58285002  0.26436575  1
  P  P282  1  0.80266885  0.58272166  0.51346597  1
  P  P283  1  0.80405604  0.58236755  0.76585397  1
  P  P284  1  0.80418359  0.91692252  0.01394084  1
  P  P285  1  0.80339329  0.91758770  0.26556126  1
  P  P286  1  0.80475685  0.91647599  0.51510371  1
  P  P287  1  0.80580976  0.91682932  0.76506360  1
  O  O288  1  0.05556737  0.25068821  0.18703710  1
  O  O289  1  0.05580191  0.25095069  0.43694934  1
  O  O290  1  0.05771518  0.25086701  0.68768886  1
  O  O291  1  0.05688749  0.25078739  0.93653097  1
  O  O292  1  0.05891047  0.58243415  0.18748308  1
  O  O293  1  0.05663653  0.58222186  0.43636721  1
  O  O294  1  0.05630752  0.58240681  0.68676255  1
  O  O295  1  0.05845042  0.58250222  0.93796441  1
  O  O296  1  0.05746924  0.91686516  0.18661849  1
  O  O297  1  0.05616295  0.91702941  0.43678845  1
  O  O298  1  0.05605364  0.91662611  0.68648451  1
  O  O299  1  0.05949997  0.91682013  0.93824170  1
  O  O300  1  0.55986627  0.25054835  0.18766379  1
  O  O301  1  0.55990126  0.25049153  0.43695906  1
  O  O302  1  0.55665630  0.25099849  0.68613797  1
  O  O303  1  0.55867276  0.25058186  0.93817663  1
  O  O304  1  0.55901260  0.58169977  0.18800362  1
  O  O305  1  0.55875170  0.58194684  0.43715829  1
  O  O306  1  0.55673470  0.58173903  0.68648809  1
  O  O307  1  0.55686806  0.58223545  0.93698425  1
  O  O308  1  0.55542318  0.91746533  0.18684827  1
  O  O309  1  0.55558807  0.91729510  0.43683221  1
  O  O310  1  0.55600598  0.91739290  0.68695995  1
  O  O311  1  0.55570896  0.91750256  0.93667484  1
  O  O312  1  0.44061009  0.08403389  0.06234021  1
  O  O313  1  0.44124999  0.08443276  0.31258274  1
  O  O314  1  0.44165255  0.08476692  0.56198758  1
  O  O315  1  0.44285991  0.08446586  0.81399546  1
  O  O316  1  0.44039253  0.41676222  0.06296332  1
  O  O317  1  0.44069483  0.41668072  0.31235134  1
  O  O318  1  0.44202714  0.41577264  0.56240420  1
  O  O319  1  0.44057596  0.41612918  0.81316442  1
  O  O320  1  0.44401703  0.74942002  0.06304444  1
  O  O321  1  0.44489441  0.74895710  0.31301585  1
  O  O322  1  0.44409813  0.74929585  0.56374161  1
  O  O323  1  0.44165905  0.74928283  0.81257657  1
  O  O324  1  0.94323286  0.08377022  0.06388647  1
  O  O325  1  0.94078534  0.08391419  0.31199036  1
  O  O326  1  0.94411451  0.08391652  0.56319942  1
  O  O327  1  0.94516952  0.08345029  0.81332736  1
  O  O328  1  0.94042390  0.41638396  0.06242379  1
  O  O329  1  0.94022248  0.41708547  0.31242624  1
  O  O330  1  0.94089617  0.41707236  0.56233283  1
  O  O331  1  0.94141444  0.41671763  0.81229854  1
  O  O332  1  0.94347393  0.74969865  0.06354367  1
  O  O333  1  0.94318690  0.74907299  0.31301358  1
  O  O334  1  0.94366720  0.74956789  0.56339171  1
  O  O335  1  0.94399916  0.74968981  0.81376077  1
  O  O336  1  0.19422395  0.08359560  0.06162654  1
  O  O337  1  0.19413328  0.08390085  0.31220432  1
  O  O338  1  0.19106414  0.08352775  0.56268007  1
  O  O339  1  0.18997702  0.08372576  0.81222500  1
  O  O340  1  0.19351697  0.41655370  0.06218891  1
  O  O341  1  0.19098937  0.41644060  0.31350980  1
  O  O342  1  0.19054100  0.41631121  0.56214929  1
  O  O343  1  0.19262033  0.41630897  0.81076200  1
  O  O344  1  0.19394817  0.74969751  0.06176478  1
  O  O345  1  0.19394140  0.74956950  0.31242037  1
  O  O346  1  0.19424150  0.75015008  0.56148070  1
  O  O347  1  0.19402123  0.74981486  0.81104510  1
  O  O348  1  0.69297476  0.08364998  0.06100678  1
  O  O349  1  0.69402264  0.08330199  0.31178847  1
  O  O350  1  0.69339310  0.08361967  0.56213283  1
  O  O351  1  0.69123362  0.08342039  0.81248813  1
  O  O352  1  0.69424419  0.41608395  0.06179990  1
  O  O353  1  0.69437827  0.41675228  0.31188827  1
  O  O354  1  0.69158452  0.41633280  0.56292575  1
  O  O355  1  0.69373740  0.41631430  0.81089527  1
  O  O356  1  0.69006708  0.75069149  0.06240511  1
  O  O357  1  0.69005686  0.75049629  0.31249523  1
  O  O358  1  0.69268960  0.74995830  0.56139314  1
  O  O359  1  0.69116920  0.75017856  0.81281218  1
  O  O360  1  0.30848753  0.25017542  0.18730002  1
  O  O361  1  0.30707086  0.25043190  0.43895284  1
  O  O362  1  0.30806001  0.25051527  0.68677887  1
  O  O363  1  0.30579605  0.24997851  0.93886649  1
  O  O364  1  0.30631809  0.58322761  0.18927328  1
  O  O365  1  0.31006183  0.58314330  0.43747789  1
  O  O366  1  0.30926082  0.58254620  0.68639081  1
  O  O367  1  0.30561252  0.58308174  0.93839876  1
  O  O368  1  0.30950638  0.91600010  0.18776672  1
  O  O369  1  0.30989783  0.91634864  0.43773129  1
  O  O370  1  0.30920797  0.91687034  0.68693856  1
  O  O371  1  0.30607545  0.91689356  0.93834760  1
  O  O372  1  0.80797396  0.24985859  0.18758945  1
  O  O373  1  0.80860887  0.25020746  0.43793202  1
  O  O374  1  0.81020891  0.24946152  0.68733916  1
  O  O375  1  0.80924098  0.24920214  0.93728654  1
  O  O376  1  0.80828131  0.58384983  0.18767520  1
  O  O377  1  0.80758002  0.58348058  0.43685742  1
  O  O378  1  0.80647254  0.58352404  0.68901484  1
  O  O379  1  0.80949818  0.58380646  0.93801334  1
  O  O380  1  0.80633191  0.91656106  0.18875191  1
  O  O381  1  0.80915434  0.91647550  0.43832532  1
  O  O382  1  0.81022917  0.91709360  0.68825333  1
  O  O383  1  0.80922142  0.91687540  0.93721633  1
  O  O384  1  0.23430401  0.25021164  0.04165560  1
  O  O385  1  0.23491231  0.25045050  0.28916359  1
  O  O386  1  0.23445561  0.25027833  0.54065882  1
  O  O387  1  0.23263418  0.25088929  0.78713467  1
  O  O388  1  0.23179406  0.58257409  0.03982611  1
  O  O389  1  0.23298648  0.58238605  0.29090882  1
  O  O390  1  0.23598204  0.58261493  0.53823496  1
  O  O391  1  0.23520298  0.58210672  0.78764267  1
  O  O392  1  0.23268632  0.91689922  0.03991575  1
  O  O393  1  0.23594522  0.91715213  0.28925432  1
  O  O394  1  0.23589088  0.91684475  0.53890054  1
  O  O395  1  0.23476028  0.91703556  0.78765622  1
  O  O396  1  0.73408911  0.25004382  0.03772406  1
  O  O397  1  0.73380846  0.25060506  0.28856657  1
  O  O398  1  0.73410409  0.25053344  0.53868846  1
  O  O399  1  0.73588163  0.25077744  0.78790064  1
  O  O400  1  0.73548892  0.58283717  0.03886923  1
  O  O401  1  0.73324138  0.58288572  0.28798695  1
  O  O402  1  0.73233733  0.58267660  0.53728803  1
  O  O403  1  0.73455047  0.58244243  0.79152741  1
  O  O404  1  0.73406648  0.91739663  0.03770839  1
  O  O405  1  0.73366283  0.91722072  0.29072628  1
  O  O406  1  0.73465669  0.91658001  0.53905156  1
  O  O407  1  0.73564022  0.91658811  0.78869879  1
  O  O408  1  0.26847393  0.08329954  0.21139343  1
  O  O409  1  0.26731949  0.08428220  0.46322057  1
  O  O410  1  0.26414584  0.08374840  0.71170629  1
  O  O411  1  0.26763173  0.08394795  0.95988437  1
  O  O412  1  0.26638405  0.41722437  0.21334808  1
  O  O413  1  0.26651611  0.41613377  0.46287866  1
  O  O414  1  0.26671569  0.41664379  0.70986107  1
  O  O415  1  0.26745654  0.41626431  0.96078925  1
  O  O416  1  0.26662396  0.74896134  0.21029138  1
  O  O417  1  0.26741443  0.74974210  0.46001049  1
  O  O418  1  0.26866683  0.74934655  0.71028317  1
  O  O419  1  0.26626957  0.74966205  0.95925262  1
  O  O420  1  0.76788872  0.08406810  0.21039301  1
  O  O421  1  0.76629258  0.08456419  0.46047757  1
  O  O422  1  0.76608661  0.08392586  0.71207821  1
  O  O423  1  0.76569376  0.08404830  0.95906313  1
  O  O424  1  0.76814299  0.41630421  0.21071166  1
  O  O425  1  0.76642335  0.41640120  0.46223599  1
  O  O426  1  0.76787034  0.41668611  0.71009168  1
  O  O427  1  0.76845458  0.41578584  0.96089478  1
  O  O428  1  0.76417847  0.74996364  0.21153730  1
  O  O429  1  0.76501807  0.74948577  0.45921525  1
  O  O430  1  0.76572576  0.74944088  0.71203302  1
  O  O431  1  0.76459990  0.74971528  0.96195150  1
  O  O432  1  0.01539760  0.08375696  0.16622178  1
  O  O433  1  0.01468398  0.08395695  0.41333630  1
  O  O434  1  0.01781493  0.08349631  0.66460748  1
  O  O435  1  0.01831239  0.08400782  0.91517381  1
  O  O436  1  0.01373871  0.41668746  0.16382168  1
  O  O437  1  0.01491799  0.41675667  0.41312799  1
  O  O438  1  0.01584177  0.41633674  0.66297093  1
  O  O439  1  0.01435196  0.41630744  0.91415804  1
  O  O440  1  0.01619355  0.74958950  0.16542888  1
  O  O441  1  0.01579055  0.74944627  0.41519515  1
  O  O442  1  0.01644713  0.75001047  0.66575506  1
  O  O443  1  0.01629516  0.74982868  0.91603113  1
  O  O444  1  0.51434232  0.08358521  0.16368146  1
  O  O445  1  0.51472708  0.08353119  0.41387657  1
  O  O446  1  0.51485862  0.08458139  0.66368604  1
  O  O447  1  0.51703322  0.08366800  0.91511384  1
  O  O448  1  0.51459413  0.41633532  0.16382371  1
  O  O449  1  0.51499053  0.41685691  0.41285214  1
  O  O450  1  0.51645249  0.41618973  0.66345866  1
  O  O451  1  0.51496335  0.41629560  0.91400462  1
  O  O452  1  0.51768490  0.75016711  0.16448869  1
  O  O453  1  0.51794030  0.74943576  0.41502056  1
  O  O454  1  0.51580552  0.74946312  0.66612257  1
  O  O455  1  0.51722440  0.75042189  0.91260995  1
  O  O456  1  0.48370948  0.24994371  0.08828594  1
  O  O457  1  0.48540112  0.25018527  0.33669926  1
  O  O458  1  0.48275507  0.25090719  0.58496439  1
  O  O459  1  0.48460450  0.24991842  0.83703432  1
  O  O460  1  0.48472957  0.58338207  0.08695944  1
  O  O461  1  0.48402717  0.58317818  0.33656435  1
  O  O462  1  0.48285904  0.58236932  0.58557247  1
  O  O463  1  0.48379298  0.58290109  0.83530740  1
  O  O464  1  0.48161826  0.91689797  0.08546320  1
  O  O465  1  0.48173457  0.91630955  0.33565860  1
  O  O466  1  0.48147889  0.91656849  0.58636889  1
  O  O467  1  0.48372084  0.91745613  0.83433472  1
  O  O468  1  0.98107649  0.25023339  0.08626258  1
  O  O469  1  0.98135839  0.25130196  0.33636740  1
  O  O470  1  0.98303486  0.25028940  0.58689960  1
  O  O471  1  0.98310699  0.24981666  0.83547044  1
  O  O472  1  0.98327976  0.58261232  0.08780092  1
  O  O473  1  0.98219088  0.58245187  0.33564151  1
  O  O474  1  0.98357041  0.58250540  0.58480831  1
  O  O475  1  0.98283643  0.58261831  0.83798618  1
  O  O476  1  0.98453648  0.91706542  0.08508057  1
  O  O477  1  0.98165336  0.91649296  0.33609569  1
  O  O478  1  0.98224572  0.91744525  0.58520319  1
  O  O479  1  0.98386998  0.91707839  0.83814773  1
  O  O480  1  0.08471446  0.31530726  0.07715576  1
  O  O481  1  0.08504350  0.31669281  0.32748390  1
  O  O482  1  0.08644575  0.31553911  0.57758880  1
  O  O483  1  0.08691527  0.31469470  0.82640251  1
  O  O484  1  0.08717109  0.64749672  0.07735828  1
  O  O485  1  0.08676868  0.64636212  0.32669343  1
  O  O486  1  0.08764190  0.64696662  0.57759289  1
  O  O487  1  0.08650733  0.64766398  0.82781346  1
  O  O488  1  0.08849124  0.98214603  0.07748075  1
  O  O489  1  0.08536425  0.98189406  0.32713938  1
  O  O490  1  0.08607297  0.98267502  0.57728776  1
  O  O491  1  0.08730698  0.98260150  0.82847579  1
  O  O492  1  0.58728883  0.31521951  0.07706272  1
  O  O493  1  0.58903053  0.31509501  0.32674232  1
  O  O494  1  0.58662422  0.31654056  0.57667463  1
  O  O495  1  0.58827800  0.31424616  0.82787024  1
  O  O496  1  0.58849155  0.64852471  0.07915811  1
  O  O497  1  0.58794682  0.64853795  0.32800697  1
  O  O498  1  0.58727748  0.64633837  0.57701397  1
  O  O499  1  0.58732517  0.64860049  0.82812389  1
  O  O500  1  0.58559820  0.98153173  0.07733373  1
  O  O501  1  0.58525173  0.98135765  0.32681251  1
  O  O502  1  0.58496760  0.98202889  0.57698652  1
  O  O503  1  0.58731271  0.98288891  0.82782868  1
  O  O504  1  0.41045848  0.01875253  0.17167397  1
  O  O505  1  0.41104826  0.01786974  0.42162888  1
  O  O506  1  0.41121336  0.01957212  0.67139791  1
  O  O507  1  0.41280808  0.01899987  0.92325877  1
  O  O508  1  0.41107121  0.35054479  0.17246081  1
  O  O509  1  0.41097971  0.35285493  0.42269640  1
  O  O510  1  0.41264838  0.35105360  0.67258941  1
  O  O511  1  0.41109405  0.35152683  0.92304397  1
  O  O512  1  0.41407253  0.68525961  0.17286836  1
  O  O513  1  0.41434906  0.68403092  0.42227882  1
  O  O514  1  0.41217032  0.68388950  0.67256751  1
  O  O515  1  0.41403730  0.68478946  0.92310597  1
  O  O516  1  0.91104722  0.01944029  0.17298784  1
  O  O517  1  0.91116283  0.01866546  0.42150208  1
  O  O518  1  0.91396934  0.01853904  0.67249274  1
  O  O519  1  0.91454696  0.01859517  0.92274548  1
  O  O520  1  0.90996781  0.35160919  0.17216836  1
  O  O521  1  0.91087189  0.35219383  0.42241355  1
  O  O522  1  0.91212450  0.35109673  0.67194606  1
  O  O523  1  0.91072860  0.35098001  0.92150662  1
  O  O524  1  0.91259823  0.68395828  0.17255143  1
  O  O525  1  0.91234520  0.68381879  0.42215030  1
  O  O526  1  0.91242588  0.68560129  0.67257019  1
  O  O527  1  0.91251533  0.68480512  0.92271521  1
  O  O528  1  0.16460130  0.01859207  0.20287377  1
  O  O529  1  0.16424660  0.01843008  0.45222966  1
  O  O530  1  0.16017761  0.01969014  0.70192032  1
  O  O531  1  0.16403923  0.01778043  0.95227725  1
  O  O532  1  0.16287995  0.35247582  0.20284956  1
  O  O533  1  0.16263491  0.35131980  0.45186903  1
  O  O534  1  0.16285762  0.35085594  0.70123237  1
  O  O535  1  0.16342057  0.35199856  0.95276202  1
  O  O536  1  0.16295507  0.68335285  0.20386331  1
  O  O537  1  0.16337218  0.68509362  0.45249972  1
  O  O538  1  0.16480245  0.68450949  0.70172440  1
  O  O539  1  0.16250323  0.68446370  0.95283810  1
  O  O540  1  0.66402446  0.01925485  0.20205091  1
  O  O541  1  0.66269241  0.01945610  0.45253006  1
  O  O542  1  0.66272331  0.01852310  0.70237789  1
  O  O543  1  0.66134223  0.02000053  0.95149020  1
  O  O544  1  0.66426878  0.35151655  0.20248577  1
  O  O545  1  0.66313046  0.35090130  0.45298568  1
  O  O546  1  0.66384145  0.35173054  0.70106188  1
  O  O547  1  0.66481782  0.35030662  0.95234357  1
  O  O548  1  0.66082995  0.68401170  0.20322101  1
  O  O549  1  0.66112404  0.68410840  0.45256653  1
  O  O550  1  0.66213579  0.68457092  0.70327108  1
  O  O551  1  0.66070684  0.68515600  0.95271361  1
  O  O552  1  0.33843178  0.31517301  0.04761481  1
  O  O553  1  0.33849578  0.31536594  0.29691130  1
  O  O554  1  0.33843522  0.31544937  0.54799952  1
  O  O555  1  0.33622574  0.31635912  0.79646914  1
  O  O556  1  0.33565737  0.64745953  0.04801168  1
  O  O557  1  0.33721854  0.64725879  0.29879424  1
  O  O558  1  0.34014029  0.64669065  0.54758081  1
  O  O559  1  0.33843900  0.64764202  0.79641106  1
  O  O560  1  0.33651722  0.98269667  0.04731985  1
  O  O561  1  0.33968861  0.98238323  0.29687448  1
  O  O562  1  0.33905755  0.98309023  0.54712299  1
  O  O563  1  0.33847574  0.98115283  0.79688324  1
  O  O564  1  0.83782742  0.31524199  0.04709255  1
  O  O565  1  0.83777512  0.31513014  0.29737746  1
  O  O566  1  0.83789101  0.31611950  0.54732194  1
  O  O567  1  0.83947419  0.31618945  0.79647057  1
  O  O568  1  0.83916327  0.64739783  0.04852571  1
  O  O569  1  0.83694071  0.64767266  0.29822561  1
  O  O570  1  0.83580884  0.64761050  0.54729593  1
  O  O571  1  0.83859706  0.64704737  0.79870470  1
  O  O572  1  0.83782803  0.98194300  0.04682793  1
  O  O573  1  0.83746217  0.98282764  0.29749837  1
  O  O574  1  0.83844573  0.98152207  0.54823055  1
  O  O575  1  0.83928171  0.98188787  0.79835963  1
  O  O576  1  0.41088569  0.14898510  0.17233241  1
  O  O577  1  0.41084862  0.14790563  0.42279803  1
  O  O578  1  0.41154505  0.14994003  0.67169588  1
  O  O579  1  0.41314294  0.14875411  0.92379043  1
  O  O580  1  0.41054511  0.48064507  0.17307667  1
  O  O581  1  0.41162451  0.48278990  0.42194825  1
  O  O582  1  0.41252167  0.48109516  0.67207006  1
  O  O583  1  0.41116154  0.48133109  0.92310172  1
  O  O584  1  0.41380999  0.81539591  0.17191915  1
  O  O585  1  0.41389129  0.81410109  0.42208290  1
  O  O586  1  0.41164404  0.81416031  0.67275222  1
  O  O587  1  0.41333851  0.81483577  0.92223820  1
  O  O588  1  0.91154117  0.14941843  0.17275009  1
  O  O589  1  0.91131633  0.14910909  0.42168539  1
  O  O590  1  0.91411377  0.14863942  0.67271235  1
  O  O591  1  0.91422965  0.14868157  0.92220584  1
  O  O592  1  0.91000342  0.48172021  0.17210314  1
  O  O593  1  0.91125331  0.48230246  0.42236198  1
  O  O594  1  0.91191421  0.48099857  0.67261471  1
  O  O595  1  0.91049010  0.48114282  0.92217034  1
  O  O596  1  0.91215606  0.81411104  0.17262258  1
  O  O597  1  0.91180992  0.81422889  0.42186185  1
  O  O598  1  0.91301177  0.81588314  0.67210315  1
  O  O599  1  0.91261305  0.81518307  0.92264941  1
  O  O600  1  0.08511578  0.18532688  0.07784285  1
  O  O601  1  0.08536491  0.18655092  0.32725432  1
  O  O602  1  0.08667663  0.18528768  0.57793844  1
  O  O603  1  0.08735111  0.18473236  0.82759699  1
  O  O604  1  0.08684544  0.51754463  0.07707629  1
  O  O605  1  0.08568971  0.51636845  0.32683941  1
  O  O606  1  0.08704586  0.51674665  0.57765068  1
  O  O607  1  0.08640582  0.51764739  0.82777669  1
  O  O608  1  0.08855371  0.85214424  0.07720566  1
  O  O609  1  0.08573680  0.85176412  0.32749467  1
  O  O610  1  0.08610261  0.85242616  0.57694384  1
  O  O611  1  0.08740950  0.85246479  0.82765483  1
  O  O612  1  0.58769085  0.18530939  0.07758735  1
  O  O613  1  0.58898718  0.18508201  0.32698282  1
  O  O614  1  0.58708722  0.18666163  0.57646593  1
  O  O615  1  0.58783491  0.18406183  0.82869973  1
  O  O616  1  0.58808487  0.51827121  0.07762531  1
  O  O617  1  0.58783493  0.51854448  0.32651314  1
  O  O618  1  0.58641909  0.51635049  0.57674186  1
  O  O619  1  0.58748152  0.51829091  0.82741040  1
  O  O620  1  0.58548121  0.85149766  0.07775625  1
  O  O621  1  0.58563180  0.85121892  0.32789955  1
  O  O622  1  0.58546708  0.85194195  0.57771035  1
  O  O623  1  0.58757075  0.85244449  0.82773324  1
  O  O624  1  0.33844075  0.18508901  0.04751343  1
  O  O625  1  0.33841315  0.18523587  0.29699101  1
  O  O626  1  0.33850744  0.18546170  0.54818323  1
  O  O627  1  0.33622150  0.18632348  0.79723478  1
  O  O628  1  0.33572816  0.51741339  0.04757833  1
  O  O629  1  0.33725631  0.51743592  0.29829150  1
  O  O630  1  0.33933266  0.51662883  0.54690029  1
  O  O631  1  0.33871814  0.51721130  0.79585123  1
  O  O632  1  0.33696177  0.85261689  0.04799037  1
  O  O633  1  0.33967247  0.85219526  0.29784094  1
  O  O634  1  0.34014791  0.85285634  0.54762910  1
  O  O635  1  0.33785141  0.85077204  0.79656220  1
  O  O636  1  0.83781642  0.18536549  0.04776045  1
  O  O637  1  0.83731002  0.18502279  0.29766815  1
  O  O638  1  0.83815207  0.18620100  0.54827280  1
  O  O639  1  0.83964121  0.18618369  0.79804247  1
  O  O640  1  0.83907216  0.51731427  0.04713295  1
  O  O641  1  0.83702708  0.51769670  0.29735690  1
  O  O642  1  0.83610894  0.51763392  0.54651763  1
  O  O643  1  0.83843283  0.51701619  0.79725952  1
  O  O644  1  0.83717237  0.85182765  0.04747349  1
  O  O645  1  0.83770956  0.85268985  0.29834990  1
  O  O646  1  0.83836171  0.85146656  0.54812181  1
  O  O647  1  0.83950583  0.85192273  0.79818729  1
  O  O648  1  0.16486074  0.14868028  0.20240862  1
  O  O649  1  0.16342092  0.14854377  0.45251820  1
  O  O650  1  0.16079484  0.14984968  0.70261830  1
  O  O651  1  0.16306837  0.14785942  0.95230546  1
  O  O652  1  0.16281946  0.48257307  0.20386580  1
  O  O653  1  0.16269799  0.48119309  0.45185345  1
  O  O654  1  0.16240158  0.48073832  0.70102634  1
  O  O655  1  0.16391690  0.48209595  0.95256884  1
  O  O656  1  0.16285010  0.81374326  0.20314332  1
  O  O657  1  0.16388097  0.81527406  0.45219551  1
  O  O658  1  0.16503779  0.81476857  0.70147021  1
  O  O659  1  0.16268860  0.81497969  0.95283361  1
  O  O660  1  0.66412941  0.14933483  0.20267084  1
  O  O661  1  0.66257588  0.14977158  0.45338175  1
  O  O662  1  0.66236478  0.14863670  0.70274521  1
  O  O663  1  0.66211682  0.15005606  0.95226860  1
  O  O664  1  0.66443377  0.48156226  0.20228180  1
  O  O665  1  0.66265573  0.48099049  0.45272015  1
  O  O666  1  0.66373181  0.48153627  0.70143394  1
  O  O667  1  0.66472123  0.48036321  0.95203089  1
  O  O668  1  0.66019954  0.81426714  0.20227098  1
  O  O669  1  0.66097282  0.81423305  0.45204258  1
  O  O670  1  0.66241158  0.81474241  0.70259926  1
  O  O671  1  0.66112013  0.81520703  0.95211624  1
