# generated using pymatgen
data_Na2MnFe(PO4)2
_symmetry_space_group_name_H-M   'P 1'
_cell_length_a   21.07857880
_cell_length_b   18.93079195
_cell_length_c   20.03875291
_cell_angle_alpha   89.99966498
_cell_angle_beta   90.00208366
_cell_angle_gamma   89.99794091
_symmetry_Int_Tables_number   1
_chemical_formula_structural   Na2MnFe(PO4)2
_chemical_formula_sum   'Na96 Mn48 Fe48 P96 O384'
_cell_volume   7996.14752105
_cell_formula_units_Z   48
loop_
 _symmetry_equiv_pos_site_id
 _symmetry_equiv_pos_as_xyz
  1  'x, y, z'
loop_
 _atom_site_type_symbol
 _atom_site_label
 _atom_site_symmetry_multiplicity
 _atom_site_fract_x
 _atom_site_fract_y
 _atom_site_fract_z
 _atom_site_occupancy
  Na  Na0  1  0.00004750  -0.00041971  0.00002617  1
  Na  Na1  1  0.00052637  0.00004997  0.24875252  1
  Na  Na2  1  0.00093308  0.00062315  0.50109246  1
  Na  Na3  1  0.00074322  0.00084064  0.75041753  1
  Na  Na4  1  -0.00053838  0.33336656  0.00041264  1
  Na  Na5  1  0.00019030  0.33347222  0.25096009  1
  Na  Na6  1  -0.00246169  0.33271460  0.49963551  1
  Na  Na7  1  -0.00308988  0.33218981  0.74930618  1
  Na  Na8  1  0.00031631  0.66638923  0.00074313  1
  Na  Na9  1  0.00046844  0.66665687  0.24933659  1
  Na  Na10  1  0.00169649  0.66780567  0.49876734  1
  Na  Na11  1  0.00049573  0.66678428  0.75130015  1
  Na  Na12  1  0.49886449  -0.00008355  -0.00025132  1
  Na  Na13  1  0.49697233  -0.00050053  0.24901631  1
  Na  Na14  1  0.49871602  0.00044327  0.49942503  1
  Na  Na15  1  0.49957851  0.00003650  0.75126191  1
  Na  Na16  1  0.50001749  0.33332872  0.00084587  1
  Na  Na17  1  0.49693861  0.33277791  0.24975245  1
  Na  Na18  1  0.49877533  0.33266822  0.49982851  1
  Na  Na19  1  0.50221167  0.33396766  0.74904767  1
  Na  Na20  1  0.50054128  0.66658230  0.00118535  1
  Na  Na21  1  0.50111577  0.66740694  0.25081294  1
  Na  Na22  1  0.50113638  0.66685188  0.49816174  1
  Na  Na23  1  0.50098734  0.66630045  0.75032168  1
  Na  Na24  1  0.25066736  0.00053899  0.12626734  1
  Na  Na25  1  0.24949853  0.00017096  0.37545691  1
  Na  Na26  1  0.24822475  0.00013397  0.62439233  1
  Na  Na27  1  0.24863681  0.00028614  0.87431992  1
  Na  Na28  1  0.24928630  0.33316947  0.12465006  1
  Na  Na29  1  0.25131186  0.33386848  0.37527607  1
  Na  Na30  1  0.25075506  0.33294329  0.62511514  1
  Na  Na31  1  0.25138434  0.33404238  0.87434893  1
  Na  Na32  1  0.24765948  0.66594598  0.12464321  1
  Na  Na33  1  0.24925073  0.66638253  0.37580511  1
  Na  Na34  1  0.25035514  0.66656674  0.62532768  1
  Na  Na35  1  0.24972107  0.66712791  0.87451204  1
  Na  Na36  1  0.75181921  -0.00002907  0.12622636  1
  Na  Na37  1  0.75225205  0.00053938  0.37485584  1
  Na  Na38  1  0.75075502  0.00069264  0.62377008  1
  Na  Na39  1  0.75090523  0.00048930  0.87481916  1
  Na  Na40  1  0.75090828  0.33296498  0.12435091  1
  Na  Na41  1  0.75361574  0.33452597  0.37631856  1
  Na  Na42  1  0.75109205  0.33308980  0.62458960  1
  Na  Na43  1  0.74963950  0.33264373  0.87428558  1
  Na  Na44  1  0.75070680  0.66702484  0.12521394  1
  Na  Na45  1  0.74870116  0.66626995  0.37466640  1
  Na  Na46  1  0.74744784  0.66584312  0.62458909  1
  Na  Na47  1  0.75148055  0.66781379  0.87603111  1
  Na  Na48  1  -0.00093768  0.16714517  0.00092224  1
  Na  Na49  1  0.00097238  0.16661305  0.24946762  1
  Na  Na50  1  0.00024591  0.16692523  0.49974300  1
  Na  Na51  1  -0.00060045  0.16620164  0.74960434  1
  Na  Na52  1  -0.00000165  0.50004769  -0.00024190  1
  Na  Na53  1  0.00060391  0.50000287  0.25038660  1
  Na  Na54  1  -0.00100817  0.49974474  0.49958606  1
  Na  Na55  1  -0.00163723  0.49972932  0.75032415  1
  Na  Na56  1  0.00082686  0.83351622  0.00051561  1
  Na  Na57  1  -0.00038715  0.83347966  0.24925124  1
  Na  Na58  1  -0.00063369  0.83431359  0.49994680  1
  Na  Na59  1  0.00184577  0.83318888  0.75144799  1
  Na  Na60  1  0.49833100  0.16642003  -0.00014058  1
  Na  Na61  1  0.49760982  0.16627795  0.24910073  1
  Na  Na62  1  0.49849693  0.16689591  0.49981490  1
  Na  Na63  1  0.50011278  0.16647254  0.75059318  1
  Na  Na64  1  0.50072691  0.49968862  0.00208731  1
  Na  Na65  1  0.49948426  0.49982867  0.25016180  1
  Na  Na66  1  0.49951269  0.49966881  0.49837579  1
  Na  Na67  1  0.50104378  0.49908759  0.74932122  1
  Na  Na68  1  0.50061658  0.83333914  -0.00013644  1
  Na  Na69  1  0.49737428  0.83455478  0.25008152  1
  Na  Na70  1  0.50059846  0.83313562  0.49904176  1
  Na  Na71  1  0.50210761  0.83287974  0.75075161  1
  Na  Na72  1  0.25046468  0.16574261  0.12543788  1
  Na  Na73  1  0.24854373  0.16730809  0.37612926  1
  Na  Na74  1  0.24975450  0.16659010  0.62499095  1
  Na  Na75  1  0.25066720  0.16617765  0.87384197  1
  Na  Na76  1  0.24971167  0.49940863  0.12489693  1
  Na  Na77  1  0.25048905  0.49961488  0.37531053  1
  Na  Na78  1  0.25220399  0.49924699  0.62560532  1
  Na  Na79  1  0.24921836  0.50080481  0.87411901  1
  Na  Na80  1  0.24865031  0.83397962  0.12494014  1
  Na  Na81  1  0.25130487  0.83253151  0.37529622  1
  Na  Na82  1  0.24771051  0.83454362  0.62402885  1
  Na  Na83  1  0.24755697  0.83429638  0.87567974  1
  Na  Na84  1  0.75134591  0.16631494  0.12496710  1
  Na  Na85  1  0.75219171  0.16621381  0.37569820  1
  Na  Na86  1  0.75101623  0.16669721  0.62370776  1
  Na  Na87  1  0.75090273  0.16631765  0.87451634  1
  Na  Na88  1  0.75119057  0.49980669  0.12506730  1
  Na  Na89  1  0.74990558  0.50003126  0.37469732  1
  Na  Na90  1  0.74946561  0.49875283  0.62553742  1
  Na  Na91  1  0.74946654  0.49965732  0.87515013  1
  Na  Na92  1  0.75183648  0.83306592  0.12566129  1
  Na  Na93  1  0.75248681  0.83260727  0.37544278  1
  Na  Na94  1  0.74914376  0.83412871  0.62356398  1
  Na  Na95  1  0.75056057  0.83375564  0.87556501  1
  Mn  Mn96  1  0.14165034  0.91701545  0.49701790  1
  Mn  Mn97  1  0.60721674  0.08351862  0.37279662  1
  Mn  Mn98  1  0.89191863  0.58359581  0.37748180  1
  Mn  Mn99  1  0.60744583  0.41551433  0.37233163  1
  Mn  Mn100  1  0.64264975  0.24999267  0.49728490  1
  Mn  Mn101  1  0.85793187  0.41690555  0.00273447  1
  Mn  Mn102  1  0.35696121  0.08390736  0.50284578  1
  Mn  Mn103  1  0.39275590  0.25054414  0.87685884  1
  Mn  Mn104  1  0.10766888  0.41629505  0.37308347  1
  Mn  Mn105  1  0.89145372  0.58375084  0.62732113  1
  Mn  Mn106  1  0.85782189  0.75015504  0.75172548  1
  Mn  Mn107  1  0.10752909  0.41544269  0.87257916  1
  Mn  Mn108  1  0.64248133  0.91692703  0.49717990  1
  Mn  Mn109  1  0.39243053  0.58286337  0.87768039  1
  Mn  Mn110  1  0.85785705  0.74918925  0.50271919  1
  Mn  Mn111  1  0.39249477  0.91655812  0.62782512  1
  Mn  Mn112  1  0.10827119  0.08325193  0.12233447  1
  Mn  Mn113  1  0.89268447  0.91711653  0.87756874  1
  Mn  Mn114  1  0.64245973  0.24885389  0.99792606  1
  Mn  Mn115  1  0.39187820  0.58326796  0.37667975  1
  Mn  Mn116  1  0.39085867  0.24957897  0.12738715  1
  Mn  Mn117  1  0.89203727  0.58315497  0.87749497  1
  Mn  Mn118  1  0.85882691  0.08348547  0.25296510  1
  Mn  Mn119  1  0.60773859  0.41648740  0.12364646  1
  Mn  Mn120  1  0.89299531  0.91659585  0.62770517  1
  Mn  Mn121  1  0.14178827  0.24997081  0.74742165  1
  Mn  Mn122  1  0.35811183  0.75105855  0.75153991  1
  Mn  Mn123  1  0.60892456  0.74923886  0.87339049  1
  Mn  Mn124  1  0.10691142  0.41658539  0.62269253  1
  Mn  Mn125  1  0.14254871  0.58222373  0.49859075  1
  Mn  Mn126  1  0.35721799  0.75023143  0.00291117  1
  Mn  Mn127  1  0.64239911  0.91648523  0.24760660  1
  Mn  Mn128  1  0.60705244  0.08237656  0.12297200  1
  Mn  Mn129  1  0.64235665  0.91787099  0.74744350  1
  Mn  Mn130  1  0.14208306  0.58368793  0.74682485  1
  Mn  Mn131  1  0.35915850  0.41640003  0.75230055  1
  Mn  Mn132  1  0.39163359  0.58456411  0.12768528  1
  Mn  Mn133  1  0.64297921  0.58369716  0.99835768  1
  Mn  Mn134  1  0.39161141  0.91610817  0.87739617  1
  Mn  Mn135  1  0.64241457  0.25038896  0.24855312  1
  Mn  Mn136  1  0.14222890  0.24990262  0.99689425  1
  Mn  Mn137  1  0.60755407  0.75104738  0.37182798  1
  Mn  Mn138  1  0.64192814  0.58292798  0.74740435  1
  Mn  Mn139  1  0.35806218  0.74928866  0.50314749  1
  Mn  Mn140  1  0.60819827  0.08394546  0.87297804  1
  Mn  Mn141  1  0.89268199  0.25081438  0.12790300  1
  Mn  Mn142  1  0.10787150  0.75081247  0.37186940  1
  Mn  Mn143  1  0.10780218  0.75036937  0.87290548  1
  Fe  Fe144  1  0.60772734  0.75012066  0.62331149  1
  Fe  Fe145  1  0.89360724  0.24905812  0.37666129  1
  Fe  Fe146  1  0.35617064  0.41682939  0.25133623  1
  Fe  Fe147  1  0.10689152  0.08338356  0.37353049  1
  Fe  Fe148  1  0.64336035  0.91691025  0.99966543  1
  Fe  Fe149  1  0.39092211  0.24943242  0.37695002  1
  Fe  Fe150  1  0.89362404  0.91745846  0.37614109  1
  Fe  Fe151  1  0.14236612  0.91706124  0.74833999  1
  Fe  Fe152  1  0.35667789  0.08331584  0.00089220  1
  Fe  Fe153  1  0.35763361  0.41646054  0.50190594  1
  Fe  Fe154  1  0.60760513  0.75093272  0.12413031  1
  Fe  Fe155  1  0.89199636  0.24948647  0.87624782  1
  Fe  Fe156  1  0.35596486  0.08328877  0.25225981  1
  Fe  Fe157  1  0.10719242  0.08420874  0.87334696  1
  Fe  Fe158  1  0.60742915  0.08341643  0.62330033  1
  Fe  Fe159  1  0.64195104  0.58282389  0.49847955  1
  Fe  Fe160  1  0.89333339  0.91596134  0.12683962  1
  Fe  Fe161  1  0.14293500  0.91645435  0.24829074  1
  Fe  Fe162  1  0.10677923  0.08398068  0.62342129  1
  Fe  Fe163  1  0.85780523  0.74931563  0.25131842  1
  Fe  Fe164  1  0.85768937  0.08368751  0.75158799  1
  Fe  Fe165  1  0.89265806  0.24975620  0.62670911  1
  Fe  Fe166  1  0.10727508  0.74950593  0.12364697  1
  Fe  Fe167  1  0.10785920  0.41739593  0.12343498  1
  Fe  Fe168  1  0.60745070  0.41630619  0.62263347  1
  Fe  Fe169  1  0.35681079  0.08281954  0.75108783  1
  Fe  Fe170  1  0.14237265  0.58321725  0.24828713  1
  Fe  Fe171  1  0.14283294  0.25055553  0.24909901  1
  Fe  Fe172  1  0.64343760  0.58327266  0.24824731  1
  Fe  Fe173  1  0.85851762  0.08362354  0.50199060  1
  Fe  Fe174  1  0.89357051  0.58355097  0.12712954  1
  Fe  Fe175  1  0.35740172  0.41671165  0.00155573  1
  Fe  Fe176  1  0.39407160  0.58328252  0.62612854  1
  Fe  Fe177  1  0.39144836  0.91705201  0.37635898  1
  Fe  Fe178  1  0.14244806  0.58303656  0.99848824  1
  Fe  Fe179  1  0.85798076  0.75085887  0.00279013  1
  Fe  Fe180  1  0.10762731  0.74979071  0.62342215  1
  Fe  Fe181  1  0.85610707  0.41619396  0.75176698  1
  Fe  Fe182  1  0.85795779  0.08241792  0.00139179  1
  Fe  Fe183  1  0.85704310  0.41695370  0.50225414  1
  Fe  Fe184  1  0.60778858  0.41636790  0.87380662  1
  Fe  Fe185  1  0.14261675  0.91694700  0.99881165  1
  Fe  Fe186  1  0.85832308  0.41732413  0.25154371  1
  Fe  Fe187  1  0.64338379  0.24928408  0.74769876  1
  Fe  Fe188  1  0.35644799  0.74974079  0.25071971  1
  Fe  Fe189  1  0.39161719  0.91591389  0.12641894  1
  Fe  Fe190  1  0.39318597  0.24978869  0.62679646  1
  Fe  Fe191  1  0.14250228  0.25084340  0.49866616  1
  P  P192  1  0.05524943  0.25127649  0.11144966  1
  P  P193  1  0.05405433  0.24937804  0.36096871  1
  P  P194  1  0.05237785  0.24972867  0.60938852  1
  P  P195  1  0.05162811  0.24906647  0.85979248  1
  P  P196  1  0.05454408  0.58312520  0.11103364  1
  P  P197  1  0.05400367  0.58316227  0.35928143  1
  P  P198  1  0.05245126  0.58376803  0.60970790  1
  P  P199  1  0.05454315  0.58287894  0.86105037  1
  P  P200  1  0.05450053  0.91570665  0.11084084  1
  P  P201  1  0.05289661  0.91786181  0.35903734  1
  P  P202  1  0.05503923  0.91679182  0.61160855  1
  P  P203  1  0.05553606  0.91823824  0.86109697  1
  P  P204  1  0.55275937  0.24947043  0.11016830  1
  P  P205  1  0.55087562  0.24963599  0.35962214  1
  P  P206  1  0.55393607  0.24924116  0.61095520  1
  P  P207  1  0.55455766  0.25072084  0.85927303  1
  P  P208  1  0.55490349  0.58448354  0.11206873  1
  P  P209  1  0.55525154  0.58276711  0.35990426  1
  P  P210  1  0.55323037  0.58288523  0.60890285  1
  P  P211  1  0.55374774  0.58204066  0.86048023  1
  P  P212  1  0.55224387  0.91585958  0.10966966  1
  P  P213  1  0.55146208  0.91755180  0.35932552  1
  P  P214  1  0.55356387  0.91747512  0.60980038  1
  P  P215  1  0.55488374  0.91684830  0.86156871  1
  P  P216  1  0.44340796  0.08195444  0.13909682  1
  P  P217  1  0.44396479  0.08340271  0.38862566  1
  P  P218  1  0.44715306  0.08401990  0.64069218  1
  P  P219  1  0.44481177  0.08324521  0.88947471  1
  P  P220  1  0.44418045  0.41697836  0.13998401  1
  P  P221  1  0.44386828  0.41571340  0.38900083  1
  P  P222  1  0.44704965  0.41647551  0.63810326  1
  P  P223  1  0.44805489  0.41652337  0.89110944  1
  P  P224  1  0.44703470  0.75089015  0.14076837  1
  P  P225  1  0.44446371  0.75070121  0.38832339  1
  P  P226  1  0.44880737  0.74921451  0.63982570  1
  P  P227  1  0.44700982  0.74973197  0.89064894  1
  P  P228  1  0.94585948  0.08245499  0.13867765  1
  P  P229  1  0.94770410  0.08314831  0.39030564  1
  P  P230  1  0.94625845  0.08414079  0.63946043  1
  P  P231  1  0.94616007  0.08417125  0.88955844  1
  P  P232  1  0.94784111  0.41790468  0.14076398  1
  P  P233  1  0.94468496  0.41606576  0.38949062  1
  P  P234  1  0.94412372  0.41602043  0.63942386  1
  P  P235  1  0.94499987  0.41538628  0.88886769  1
  P  P236  1  0.94631394  0.74983302  0.13919014  1
  P  P237  1  0.94557040  0.75098898  0.38852080  1
  P  P238  1  0.94854998  0.75006442  0.64048311  1
  P  P239  1  0.94608268  0.75031489  0.89131211  1
  P  P240  1  0.19575322  0.08344515  0.23701810  1
  P  P241  1  0.19395060  0.08482391  0.48581436  1
  P  P242  1  0.19549966  0.08299712  0.73526198  1
  P  P243  1  0.19698883  0.08271508  0.98440239  1
  P  P244  1  0.19676913  0.41650908  0.23499061  1
  P  P245  1  0.19780809  0.41566499  0.48549532  1
  P  P246  1  0.19700408  0.41635301  0.73451753  1
  P  P247  1  0.19670658  0.41743158  0.98572164  1
  P  P248  1  0.19679823  0.75014191  0.23465790  1
  P  P249  1  0.19548779  0.74965601  0.48585434  1
  P  P250  1  0.19609601  0.75121510  0.73427640  1
  P  P251  1  0.19486452  0.74983790  0.98666926  1
  P  P252  1  0.69713010  0.08359634  0.23517949  1
  P  P253  1  0.69725287  0.08360917  0.48558598  1
  P  P254  1  0.69775864  0.08446008  0.73398279  1
  P  P255  1  0.69818167  0.08189809  0.98552937  1
  P  P256  1  0.69850916  0.41681299  0.23526654  1
  P  P257  1  0.69622604  0.41687868  0.48598952  1
  P  P258  1  0.69555452  0.41511364  0.73547883  1
  P  P259  1  0.69632278  0.41629663  0.98462256  1
  P  P260  1  0.69758416  0.74971969  0.23463735  1
  P  P261  1  0.69499983  0.74927058  0.48564703  1
  P  P262  1  0.69641429  0.75041389  0.73410691  1
  P  P263  1  0.69732230  0.75148137  0.98720150  1
  P  P264  1  0.30315036  0.24988121  0.01439544  1
  P  P265  1  0.30210503  0.24992000  0.26547759  1
  P  P266  1  0.30376514  0.25068862  0.51499713  1
  P  P267  1  0.30481403  0.24896604  0.76348386  1
  P  P268  1  0.30201114  0.58279489  0.01495081  1
  P  P269  1  0.30150355  0.58375458  0.26465416  1
  P  P270  1  0.30440577  0.58222767  0.51590029  1
  P  P271  1  0.30510285  0.58378651  0.76378528  1
  P  P272  1  0.30208729  0.91764821  0.01545169  1
  P  P273  1  0.30332025  0.91624969  0.26413167  1
  P  P274  1  0.30404474  0.91695541  0.51425491  1
  P  P275  1  0.30186631  0.91746513  0.76468582  1
  P  P276  1  0.80503074  0.24877758  0.01377741  1
  P  P277  1  0.80457113  0.25102101  0.26607187  1
  P  P278  1  0.80606514  0.24980752  0.51410068  1
  P  P279  1  0.80427245  0.24961001  0.76362250  1
  P  P280  1  0.80469702  0.58428446  0.01616788  1
  P  P281  1  0.80413136  0.58358547  0.26359601  1
  P  P282  1  0.80158403  0.58253807  0.51508752  1
  P  P283  1  0.80282866  0.58257107  0.76511098  1
  P  P284  1  0.80376705  0.91700819  0.01588029  1
  P  P285  1  0.80574722  0.91545492  0.26465713  1
  P  P286  1  0.80558067  0.91760028  0.51353625  1
  P  P287  1  0.80372152  0.91772706  0.76475185  1
  O  O288  1  0.05959216  0.25055958  0.18823019  1
  O  O289  1  0.05835077  0.25078132  0.43763041  1
  O  O290  1  0.05597839  0.25029963  0.68612186  1
  O  O291  1  0.05559437  0.24991460  0.93653795  1
  O  O292  1  0.05917124  0.58309322  0.18778042  1
  O  O293  1  0.05739671  0.58288787  0.43603946  1
  O  O294  1  0.05526601  0.58284651  0.68655107  1
  O  O295  1  0.05879740  0.58275618  0.93786690  1
  O  O296  1  0.05941151  0.91656229  0.18753448  1
  O  O297  1  0.05614613  0.91691839  0.43584052  1
  O  O298  1  0.05837190  0.91695780  0.68842786  1
  O  O299  1  0.05937721  0.91742106  0.93791252  1
  O  O300  1  0.55608703  0.24955212  0.18694255  1
  O  O301  1  0.55565593  0.24983302  0.43633487  1
  O  O302  1  0.55885657  0.24933247  0.68760056  1
  O  O303  1  0.55715548  0.24938988  0.93611117  1
  O  O304  1  0.55940842  0.58356009  0.18883609  1
  O  O305  1  0.55926466  0.58250033  0.43669312  1
  O  O306  1  0.55644150  0.58259688  0.68571062  1
  O  O307  1  0.55686458  0.58294912  0.93729357  1
  O  O308  1  0.55602148  0.91682263  0.18638687  1
  O  O309  1  0.55616116  0.91748656  0.43599214  1
  O  O310  1  0.55631653  0.91757181  0.68664767  1
  O  O311  1  0.55944824  0.91727481  0.93827809  1
  O  O312  1  0.43955275  0.08297661  0.06229651  1
  O  O313  1  0.43968605  0.08346907  0.31181506  1
  O  O314  1  0.44307511  0.08364884  0.56393239  1
  O  O315  1  0.44044964  0.08289010  0.81275812  1
  O  O316  1  0.44001541  0.41702630  0.06319444  1
  O  O317  1  0.43920512  0.41669101  0.31219819  1
  O  O318  1  0.44237437  0.41618643  0.56143366  1
  O  O319  1  0.44452065  0.41652574  0.81429037  1
  O  O320  1  0.44332280  0.74976469  0.06403653  1
  O  O321  1  0.43980980  0.74985350  0.31160085  1
  O  O322  1  0.44498113  0.74993383  0.56307962  1
  O  O323  1  0.44365268  0.75012380  0.81386547  1
  O  O324  1  0.94186899  0.08269727  0.06193450  1
  O  O325  1  0.94464559  0.08339348  0.31351090  1
  O  O326  1  0.94202913  0.08349150  0.56274721  1
  O  O327  1  0.94164001  0.08340438  0.81281215  1
  O  O328  1  0.94398190  0.41715246  0.06402407  1
  O  O329  1  0.94120933  0.41726265  0.31268152  1
  O  O330  1  0.94048854  0.41718835  0.56255976  1
  O  O331  1  0.94051701  0.41616476  0.81211508  1
  O  O332  1  0.94202104  0.75009258  0.06247717  1
  O  O333  1  0.94167013  0.74954026  0.31175249  1
  O  O334  1  0.94442152  0.75005431  0.56371666  1
  O  O335  1  0.94283642  0.75041301  0.81450709  1
  O  O336  1  0.19370319  0.08344423  0.06120741  1
  O  O337  1  0.19123291  0.08326943  0.31369598  1
  O  O338  1  0.18988377  0.08408730  0.56259088  1
  O  O339  1  0.19114422  0.08430430  0.81197214  1
  O  O340  1  0.19194831  0.41680321  0.06239837  1
  O  O341  1  0.19351979  0.41649546  0.31175365  1
  O  O342  1  0.19377827  0.41611574  0.56212145  1
  O  O343  1  0.19331949  0.41616368  0.81131379  1
  O  O344  1  0.19095936  0.74979520  0.06344409  1
  O  O345  1  0.19391740  0.75027397  0.31144787  1
  O  O346  1  0.19103839  0.74989694  0.56258230  1
  O  O347  1  0.19316418  0.75019879  0.81114159  1
  O  O348  1  0.69415083  0.08273764  0.06219682  1
  O  O349  1  0.69358655  0.08346487  0.31197087  1
  O  O350  1  0.69174870  0.08361684  0.56218870  1
  O  O351  1  0.69384796  0.08381312  0.81070540  1
  O  O352  1  0.69309071  0.41623797  0.06144212  1
  O  O353  1  0.69456917  0.41599120  0.31198558  1
  O  O354  1  0.69111631  0.41588566  0.56270391  1
  O  O355  1  0.69134199  0.41600618  0.81216011  1
  O  O356  1  0.69231564  0.75086052  0.06380847  1
  O  O357  1  0.69375368  0.75076042  0.31139272  1
  O  O358  1  0.69052697  0.75018904  0.56243257  1
  O  O359  1  0.69405237  0.75033942  0.81100282  1
  O  O360  1  0.30522558  0.24962442  0.18876485  1
  O  O361  1  0.30774909  0.24978306  0.43823604  1
  O  O362  1  0.30930349  0.24971632  0.68672652  1
  O  O363  1  0.30615945  0.25016337  0.93760444  1
  O  O364  1  0.30493676  0.58388086  0.18796974  1
  O  O365  1  0.30681978  0.58333419  0.43905398  1
  O  O366  1  0.31041850  0.58352100  0.68707721  1
  O  O367  1  0.30569937  0.58351266  0.93822069  1
  O  O368  1  0.30747220  0.91619878  0.18742177  1
  O  O369  1  0.30822740  0.91688295  0.43746680  1
  O  O370  1  0.30578445  0.91678188  0.68794702  1
  O  O371  1  0.30547588  0.91670850  0.93871489  1
  O  O372  1  0.80722531  0.25005352  0.18916992  1
  O  O373  1  0.81029889  0.24929538  0.43736279  1
  O  O374  1  0.80854113  0.24945365  0.68688512  1
  O  O375  1  0.80851193  0.24947403  0.93697553  1
  O  O376  1  0.80910124  0.58356872  0.18696234  1
  O  O377  1  0.80545367  0.58340867  0.43835654  1
  O  O378  1  0.80541223  0.58316056  0.68830146  1
  O  O379  1  0.80718772  0.58346964  0.93933544  1
  O  O380  1  0.80996739  0.91629509  0.18788146  1
  O  O381  1  0.80990388  0.91735922  0.43679678  1
  O  O382  1  0.80673592  0.91703374  0.68794657  1
  O  O383  1  0.80687769  0.91697385  0.93912433  1
  O  O384  1  0.23354269  0.24944383  0.03987026  1
  O  O385  1  0.23200535  0.25035250  0.29033746  1
  O  O386  1  0.23347061  0.25004657  0.53903890  1
  O  O387  1  0.23477385  0.24975013  0.78765131  1
  O  O388  1  0.23200070  0.58284772  0.03965184  1
  O  O389  1  0.23150640  0.58335589  0.28968496  1
  O  O390  1  0.23477244  0.58262254  0.54127558  1
  O  O391  1  0.23484233  0.58384137  0.78717004  1
  O  O392  1  0.23198704  0.91720498  0.04010982  1
  O  O393  1  0.23292222  0.91643840  0.28832003  1
  O  O394  1  0.23390463  0.91757773  0.53791316  1
  O  O395  1  0.23187295  0.91732554  0.78930620  1
  O  O396  1  0.73518298  0.24920962  0.03863251  1
  O  O397  1  0.73502107  0.25030847  0.29175784  1
  O  O398  1  0.73587450  0.24999213  0.53799025  1
  O  O399  1  0.73395952  0.24953594  0.78761389  1
  O  O400  1  0.73495278  0.58349555  0.04120829  1
  O  O401  1  0.73378687  0.58364097  0.28751838  1
  O  O402  1  0.73161911  0.58239429  0.53977227  1
  O  O403  1  0.73333555  0.58338085  0.79085216  1
  O  O404  1  0.73386242  0.91681826  0.04109710  1
  O  O405  1  0.73564519  0.91646596  0.28883235  1
  O  O406  1  0.73549309  0.91720002  0.53755115  1
  O  O407  1  0.73414788  0.91750646  0.79012633  1
  O  O408  1  0.26612968  0.08321441  0.21310679  1
  O  O409  1  0.26406517  0.08387624  0.46198820  1
  O  O410  1  0.26576091  0.08321588  0.71105227  1
  O  O411  1  0.26700281  0.08321570  0.95973263  1
  O  O412  1  0.26694174  0.41638269  0.21042297  1
  O  O413  1  0.26781498  0.41629317  0.46094126  1
  O  O414  1  0.26690741  0.41599230  0.71017320  1
  O  O415  1  0.26697471  0.41723780  0.96158531  1
  O  O416  1  0.26677686  0.75015391  0.20951143  1
  O  O417  1  0.26555797  0.74926878  0.46195837  1
  O  O418  1  0.26578260  0.75087512  0.70901582  1
  O  O419  1  0.26475195  0.75040733  0.96188110  1
  O  O420  1  0.76707456  0.08344141  0.21081949  1
  O  O421  1  0.76781240  0.08382382  0.46254692  1
  O  O422  1  0.76796878  0.08412468  0.70978632  1
  O  O423  1  0.76818502  0.08254289  0.96078043  1
  O  O424  1  0.76856158  0.41664182  0.21055091  1
  O  O425  1  0.76670810  0.41664550  0.46275822  1
  O  O426  1  0.76592138  0.41540791  0.71162841  1
  O  O427  1  0.76617107  0.41642739  0.95996130  1
  O  O428  1  0.76779338  0.74976491  0.21053127  1
  O  O429  1  0.76510800  0.74963393  0.46170608  1
  O  O430  1  0.76596281  0.75018892  0.70842990  1
  O  O431  1  0.76768676  0.75105373  0.96339299  1
  O  O432  1  0.01592424  0.08312807  0.16288955  1
  O  O433  1  0.01768422  0.08340886  0.41520690  1
  O  O434  1  0.01667921  0.08372238  0.66316952  1
  O  O435  1  0.01641878  0.08363231  0.91367987  1
  O  O436  1  0.01795473  0.41735213  0.16515626  1
  O  O437  1  0.01475038  0.41644774  0.41387047  1
  O  O438  1  0.01407501  0.41616433  0.66396369  1
  O  O439  1  0.01496286  0.41603736  0.91330414  1
  O  O440  1  0.01676776  0.74971807  0.16296965  1
  O  O441  1  0.01556231  0.75098929  0.41283468  1
  O  O442  1  0.01845022  0.74996296  0.66524020  1
  O  O443  1  0.01597447  0.75022248  0.91583410  1
  O  O444  1  0.51348428  0.08256825  0.16335415  1
  O  O445  1  0.51388705  0.08349770  0.41321659  1
  O  O446  1  0.51729661  0.08342718  0.66500481  1
  O  O447  1  0.51497013  0.08355020  0.91337404  1
  O  O448  1  0.51430594  0.41663200  0.16400807  1
  O  O449  1  0.51409494  0.41612472  0.41267021  1
  O  O450  1  0.51745937  0.41633230  0.66194694  1
  O  O451  1  0.51802110  0.41613193  0.91578842  1
  O  O452  1  0.51704429  0.75103065  0.16547561  1
  O  O453  1  0.51466774  0.75034761  0.41201156  1
  O  O454  1  0.51884039  0.74966696  0.66451463  1
  O  O455  1  0.51675129  0.74977333  0.91559897  1
  O  O456  1  0.48296418  0.24968062  0.08533006  1
  O  O457  1  0.48066081  0.24970986  0.33574869  1
  O  O458  1  0.48350320  0.24956006  0.58717751  1
  O  O459  1  0.48488014  0.25037217  0.83401768  1
  O  O460  1  0.48479270  0.58387259  0.08801983  1
  O  O461  1  0.48501550  0.58310117  0.33615751  1
  O  O462  1  0.48324325  0.58295858  0.58384154  1
  O  O463  1  0.48424462  0.58250172  0.83488153  1
  O  O464  1  0.48208869  0.91618742  0.08525648  1
  O  O465  1  0.48121815  0.91728668  0.33555626  1
  O  O466  1  0.48393561  0.91715226  0.58425184  1
  O  O467  1  0.48478453  0.91653014  0.83747112  1
  O  O468  1  0.98515641  0.25064962  0.08743638  1
  O  O469  1  0.98370799  0.24960495  0.33699098  1
  O  O470  1  0.98222681  0.24982091  0.58511298  1
  O  O471  1  0.98170770  0.24894870  0.83506793  1
  O  O472  1  0.98410637  0.58347576  0.08736367  1
  O  O473  1  0.98411731  0.58328380  0.33479422  1
  O  O474  1  0.98295862  0.58378230  0.58389384  1
  O  O475  1  0.98446732  0.58323398  0.83707947  1
  O  O476  1  0.98402161  0.91605560  0.08739496  1
  O  O477  1  0.98293441  0.91733878  0.33429157  1
  O  O478  1  0.98523685  0.91733532  0.58659410  1
  O  O479  1  0.98550391  0.91725053  0.83688641  1
  O  O480  1  0.08823232  0.31668659  0.07847912  1
  O  O481  1  0.08767643  0.31419385  0.32724810  1
  O  O482  1  0.08618948  0.31468714  0.57616393  1
  O  O483  1  0.08539793  0.31397698  0.82663155  1
  O  O484  1  0.08808973  0.64815249  0.07783287  1
  O  O485  1  0.08813942  0.64807922  0.32652436  1
  O  O486  1  0.08699364  0.64883387  0.57796586  1
  O  O487  1  0.08814585  0.64806337  0.82826195  1
  O  O488  1  0.08792906  0.98060820  0.07706031  1
  O  O489  1  0.08676729  0.98312072  0.32685051  1
  O  O490  1  0.08891016  0.98190369  0.57887521  1
  O  O491  1  0.08862917  0.98368478  0.82828333  1
  O  O492  1  0.58700654  0.31449091  0.07788274  1
  O  O493  1  0.58458313  0.31470857  0.32661986  1
  O  O494  1  0.58728211  0.31422313  0.57733919  1
  O  O495  1  0.58863464  0.31602564  0.82739251  1
  O  O496  1  0.58796533  0.65005054  0.07932921  1
  O  O497  1  0.58913735  0.64774250  0.32702690  1
  O  O498  1  0.58733722  0.64799768  0.57655952  1
  O  O499  1  0.58820847  0.64695680  0.82795670  1
  O  O500  1  0.58641757  0.98066472  0.07649728  1
  O  O501  1  0.58491511  0.98256646  0.32624706  1
  O  O502  1  0.58747394  0.98289268  0.57752403  1
  O  O503  1  0.58808094  0.98201939  0.82807787  1
  O  O504  1  0.40998003  0.01651452  0.17163248  1
  O  O505  1  0.41033516  0.01827186  0.42149747  1
  O  O506  1  0.41289794  0.01914682  0.67364458  1
  O  O507  1  0.41112854  0.01838003  0.92290634  1
  O  O508  1  0.41018293  0.35203478  0.17288313  1
  O  O509  1  0.41050878  0.35053357  0.42206897  1
  O  O510  1  0.41379741  0.35149201  0.67172400  1
  O  O511  1  0.41364193  0.35158128  0.92353875  1
  O  O512  1  0.41297329  0.68605682  0.17407110  1
  O  O513  1  0.41131941  0.68548946  0.42174554  1
  O  O514  1  0.41521021  0.68396761  0.67216435  1
  O  O515  1  0.41304351  0.68463965  0.92319235  1
  O  O516  1  0.91274703  0.01717806  0.17166511  1
  O  O517  1  0.91384743  0.01800798  0.42285269  1
  O  O518  1  0.91269454  0.01945366  0.67328238  1
  O  O519  1  0.91244481  0.01922846  0.92304669  1
  O  O520  1  0.91359116  0.35312134  0.17375535  1
  O  O521  1  0.91119751  0.35069318  0.42182608  1
  O  O522  1  0.91046417  0.35050411  0.67162767  1
  O  O523  1  0.91191161  0.34988614  0.92158053  1
  O  O524  1  0.91294135  0.68475691  0.17260481  1
  O  O525  1  0.91206268  0.68606252  0.42222647  1
  O  O526  1  0.91444218  0.68507332  0.67304446  1
  O  O527  1  0.91185737  0.68543948  0.92387940  1
  O  O528  1  0.16252163  0.01841744  0.20345474  1
  O  O529  1  0.15983635  0.02024643  0.45217451  1
  O  O530  1  0.16196754  0.01773775  0.70262169  1
  O  O531  1  0.16301922  0.01755869  0.95226777  1
  O  O532  1  0.16288088  0.35146919  0.20231978  1
  O  O533  1  0.16421806  0.35040368  0.45273073  1
  O  O534  1  0.16282363  0.35140091  0.70194026  1
  O  O535  1  0.16342385  0.35224481  0.95220097  1
  O  O536  1  0.16249407  0.68512830  0.20227685  1
  O  O537  1  0.16172080  0.68471214  0.45294257  1
  O  O538  1  0.16156982  0.68643585  0.70149876  1
  O  O539  1  0.16160679  0.68452017  0.95372641  1
  O  O540  1  0.66325872  0.01844108  0.20255459  1
  O  O541  1  0.66418080  0.01860337  0.45185730  1
  O  O542  1  0.66372497  0.01960335  0.70086775  1
  O  O543  1  0.66465932  0.01656469  0.95307180  1
  O  O544  1  0.66456079  0.35181444  0.20238921  1
  O  O545  1  0.66319482  0.35183379  0.45210385  1
  O  O546  1  0.66232184  0.34996107  0.70216847  1
  O  O547  1  0.66227587  0.35132794  0.95193067  1
  O  O548  1  0.66358258  0.68470861  0.20218938  1
  O  O549  1  0.66169651  0.68389390  0.45309159  1
  O  O550  1  0.66169347  0.68542749  0.70205334  1
  O  O551  1  0.66404792  0.68640867  0.95353078  1
  O  O552  1  0.33702284  0.31507773  0.04690045  1
  O  O553  1  0.33631067  0.31491759  0.29785200  1
  O  O554  1  0.33741322  0.31584495  0.54772967  1
  O  O555  1  0.33878750  0.31375052  0.79680394  1
  O  O556  1  0.33568570  0.64793179  0.04801291  1
  O  O557  1  0.33520448  0.64895557  0.29726168  1
  O  O558  1  0.33907389  0.64690742  0.54867071  1
  O  O559  1  0.33822183  0.64895862  0.79707852  1
  O  O560  1  0.33582975  0.98285584  0.04775768  1
  O  O561  1  0.33680302  0.98130989  0.29748417  1
  O  O562  1  0.33762048  0.98189025  0.54741741  1
  O  O563  1  0.33566041  0.98268359  0.79707324  1
  O  O564  1  0.83889318  0.31377837  0.04694492  1
  O  O565  1  0.83886171  0.31627598  0.29766160  1
  O  O566  1  0.83951564  0.31504142  0.54707214  1
  O  O567  1  0.83770171  0.31470356  0.79691315  1
  O  O568  1  0.83866136  0.64952039  0.04833574  1
  O  O569  1  0.83729875  0.64874202  0.29706223  1
  O  O570  1  0.83530915  0.64762784  0.54811663  1
  O  O571  1  0.83763624  0.64738149  0.79729133  1
  O  O572  1  0.83802334  0.98206615  0.04830442  1
  O  O573  1  0.84006367  0.98017337  0.29795512  1
  O  O574  1  0.83895474  0.98282243  0.54656028  1
  O  O575  1  0.83780085  0.98310894  0.79673025  1
  O  O576  1  0.40922865  0.14657254  0.17266193  1
  O  O577  1  0.41037363  0.14858244  0.42167055  1
  O  O578  1  0.41333527  0.14914612  0.67329202  1
  O  O579  1  0.41111076  0.14829810  0.92250363  1
  O  O580  1  0.41065736  0.48203615  0.17321732  1
  O  O581  1  0.41029068  0.48068861  0.42243608  1
  O  O582  1  0.41408219  0.48175747  0.67137930  1
  O  O583  1  0.41405106  0.48147740  0.92395231  1
  O  O584  1  0.41251527  0.81600140  0.17266549  1
  O  O585  1  0.41123461  0.81594219  0.42131564  1
  O  O586  1  0.41488368  0.81427942  0.67280894  1
  O  O587  1  0.41278840  0.81474466  0.92319217  1
  O  O588  1  0.91221734  0.14741447  0.17189104  1
  O  O589  1  0.91349630  0.14807023  0.42297580  1
  O  O590  1  0.91299374  0.14939072  0.67247306  1
  O  O591  1  0.91261280  0.14922866  0.92250957  1
  O  O592  1  0.91406555  0.48309950  0.17337880  1
  O  O593  1  0.91062896  0.48080690  0.42291318  1
  O  O594  1  0.90999403  0.48063695  0.67283981  1
  O  O595  1  0.91130077  0.48027223  0.92227081  1
  O  O596  1  0.91285892  0.81483358  0.17246016  1
  O  O597  1  0.91209739  0.81636771  0.42087390  1
  O  O598  1  0.91488936  0.81521591  0.67327948  1
  O  O599  1  0.91222113  0.81549421  0.92394196  1
  O  O600  1  0.08880444  0.18626211  0.07810667  1
  O  O601  1  0.08736105  0.18413962  0.32802873  1
  O  O602  1  0.08643406  0.18471641  0.57697962  1
  O  O603  1  0.08570600  0.18391785  0.82750770  1
  O  O604  1  0.08767663  0.51790111  0.07759757  1
  O  O605  1  0.08808621  0.51808868  0.32669973  1
  O  O606  1  0.08650432  0.51850433  0.57723402  1
  O  O607  1  0.08784895  0.51790051  0.82767903  1
  O  O608  1  0.08768156  0.85050405  0.07784037  1
  O  O609  1  0.08725454  0.85313985  0.32603137  1
  O  O610  1  0.08839667  0.85152261  0.57863492  1
  O  O611  1  0.08982694  0.85361863  0.82785698  1
  O  O612  1  0.58650562  0.18424174  0.07751065  1
  O  O613  1  0.58457040  0.18463625  0.32677728  1
  O  O614  1  0.58688314  0.18390109  0.57756085  1
  O  O615  1  0.58912213  0.18592884  0.82645691  1
  O  O616  1  0.58867171  0.51962342  0.07879021  1
  O  O617  1  0.58873553  0.51771883  0.32669780  1
  O  O618  1  0.58720328  0.51775098  0.57619565  1
  O  O619  1  0.58763536  0.51667839  0.82831168  1
  O  O620  1  0.58636457  0.85064097  0.07745941  1
  O  O621  1  0.58517697  0.85251490  0.32630389  1
  O  O622  1  0.58786811  0.85234967  0.57762933  1
  O  O623  1  0.58867025  0.85185774  0.82868215  1
  O  O624  1  0.33726724  0.18467105  0.04661404  1
  O  O625  1  0.33576446  0.18479621  0.29844921  1
  O  O626  1  0.33768498  0.18592804  0.54846148  1
  O  O627  1  0.33784223  0.18348147  0.79617093  1
  O  O628  1  0.33608393  0.51785087  0.04739090  1
  O  O629  1  0.33565810  0.51873872  0.29710721  1
  O  O630  1  0.33855765  0.51682512  0.54761135  1
  O  O631  1  0.33820593  0.51851838  0.79719677  1
  O  O632  1  0.33629139  0.85286412  0.04862987  1
  O  O633  1  0.33669920  0.85108649  0.29719445  1
  O  O634  1  0.33717615  0.85176357  0.54750925  1
  O  O635  1  0.33569161  0.85248664  0.79776150  1
  O  O636  1  0.83878279  0.18363653  0.04633415  1
  O  O637  1  0.83951903  0.18618908  0.29851018  1
  O  O638  1  0.83965787  0.18482498  0.54751855  1
  O  O639  1  0.83793031  0.18461980  0.79698139  1
  O  O640  1  0.83943737  0.51953991  0.04876445  1
  O  O641  1  0.83728161  0.51845019  0.29699150  1
  O  O642  1  0.83561815  0.51748906  0.54740691  1
  O  O643  1  0.83654353  0.51697699  0.79701669  1
  O  O644  1  0.83818117  0.85211624  0.04858039  1
  O  O645  1  0.83893011  0.84997907  0.29718895  1
  O  O646  1  0.83914750  0.85253525  0.54680438  1
  O  O647  1  0.83804109  0.85286266  0.79739294  1
  O  O648  1  0.16273408  0.14865346  0.20370042  1
  O  O649  1  0.16089554  0.15032446  0.45309479  1
  O  O650  1  0.16174601  0.14777247  0.70152408  1
  O  O651  1  0.16270092  0.14747496  0.95128752  1
  O  O652  1  0.16301255  0.48159008  0.20212835  1
  O  O653  1  0.16367540  0.48045343  0.45248775  1
  O  O654  1  0.16324156  0.48149763  0.70192425  1
  O  O655  1  0.16313660  0.48249500  0.95281629  1
  O  O656  1  0.16253770  0.81514968  0.20220843  1
  O  O657  1  0.16233070  0.81489731  0.45244265  1
  O  O658  1  0.16198687  0.81655666  0.70247072  1
  O  O659  1  0.16102198  0.81507190  0.95413879  1
  O  O660  1  0.66330837  0.14867139  0.20260117  1
  O  O661  1  0.66399775  0.14864251  0.45205145  1
  O  O662  1  0.66396837  0.14953211  0.70114159  1
  O  O663  1  0.66409949  0.14668638  0.95227820  1
  O  O664  1  0.66466738  0.48195586  0.20277751  1
  O  O665  1  0.66305229  0.48194981  0.45286016  1
  O  O666  1  0.66192708  0.48000617  0.70186359  1
  O  O667  1  0.66218377  0.48139198  0.95219654  1
  O  O668  1  0.66375438  0.81469592  0.20147036  1
  O  O669  1  0.66153023  0.81430540  0.45208445  1
  O  O670  1  0.66205910  0.81542868  0.70182490  1
  O  O671  1  0.66417169  0.81666515  0.95405308  1
