# generated using pymatgen
data_Na2MnFe(PO4)2
_symmetry_space_group_name_H-M   'P 1'
_cell_length_a   21.08296186
_cell_length_b   18.93464869
_cell_length_c   20.04257037
_cell_angle_alpha   90.00052537
_cell_angle_beta   90.00164823
_cell_angle_gamma   90.00190554
_symmetry_Int_Tables_number   1
_chemical_formula_structural   Na2MnFe(PO4)2
_chemical_formula_sum   'Na96 Mn48 Fe48 P96 O384'
_cell_volume   8000.96354376
_cell_formula_units_Z   48
loop_
 _symmetry_equiv_pos_site_id
 _symmetry_equiv_pos_as_xyz
  1  'x, y, z'
loop_
 _atom_site_type_symbol
 _atom_site_label
 _atom_site_symmetry_multiplicity
 _atom_site_fract_x
 _atom_site_fract_y
 _atom_site_fract_z
 _atom_site_occupancy
  Na  Na0  1  0.00050925  0.00007208  0.00020827  1
  Na  Na1  1  -0.00001202  0.00071259  0.24966507  1
  Na  Na2  1  -0.00213327  -0.00085372  0.50131968  1
  Na  Na3  1  0.00025176  -0.00030210  0.74943240  1
  Na  Na4  1  -0.00156124  0.33302829  0.00106954  1
  Na  Na5  1  -0.00218689  0.33240115  0.24916768  1
  Na  Na6  1  0.00080422  0.33386734  0.49944231  1
  Na  Na7  1  0.00153916  0.33448615  0.74980576  1
  Na  Na8  1  -0.00137717  0.66665156  -0.00015892  1
  Na  Na9  1  -0.00275855  0.66558770  0.25116559  1
  Na  Na10  1  -0.00017807  0.66650356  0.49913686  1
  Na  Na11  1  -0.00074128  0.66623166  0.74974706  1
  Na  Na12  1  0.49974997  -0.00001964  0.00012668  1
  Na  Na13  1  0.49864373  -0.00038375  0.24859377  1
  Na  Na14  1  0.50037881  0.00030891  0.49954306  1
  Na  Na15  1  0.50009787  0.00001535  0.75100616  1
  Na  Na16  1  0.50064370  0.33411947  -0.00008315  1
  Na  Na17  1  0.50065445  0.33323373  0.25066935  1
  Na  Na18  1  0.50036524  0.33333463  0.49898823  1
  Na  Na19  1  0.49942798  0.33343313  0.75001256  1
  Na  Na20  1  0.50068254  0.66624032  -0.00084729  1
  Na  Na21  1  0.50003077  0.66657676  0.25066920  1
  Na  Na22  1  0.50031755  0.66709419  0.50025995  1
  Na  Na23  1  0.49961126  0.66631266  0.75055777  1
  Na  Na24  1  0.24897449  -0.00004045  0.12584281  1
  Na  Na25  1  0.25223447  0.00102322  0.37490436  1
  Na  Na26  1  0.24889588  -0.00133317  0.62419830  1
  Na  Na27  1  0.24931269  0.00042835  0.87523503  1
  Na  Na28  1  0.25099290  0.33338384  0.12519252  1
  Na  Na29  1  0.25190965  0.33377870  0.37584383  1
  Na  Na30  1  0.25041467  0.33364779  0.62378634  1
  Na  Na31  1  0.24884257  0.33302130  0.87447534  1
  Na  Na32  1  0.25153470  0.66700838  0.12442290  1
  Na  Na33  1  0.25179130  0.66691530  0.37565586  1
  Na  Na34  1  0.25042891  0.66670762  0.62643263  1
  Na  Na35  1  0.25063925  0.66671142  0.87436977  1
  Na  Na36  1  0.74920017  -0.00066605  0.12574268  1
  Na  Na37  1  0.75079397  0.00079960  0.37458236  1
  Na  Na38  1  0.75052790  -0.00024575  0.62451077  1
  Na  Na39  1  0.75207294  0.00012557  0.87493156  1
  Na  Na40  1  0.75180614  0.33431813  0.12546962  1
  Na  Na41  1  0.74834046  0.33259089  0.37464506  1
  Na  Na42  1  0.74782556  0.33304145  0.62463873  1
  Na  Na43  1  0.74996806  0.33364574  0.87589623  1
  Na  Na44  1  0.75116569  0.66659632  0.12548589  1
  Na  Na45  1  0.74959481  0.66626221  0.37517847  1
  Na  Na46  1  0.74918156  0.66592491  0.62398289  1
  Na  Na47  1  0.74989816  0.66589200  0.87464651  1
  Na  Na48  1  -0.00121155  0.16760220  0.00052952  1
  Na  Na49  1  0.00049552  0.16648024  0.24943721  1
  Na  Na50  1  -0.00124179  0.16808998  0.50076888  1
  Na  Na51  1  0.00093822  0.16652221  0.74895725  1
  Na  Na52  1  -0.00341329  0.50085510  0.00079786  1
  Na  Na53  1  -0.00351365  0.50058036  0.25044111  1
  Na  Na54  1  0.00032534  0.49974427  0.49867001  1
  Na  Na55  1  -0.00110947  0.50079746  0.75000307  1
  Na  Na56  1  0.00186125  0.83256281  -0.00026377  1
  Na  Na57  1  -0.00219047  0.83445806  0.24997765  1
  Na  Na58  1  -0.00032370  0.83266381  0.50041045  1
  Na  Na59  1  0.00074588  0.83274997  0.75016807  1
  Na  Na60  1  0.49716793  0.16797352  0.00130735  1
  Na  Na61  1  0.49975563  0.16675089  0.24944766  1
  Na  Na62  1  0.49994551  0.16697656  0.49869693  1
  Na  Na63  1  0.49936350  0.16715288  0.75088904  1
  Na  Na64  1  0.50261523  0.49930021  -0.00077338  1
  Na  Na65  1  0.50111312  0.50039519  0.25066013  1
  Na  Na66  1  0.50153962  0.49953786  0.50005333  1
  Na  Na67  1  0.49950900  0.50105859  0.75018362  1
  Na  Na68  1  0.50121817  0.83226263  -0.00114594  1
  Na  Na69  1  0.49850724  0.83342946  0.24977157  1
  Na  Na70  1  0.49951971  0.83240385  0.50023629  1
  Na  Na71  1  0.49965537  0.83318138  0.75056340  1
  Na  Na72  1  0.25220543  0.16605209  0.12565779  1
  Na  Na73  1  0.25164802  0.16730704  0.37476082  1
  Na  Na74  1  0.25047208  0.16746810  0.62426649  1
  Na  Na75  1  0.24990211  0.16729574  0.87513919  1
  Na  Na76  1  0.25084285  0.49995671  0.12454461  1
  Na  Na77  1  0.25045997  0.50015102  0.37568749  1
  Na  Na78  1  0.25081059  0.50016003  0.62547180  1
  Na  Na79  1  0.25198012  0.49941633  0.87431891  1
  Na  Na80  1  0.24930547  0.83315096  0.12510510  1
  Na  Na81  1  0.25284259  0.83200035  0.37624689  1
  Na  Na82  1  0.24952758  0.83216237  0.62449369  1
  Na  Na83  1  0.24639115  0.83392692  0.87483185  1
  Na  Na84  1  0.75161596  0.16601065  0.12592379  1
  Na  Na85  1  0.74869929  0.16760445  0.37398209  1
  Na  Na86  1  0.74971215  0.16657236  0.62440592  1
  Na  Na87  1  0.75130360  0.16619428  0.87526097  1
  Na  Na88  1  0.75011335  0.49972177  0.12531743  1
  Na  Na89  1  0.75024626  0.49969695  0.37446500  1
  Na  Na90  1  0.74889054  0.50084924  0.62518398  1
  Na  Na91  1  0.75056372  0.50009411  0.87491852  1
  Na  Na92  1  0.75125756  0.83289217  0.12531521  1
  Na  Na93  1  0.75000048  0.83273021  0.37603604  1
  Na  Na94  1  0.74942841  0.83316178  0.62359309  1
  Na  Na95  1  0.75125851  0.83276507  0.87521172  1
  Mn  Mn96  1  0.89197006  0.25133737  0.62706161  1
  Mn  Mn97  1  0.39294159  0.58267452  0.12677417  1
  Mn  Mn98  1  0.35844009  0.41777613  0.50240844  1
  Mn  Mn99  1  0.85812537  0.74994502  0.00235347  1
  Mn  Mn100  1  0.60708321  0.41690529  0.62286214  1
  Mn  Mn101  1  0.39166015  0.25065545  0.87721248  1
  Mn  Mn102  1  0.39127253  0.91630128  0.87763813  1
  Mn  Mn103  1  0.14222944  0.25020135  0.99844617  1
  Mn  Mn104  1  0.85834827  0.08279040  0.75238589  1
  Mn  Mn105  1  0.35874846  0.41625794  0.00246760  1
  Mn  Mn106  1  0.60847923  0.74961187  0.87212177  1
  Mn  Mn107  1  0.85693163  0.75003872  0.50245498  1
  Mn  Mn108  1  0.64284187  0.24951186  0.99835436  1
  Mn  Mn109  1  0.35707301  0.75082769  0.00170930  1
  Mn  Mn110  1  0.89239300  0.91674234  0.12711133  1
  Mn  Mn111  1  0.10796289  0.08352510  0.62205442  1
  Mn  Mn112  1  0.14225905  0.58287529  0.74775001  1
  Mn  Mn113  1  0.10757247  0.75022541  0.37271599  1
  Mn  Mn114  1  0.60800489  0.08379195  0.87377993  1
  Mn  Mn115  1  0.10733376  0.41617881  0.37196361  1
  Mn  Mn116  1  0.85802966  0.08336711  0.25293585  1
  Mn  Mn117  1  0.14265630  0.91700046  0.24890336  1
  Mn  Mn118  1  0.35911328  0.08285403  0.50237549  1
  Mn  Mn119  1  0.64284356  0.91596137  0.74794513  1
  Mn  Mn120  1  0.14251610  0.91619651  0.49689435  1
  Mn  Mn121  1  0.39274811  0.58336764  0.37765280  1
  Mn  Mn122  1  0.60709178  0.08360300  0.12211659  1
  Mn  Mn123  1  0.64206040  0.91662855  0.24802032  1
  Mn  Mn124  1  0.39213568  0.91664679  0.62816281  1
  Mn  Mn125  1  0.85785594  0.41706950  0.75194182  1
  Mn  Mn126  1  0.39155479  0.91656338  0.12672128  1
  Mn  Mn127  1  0.64301448  0.58312073  0.24781377  1
  Mn  Mn128  1  0.89248611  0.91541030  0.62757886  1
  Mn  Mn129  1  0.10780602  0.08337370  0.87280939  1
  Mn  Mn130  1  0.14140144  0.58333432  0.99792198  1
  Mn  Mn131  1  0.60789561  0.08311600  0.62256408  1
  Mn  Mn132  1  0.64173576  0.91680987  0.49702328  1
  Mn  Mn133  1  0.10718370  0.08357484  0.37335934  1
  Mn  Mn134  1  0.89229256  0.25003500  0.87707902  1
  Mn  Mn135  1  0.10701127  0.41688058  0.12356218  1
  Mn  Mn136  1  0.14223255  0.58276784  0.24790228  1
  Mn  Mn137  1  0.14277133  0.25040535  0.49712768  1
  Mn  Mn138  1  0.85685557  0.41596730  0.50228024  1
  Mn  Mn139  1  0.60832720  0.74956709  0.12298298  1
  Mn  Mn140  1  0.64169557  0.24983639  0.74774043  1
  Mn  Mn141  1  0.35732986  0.08302775  0.75240300  1
  Mn  Mn142  1  0.10721008  0.41753060  0.87326101  1
  Mn  Mn143  1  0.10752232  0.74982212  0.12403348  1
  Fe  Fe144  1  0.85638530  0.08403117  0.50072734  1
  Fe  Fe145  1  0.10734971  0.74859111  0.62337709  1
  Fe  Fe146  1  0.35720541  0.08338667  0.25187561  1
  Fe  Fe147  1  0.39367647  0.58315839  0.87674863  1
  Fe  Fe148  1  0.14216895  0.91681319  0.74844457  1
  Fe  Fe149  1  0.85665554  0.41601637  0.00198742  1
  Fe  Fe150  1  0.35818637  0.74975912  0.25172781  1
  Fe  Fe151  1  0.39401678  0.24979017  0.37603417  1
  Fe  Fe152  1  0.14345252  0.25029828  0.24857328  1
  Fe  Fe153  1  0.85798341  0.08337575  0.00198498  1
  Fe  Fe154  1  0.10782957  0.08385585  0.12357219  1
  Fe  Fe155  1  0.89195124  0.91716584  0.37696456  1
  Fe  Fe156  1  0.64167327  0.24993306  0.49767024  1
  Fe  Fe157  1  0.89255252  0.25003807  0.12732482  1
  Fe  Fe158  1  0.89187102  0.58385515  0.87663444  1
  Fe  Fe159  1  0.89233535  0.58316921  0.37787649  1
  Fe  Fe160  1  0.39264991  0.25103224  0.12770762  1
  Fe  Fe161  1  0.60782741  0.41650943  0.12345689  1
  Fe  Fe162  1  0.39295123  0.91686264  0.37622095  1
  Fe  Fe163  1  0.85746092  0.74993374  0.25259040  1
  Fe  Fe164  1  0.89265420  0.58326810  0.62601485  1
  Fe  Fe165  1  0.85645715  0.41652459  0.25213458  1
  Fe  Fe166  1  0.89346486  0.91636856  0.87700865  1
  Fe  Fe167  1  0.14285577  0.58357976  0.49887309  1
  Fe  Fe168  1  0.89204619  0.24961241  0.37684876  1
  Fe  Fe169  1  0.60718688  0.08298866  0.37291552  1
  Fe  Fe170  1  0.35785241  0.74939711  0.50273038  1
  Fe  Fe171  1  0.39285504  0.25044636  0.62653466  1
  Fe  Fe172  1  0.64218504  0.58294733  0.49842771  1
  Fe  Fe173  1  0.60645059  0.75053368  0.37307282  1
  Fe  Fe174  1  0.10655705  0.74935146  0.87311488  1
  Fe  Fe175  1  0.14284103  0.25027018  0.74795001  1
  Fe  Fe176  1  0.64314115  0.91652883  0.99831304  1
  Fe  Fe177  1  0.10802929  0.41792042  0.62349024  1
  Fe  Fe178  1  0.89150632  0.58315474  0.12711994  1
  Fe  Fe179  1  0.60793211  0.41672047  0.87326245  1
  Fe  Fe180  1  0.60683908  0.74995659  0.62387208  1
  Fe  Fe181  1  0.64362202  0.58359460  0.99807485  1
  Fe  Fe182  1  0.60742626  0.41651326  0.37276563  1
  Fe  Fe183  1  0.39298938  0.58309939  0.62703041  1
  Fe  Fe184  1  0.35665501  0.74972254  0.75183192  1
  Fe  Fe185  1  0.35841543  0.41669059  0.25149348  1
  Fe  Fe186  1  0.35725204  0.41696241  0.75150085  1
  Fe  Fe187  1  0.85762026  0.74967031  0.75109316  1
  Fe  Fe188  1  0.35671588  0.08298640  0.00173724  1
  Fe  Fe189  1  0.64281323  0.25002568  0.24780481  1
  Fe  Fe190  1  0.14197851  0.91689390  0.99826397  1
  Fe  Fe191  1  0.64302620  0.58393173  0.74788927  1
  P  P192  1  0.05347052  0.24975290  0.11167813  1
  P  P193  1  0.05240242  0.24993810  0.35902657  1
  P  P194  1  0.05497015  0.25166764  0.61076546  1
  P  P195  1  0.05391155  0.25032636  0.85940244  1
  P  P196  1  0.05114695  0.58320097  0.11056140  1
  P  P197  1  0.05295406  0.58325151  0.36100127  1
  P  P198  1  0.05289485  0.58336899  0.60950710  1
  P  P199  1  0.05154785  0.58390138  0.86010384  1
  P  P200  1  0.05438411  0.91750242  0.10998429  1
  P  P201  1  0.05138167  0.91684396  0.36023311  1
  P  P202  1  0.05506152  0.91512827  0.61106119  1
  P  P203  1  0.05404916  0.91600384  0.86059312  1
  P  P204  1  0.55331079  0.25106344  0.11142592  1
  P  P205  1  0.55475274  0.24978241  0.36014682  1
  P  P206  1  0.55247031  0.25011650  0.60910283  1
  P  P207  1  0.55339121  0.25082442  0.86063217  1
  P  P208  1  0.55482162  0.58239684  0.10933793  1
  P  P209  1  0.55503587  0.58365872  0.36157203  1
  P  P210  1  0.55388428  0.58441441  0.61091789  1
  P  P211  1  0.55519182  0.58255335  0.86037369  1
  P  P212  1  0.55371950  0.91629080  0.10886355  1
  P  P213  1  0.55198223  0.91637020  0.35988141  1
  P  P214  1  0.55324473  0.91565108  0.61008358  1
  P  P215  1  0.55443535  0.91680642  0.86109368  1
  P  P216  1  0.44411964  0.08404610  0.13921364  1
  P  P217  1  0.44672893  0.08335788  0.38793373  1
  P  P218  1  0.44708817  0.08434257  0.64042925  1
  P  P219  1  0.44560520  0.08337823  0.89128581  1
  P  P220  1  0.44802814  0.41643541  0.14080442  1
  P  P221  1  0.44706788  0.41617843  0.38867411  1
  P  P222  1  0.44603562  0.41695007  0.64024295  1
  P  P223  1  0.44695793  0.41780761  0.88864293  1
  P  P224  1  0.44641064  0.74965182  0.14019244  1
  P  P225  1  0.44564826  0.75057926  0.38966676  1
  P  P226  1  0.44597197  0.74890565  0.64003348  1
  P  P227  1  0.44538784  0.74897569  0.88855512  1
  P  P228  1  0.94659849  0.08397870  0.13904001  1
  P  P229  1  0.94574220  0.08386936  0.39079821  1
  P  P230  1  0.94530531  0.08369421  0.63858788  1
  P  P231  1  0.94637904  0.08246238  0.89060597  1
  P  P232  1  0.94373383  0.41660008  0.13958350  1
  P  P233  1  0.94453308  0.41591854  0.38856538  1
  P  P234  1  0.94786803  0.41794851  0.63940937  1
  P  P235  1  0.94544701  0.41760846  0.89078332  1
  P  P236  1  0.94562833  0.74935379  0.14096611  1
  P  P237  1  0.94485982  0.75021231  0.38919071  1
  P  P238  1  0.94711792  0.74849387  0.64031658  1
  P  P239  1  0.94620370  0.75016493  0.88836886  1
  P  P240  1  0.19707319  0.08469072  0.23535560  1
  P  P241  1  0.19750766  0.08351223  0.48432905  1
  P  P242  1  0.19640896  0.08346111  0.73470482  1
  P  P243  1  0.19625228  0.08327043  0.98656474  1
  P  P244  1  0.19835555  0.41575958  0.23531176  1
  P  P245  1  0.19568771  0.41825008  0.48592609  1
  P  P246  1  0.19718352  0.41648658  0.73447806  1
  P  P247  1  0.19698397  0.41676216  0.98495036  1
  P  P248  1  0.19848106  0.74977368  0.23566341  1
  P  P249  1  0.19664656  0.74834229  0.48635852  1
  P  P250  1  0.19534334  0.75005048  0.73583121  1
  P  P251  1  0.19496095  0.75025658  0.98445546  1
  P  P252  1  0.69508541  0.08392940  0.23596223  1
  P  P253  1  0.69648167  0.08393479  0.48380810  1
  P  P254  1  0.69713142  0.08289049  0.73483526  1
  P  P255  1  0.69845066  0.08270514  0.98550084  1
  P  P256  1  0.69577766  0.41581001  0.23570204  1
  P  P257  1  0.69509161  0.41689437  0.48444094  1
  P  P258  1  0.69545510  0.41775368  0.73614089  1
  P  P259  1  0.69604877  0.41723807  0.98604856  1
  P  P260  1  0.69709942  0.75005568  0.23644439  1
  P  P261  1  0.69389847  0.74885986  0.48559425  1
  P  P262  1  0.69768370  0.74908257  0.73397481  1
  P  P263  1  0.69691575  0.74975392  0.98520820  1
  P  P264  1  0.30427750  0.24947282  0.01596346  1
  P  P265  1  0.30487611  0.25043030  0.26454952  1
  P  P266  1  0.30625200  0.25032671  0.51409607  1
  P  P267  1  0.30331877  0.25116736  0.76338413  1
  P  P268  1  0.30438593  0.58339081  0.01362404  1
  P  P269  1  0.30404264  0.58287325  0.26508835  1
  P  P270  1  0.30344347  0.58416143  0.51606799  1
  P  P271  1  0.30551576  0.58322206  0.76426585  1
  P  P272  1  0.30116932  0.91714803  0.01503791  1
  P  P273  1  0.30420774  0.91670848  0.26560281  1
  P  P274  1  0.30520104  0.91551897  0.51396739  1
  P  P275  1  0.30156856  0.91546295  0.76496583  1
  P  P276  1  0.80431436  0.24985661  0.01588096  1
  P  P277  1  0.80388471  0.25067620  0.26446274  1
  P  P278  1  0.80234191  0.24935255  0.51348676  1
  P  P279  1  0.80289526  0.25046346  0.76510800  1
  P  P280  1  0.80399091  0.58252729  0.01438031  1
  P  P281  1  0.80535748  0.58308758  0.26462735  1
  P  P282  1  0.80336215  0.58284952  0.51446991  1
  P  P283  1  0.80416658  0.58432224  0.76388096  1
  P  P284  1  0.80373589  0.91721816  0.01407185  1
  P  P285  1  0.80391909  0.91602989  0.26583291  1
  P  P286  1  0.80421951  0.91780913  0.51369621  1
  P  P287  1  0.80460976  0.91491367  0.76541525  1
  O  O288  1  0.05879367  0.25021222  0.18824746  1
  O  O289  1  0.05678666  0.25043102  0.43576984  1
  O  O290  1  0.05937753  0.25077800  0.68751532  1
  O  O291  1  0.05666152  0.25024866  0.93628031  1
  O  O292  1  0.05541854  0.58286012  0.18724426  1
  O  O293  1  0.05849478  0.58334928  0.43762291  1
  O  O294  1  0.05633967  0.58330850  0.68600230  1
  O  O295  1  0.05515604  0.58335344  0.93685555  1
  O  O296  1  0.05735986  0.91720787  0.18678352  1
  O  O297  1  0.05557405  0.91640502  0.43694558  1
  O  O298  1  0.05911299  0.91612038  0.68789755  1
  O  O299  1  0.05844976  0.91694080  0.93734706  1
  O  O300  1  0.55829921  0.25016298  0.18808783  1
  O  O301  1  0.55875243  0.24976711  0.43690320  1
  O  O302  1  0.55612605  0.25006930  0.68586124  1
  O  O303  1  0.55671915  0.25022573  0.93740939  1
  O  O304  1  0.55765919  0.58353878  0.18626883  1
  O  O305  1  0.55827106  0.58332387  0.43838344  1
  O  O306  1  0.55849264  0.58402112  0.68760884  1
  O  O307  1  0.55998450  0.58337012  0.93703074  1
  O  O308  1  0.55689946  0.91639105  0.18572199  1
  O  O309  1  0.55539257  0.91642527  0.43641155  1
  O  O310  1  0.55644203  0.91623878  0.68691582  1
  O  O311  1  0.55950135  0.91662211  0.93779168  1
  O  O312  1  0.43994848  0.08294449  0.06247783  1
  O  O313  1  0.44204378  0.08336562  0.31125537  1
  O  O314  1  0.44460505  0.08341889  0.56359897  1
  O  O315  1  0.44248076  0.08307749  0.81443663  1
  O  O316  1  0.44456658  0.41688302  0.06406280  1
  O  O317  1  0.44236124  0.41702701  0.31194191  1
  O  O318  1  0.44395789  0.41722900  0.56354872  1
  O  O319  1  0.44182808  0.41695865  0.81201454  1
  O  O320  1  0.44318792  0.74974644  0.06341419  1
  O  O321  1  0.44111811  0.74960370  0.31288315  1
  O  O322  1  0.44170090  0.74935290  0.56329457  1
  O  O323  1  0.44074679  0.75026288  0.81183219  1
  O  O324  1  0.94171659  0.08344595  0.06230792  1
  O  O325  1  0.94371137  0.08386593  0.31402129  1
  O  O326  1  0.94048609  0.08404853  0.56187499  1
  O  O327  1  0.94378224  0.08301699  0.81376468  1
  O  O328  1  0.94008381  0.41643712  0.06275975  1
  O  O329  1  0.94044630  0.41585094  0.31185172  1
  O  O330  1  0.94372525  0.41681797  0.56270371  1
  O  O331  1  0.94304498  0.41686549  0.81398099  1
  O  O332  1  0.94313832  0.75017340  0.06399233  1
  O  O333  1  0.94112670  0.75023491  0.31247201  1
  O  O334  1  0.94297967  0.74943369  0.56343836  1
  O  O335  1  0.94204208  0.74993894  0.81177483  1
  O  O336  1  0.19173296  0.08397472  0.06325934  1
  O  O337  1  0.19331338  0.08430480  0.31203168  1
  O  O338  1  0.19379010  0.08344758  0.56109188  1
  O  O339  1  0.19376191  0.08371961  0.81155001  1
  O  O340  1  0.19314588  0.41708357  0.06171131  1
  O  O341  1  0.19430741  0.41631838  0.31201296  1
  O  O342  1  0.19150849  0.41774215  0.56270720  1
  O  O343  1  0.19328628  0.41725002  0.81117385  1
  O  O344  1  0.19240090  0.74908403  0.06128933  1
  O  O345  1  0.19439269  0.74966950  0.31237307  1
  O  O346  1  0.19157026  0.74872226  0.56304538  1
  O  O347  1  0.19029007  0.74915153  0.81249160  1
  O  O348  1  0.69421093  0.08328552  0.06220058  1
  O  O349  1  0.69045172  0.08327854  0.31271931  1
  O  O350  1  0.69327725  0.08315711  0.56058565  1
  O  O351  1  0.69387142  0.08305422  0.81160690  1
  O  O352  1  0.69182355  0.41650962  0.06279856  1
  O  O353  1  0.69091780  0.41634191  0.31238760  1
  O  O354  1  0.69227767  0.41699083  0.56127191  1
  O  O355  1  0.69193095  0.41709669  0.81293092  1
  O  O356  1  0.69430198  0.74976527  0.06193941  1
  O  O357  1  0.69159637  0.75028970  0.31304938  1
  O  O358  1  0.69000516  0.74972629  0.56234968  1
  O  O359  1  0.69430792  0.74952535  0.81078863  1
  O  O360  1  0.30898232  0.25085223  0.18779458  1
  O  O361  1  0.31102874  0.25023354  0.43731743  1
  O  O362  1  0.30815312  0.25070646  0.68673153  1
  O  O363  1  0.30674407  0.25062000  0.93909286  1
  O  O364  1  0.30692171  0.58279071  0.18825039  1
  O  O365  1  0.30730830  0.58339154  0.43954318  1
  O  O366  1  0.30935560  0.58339111  0.68741091  1
  O  O367  1  0.30888216  0.58300360  0.93691856  1
  O  O368  1  0.30625425  0.91652777  0.18889289  1
  O  O369  1  0.30980134  0.91663966  0.43723196  1
  O  O370  1  0.30552821  0.91555798  0.68825690  1
  O  O371  1  0.30475784  0.91663936  0.93829908  1
  O  O372  1  0.80878379  0.24979901  0.18778648  1
  O  O373  1  0.80722719  0.25017698  0.43685764  1
  O  O374  1  0.80592997  0.25090450  0.68826869  1
  O  O375  1  0.80690991  0.24988040  0.93908665  1
  O  O376  1  0.80846381  0.58320188  0.18777915  1
  O  O377  1  0.80838632  0.58303926  0.43780191  1
  O  O378  1  0.80880204  0.58347857  0.68717458  1
  O  O379  1  0.80832871  0.58351989  0.93762022  1
  O  O380  1  0.80687893  0.91671253  0.18900656  1
  O  O381  1  0.80830272  0.91681913  0.43690528  1
  O  O382  1  0.80715850  0.91557848  0.68865931  1
  O  O383  1  0.80879305  0.91657145  0.93742782  1
  O  O384  1  0.23463800  0.24998788  0.04127828  1
  O  O385  1  0.23462075  0.25035541  0.28886051  1
  O  O386  1  0.23593865  0.25048850  0.53729567  1
  O  O387  1  0.23305756  0.25067709  0.78745328  1
  O  O388  1  0.23441115  0.58369572  0.03797508  1
  O  O389  1  0.23445512  0.58310676  0.29071529  1
  O  O390  1  0.23338326  0.58369549  0.54071354  1
  O  O391  1  0.23542478  0.58316110  0.78835665  1
  O  O392  1  0.23126946  0.91651513  0.03996497  1
  O  O393  1  0.23465402  0.91680581  0.29165302  1
  O  O394  1  0.23512116  0.91531411  0.53783368  1
  O  O395  1  0.23147907  0.91642579  0.78939051  1
  O  O396  1  0.73464192  0.24996952  0.04133484  1
  O  O397  1  0.73334541  0.25023100  0.28763270  1
  O  O398  1  0.73194125  0.24995798  0.53717297  1
  O  O399  1  0.73337739  0.25013930  0.79061344  1
  O  O400  1  0.73373473  0.58331308  0.03841675  1
  O  O401  1  0.73532301  0.58289411  0.28915310  1
  O  O402  1  0.73289841  0.58301369  0.53762457  1
  O  O403  1  0.73383869  0.58364781  0.78771342  1
  O  O404  1  0.73351560  0.91644847  0.03817108  1
  O  O405  1  0.73415677  0.91679473  0.29086401  1
  O  O406  1  0.73427666  0.91674969  0.53782533  1
  O  O407  1  0.73498993  0.91603655  0.79082880  1
  O  O408  1  0.26733570  0.08350300  0.21131289  1
  O  O409  1  0.26734656  0.08392735  0.45987461  1
  O  O410  1  0.26595838  0.08301602  0.70895017  1
  O  O411  1  0.26641554  0.08366499  0.96224461  1
  O  O412  1  0.26844756  0.41617284  0.21084407  1
  O  O413  1  0.26573357  0.41744316  0.46197089  1
  O  O414  1  0.26735889  0.41717111  0.71015830  1
  O  O415  1  0.26677134  0.41608956  0.96023598  1
  O  O416  1  0.26854137  0.75003801  0.21116475  1
  O  O417  1  0.26709058  0.74896540  0.46303233  1
  O  O418  1  0.26593299  0.74920605  0.71258774  1
  O  O419  1  0.26460767  0.75024656  0.95908845  1
  O  O420  1  0.76525995  0.08322603  0.21237903  1
  O  O421  1  0.76643398  0.08395764  0.45892278  1
  O  O422  1  0.76679142  0.08285808  0.70970845  1
  O  O423  1  0.76856215  0.08343270  0.96115819  1
  O  O424  1  0.76626042  0.41673414  0.21253208  1
  O  O425  1  0.76480243  0.41653730  0.45933251  1
  O  O426  1  0.76519755  0.41755671  0.71102434  1
  O  O427  1  0.76641674  0.41649485  0.96219358  1
  O  O428  1  0.76745776  0.74961762  0.21299285  1
  O  O429  1  0.76419038  0.74948777  0.46183706  1
  O  O430  1  0.76759311  0.74943309  0.70906733  1
  O  O431  1  0.76656444  0.74939000  0.95971851  1
  O  O432  1  0.01693510  0.08363029  0.16277442  1
  O  O433  1  0.01519276  0.08378787  0.41692171  1
  O  O434  1  0.01544127  0.08334550  0.66237494  1
  O  O435  1  0.01604571  0.08359315  0.91583074  1
  O  O436  1  0.01371570  0.41667559  0.16421286  1
  O  O437  1  0.01457343  0.41635961  0.41277033  1
  O  O438  1  0.01785136  0.41815114  0.66403487  1
  O  O439  1  0.01499950  0.41717935  0.91651390  1
  O  O440  1  0.01521493  0.74991592  0.16647117  1
  O  O441  1  0.01474570  0.74982046  0.41387238  1
  O  O442  1  0.01725725  0.74884365  0.66435293  1
  O  O443  1  0.01629365  0.74976300  0.91297599  1
  O  O444  1  0.51430630  0.08333572  0.16305448  1
  O  O445  1  0.51702226  0.08361984  0.41202199  1
  O  O446  1  0.51652946  0.08377127  0.66625840  1
  O  O447  1  0.51530844  0.08385036  0.91638566  1
  O  O448  1  0.51804326  0.41688221  0.16548365  1
  O  O449  1  0.51744841  0.41624044  0.41235693  1
  O  O450  1  0.51565490  0.41726357  0.66584915  1
  O  O451  1  0.51725597  0.41725279  0.91245511  1
  O  O452  1  0.51621413  0.74983113  0.16512930  1
  O  O453  1  0.51605944  0.74983468  0.41321461  1
  O  O454  1  0.51627257  0.74966590  0.66407406  1
  O  O455  1  0.51555804  0.74897887  0.91230053  1
  O  O456  1  0.48294768  0.25103262  0.08783463  1
  O  O457  1  0.48434348  0.24990304  0.33626384  1
  O  O458  1  0.48247165  0.25061491  0.58451443  1
  O  O459  1  0.48365408  0.25068248  0.83563837  1
  O  O460  1  0.48520528  0.58273573  0.08410731  1
  O  O461  1  0.48531633  0.58375948  0.33669947  1
  O  O462  1  0.48351201  0.58314842  0.58713494  1
  O  O463  1  0.48480295  0.58343544  0.83682094  1
  O  O464  1  0.48389526  0.91616214  0.08421719  1
  O  O465  1  0.48204839  0.91642031  0.33474245  1
  O  O466  1  0.48356679  0.91611970  0.58496563  1
  O  O467  1  0.48424403  0.91658025  0.83747824  1
  O  O468  1  0.98301352  0.25028281  0.08825605  1
  O  O469  1  0.98212047  0.24952986  0.33531218  1
  O  O470  1  0.98487898  0.25137876  0.58666212  1
  O  O471  1  0.98421538  0.25018701  0.83422882  1
  O  O472  1  0.98097667  0.58331737  0.08639071  1
  O  O473  1  0.98232781  0.58301913  0.33825849  1
  O  O474  1  0.98283443  0.58337925  0.58448737  1
  O  O475  1  0.98148246  0.58365396  0.83556443  1
  O  O476  1  0.98459961  0.91652340  0.08496382  1
  O  O477  1  0.98133350  0.91741204  0.33588237  1
  O  O478  1  0.98498399  0.91529393  0.58711423  1
  O  O479  1  0.98379737  0.91641815  0.83655240  1
  O  O480  1  0.08664126  0.31476686  0.07801852  1
  O  O481  1  0.08605294  0.31487895  0.32571915  1
  O  O482  1  0.08824723  0.31705905  0.57805366  1
  O  O483  1  0.08814803  0.31543209  0.82717579  1
  O  O484  1  0.08481308  0.64838721  0.07797891  1
  O  O485  1  0.08577530  0.64833932  0.32732508  1
  O  O486  1  0.08689307  0.64855772  0.57671707  1
  O  O487  1  0.08543464  0.64880023  0.82736532  1
  O  O488  1  0.08809460  0.98280665  0.07752290  1
  O  O489  1  0.08543008  0.98189464  0.32779043  1
  O  O490  1  0.08860725  0.97999168  0.57756612  1
  O  O491  1  0.08779600  0.98084360  0.82710793  1
  O  O492  1  0.58671467  0.31620351  0.07850980  1
  O  O493  1  0.58825716  0.31492960  0.32707279  1
  O  O494  1  0.58674816  0.31505670  0.57653509  1
  O  O495  1  0.58736870  0.31594014  0.82825525  1
  O  O496  1  0.58938228  0.64710615  0.07660619  1
  O  O497  1  0.58884035  0.64885622  0.32887127  1
  O  O498  1  0.58679813  0.64967044  0.57769413  1
  O  O499  1  0.58898998  0.64725602  0.82653228  1
  O  O500  1  0.58788974  0.98136176  0.07638532  1
  O  O501  1  0.58592222  0.98138970  0.32710899  1
  O  O502  1  0.58750283  0.98053689  0.57735926  1
  O  O503  1  0.58765771  0.98199496  0.82803056  1
  O  O504  1  0.41017046  0.01932986  0.17259636  1
  O  O505  1  0.41360381  0.01822894  0.42136256  1
  O  O506  1  0.41250173  0.01944090  0.67284322  1
  O  O507  1  0.41133389  0.01833060  0.92376460  1
  O  O508  1  0.41395304  0.35147184  0.17350646  1
  O  O509  1  0.41379411  0.35102597  0.42146785  1
  O  O510  1  0.41188749  0.35169074  0.67246420  1
  O  O511  1  0.41343201  0.35303394  0.92238508  1
  O  O512  1  0.41253703  0.68455433  0.17289756  1
  O  O513  1  0.41199016  0.68588263  0.42347410  1
  O  O514  1  0.41279220  0.68356795  0.67291582  1
  O  O515  1  0.41212402  0.68362162  0.92117145  1
  O  O516  1  0.91315857  0.01901084  0.17239699  1
  O  O517  1  0.91100136  0.01892997  0.42281698  1
  O  O518  1  0.91205315  0.01844909  0.67159361  1
  O  O519  1  0.91274437  0.01695179  0.92280979  1
  O  O520  1  0.90993371  0.35155321  0.17256828  1
  O  O521  1  0.91139811  0.35051920  0.42170322  1
  O  O522  1  0.91405178  0.35312794  0.67269313  1
  O  O523  1  0.91083406  0.35274101  0.92329106  1
  O  O524  1  0.91134882  0.68417406  0.17273741  1
  O  O525  1  0.91092545  0.68511028  0.42204170  1
  O  O526  1  0.91333441  0.68320081  0.67250653  1
  O  O527  1  0.91230325  0.68526428  0.92153107  1
  O  O528  1  0.16254478  0.01998413  0.20257577  1
  O  O529  1  0.16386295  0.01825505  0.45177204  1
  O  O530  1  0.16199075  0.01825476  0.70284416  1
  O  O531  1  0.16292402  0.01801715  0.95360093  1
  O  O532  1  0.16459099  0.35054533  0.20278761  1
  O  O533  1  0.16187413  0.35343374  0.45252063  1
  O  O534  1  0.16347430  0.35149460  0.70164301  1
  O  O535  1  0.16268926  0.35175301  0.95270168  1
  O  O536  1  0.16477178  0.68477703  0.20264430  1
  O  O537  1  0.16371437  0.68305817  0.45306240  1
  O  O538  1  0.16184725  0.68517202  0.70212480  1
  O  O539  1  0.16059443  0.68546381  0.95147077  1
  O  O540  1  0.66135954  0.01909574  0.20270955  1
  O  O541  1  0.66239814  0.01897251  0.45091725  1
  O  O542  1  0.66317688  0.01774788  0.70237678  1
  O  O543  1  0.66495570  0.01762005  0.95268367  1
  O  O544  1  0.66291375  0.35065710  0.20218351  1
  O  O545  1  0.66070163  0.35192023  0.45206432  1
  O  O546  1  0.66144220  0.35287171  0.70314721  1
  O  O547  1  0.66215654  0.35249684  0.95263661  1
  O  O548  1  0.66382708  0.68498742  0.20299727  1
  O  O549  1  0.66084675  0.68348842  0.45277035  1
  O  O550  1  0.66346900  0.68399798  0.70164724  1
  O  O551  1  0.66273865  0.68462774  0.95284565  1
  O  O552  1  0.33905817  0.31419903  0.04866061  1
  O  O553  1  0.33870028  0.31530371  0.29781260  1
  O  O554  1  0.33961384  0.31531215  0.54740285  1
  O  O555  1  0.33643847  0.31647793  0.79664111  1
  O  O556  1  0.33813593  0.64839527  0.04651731  1
  O  O557  1  0.33835930  0.64797692  0.29726681  1
  O  O558  1  0.33745402  0.64921564  0.54878253  1
  O  O559  1  0.33918459  0.64825583  0.79727496  1
  O  O560  1  0.33494015  0.98220503  0.04758875  1
  O  O561  1  0.33864457  0.98200895  0.29757684  1
  O  O562  1  0.33843437  0.98060305  0.54747236  1
  O  O563  1  0.33572976  0.98042030  0.79755456  1
  O  O564  1  0.83851292  0.31505154  0.04807896  1
  O  O565  1  0.83679377  0.31587359  0.29778319  1
  O  O566  1  0.83575126  0.31424598  0.54733730  1
  O  O567  1  0.83691428  0.31556883  0.79751526  1
  O  O568  1  0.83799878  0.64720625  0.04790203  1
  O  O569  1  0.83897110  0.64810942  0.29766183  1
  O  O570  1  0.83687908  0.64775818  0.54802877  1
  O  O571  1  0.83719268  0.64971842  0.79702611  1
  O  O572  1  0.83682717  0.98237168  0.04744746  1
  O  O573  1  0.83850546  0.98094012  0.29819294  1
  O  O574  1  0.83725339  0.98331353  0.54615921  1
  O  O575  1  0.83978742  0.97937508  0.79803396  1
  O  O576  1  0.41107003  0.14947236  0.17212590  1
  O  O577  1  0.41342826  0.14846692  0.42111373  1
  O  O578  1  0.41306129  0.14983253  0.67204535  1
  O  O579  1  0.41100791  0.14833592  0.92329747  1
  O  O580  1  0.41382727  0.48133041  0.17362628  1
  O  O581  1  0.41393838  0.48107713  0.42243165  1
  O  O582  1  0.41152506  0.48188373  0.67260386  1
  O  O583  1  0.41409293  0.48316745  0.92186748  1
  O  O584  1  0.41202453  0.81455222  0.17265953  1
  O  O585  1  0.41264213  0.81593910  0.42257643  1
  O  O586  1  0.41192628  0.81360518  0.67347515  1
  O  O587  1  0.41203362  0.81385078  0.92233059  1
  O  O588  1  0.91326730  0.14897580  0.17235322  1
  O  O589  1  0.91123309  0.14919184  0.42270864  1
  O  O590  1  0.91217883  0.14882334  0.67195216  1
  O  O591  1  0.91145413  0.14711955  0.92304599  1
  O  O592  1  0.90986165  0.48169127  0.17228244  1
  O  O593  1  0.91072869  0.48089277  0.42160693  1
  O  O594  1  0.91382474  0.48316135  0.67157493  1
  O  O595  1  0.91104414  0.48286641  0.92248845  1
  O  O596  1  0.91091624  0.81421376  0.17316175  1
  O  O597  1  0.91141913  0.81544049  0.42215447  1
  O  O598  1  0.91309187  0.81311642  0.67357564  1
  O  O599  1  0.91314097  0.81548378  0.92173074  1
  O  O600  1  0.08640125  0.18454758  0.07821356  1
  O  O601  1  0.08652638  0.18496291  0.32648682  1
  O  O602  1  0.08850399  0.18673711  0.57723307  1
  O  O603  1  0.08834162  0.18540357  0.82701697  1
  O  O604  1  0.08475202  0.51821360  0.07743758  1
  O  O605  1  0.08591119  0.51822845  0.32723988  1
  O  O606  1  0.08712515  0.51847780  0.57662409  1
  O  O607  1  0.08544336  0.51894953  0.82720341  1
  O  O608  1  0.08890124  0.85258489  0.07760074  1
  O  O609  1  0.08500492  0.85180684  0.32723908  1
  O  O610  1  0.08830400  0.84961482  0.57855134  1
  O  O611  1  0.08740420  0.85072593  0.82777949  1
  O  O612  1  0.58641533  0.18607839  0.07761670  1
  O  O613  1  0.58806942  0.18478472  0.32677381  1
  O  O614  1  0.58634550  0.18510299  0.57625840  1
  O  O615  1  0.58722251  0.18563282  0.82804922  1
  O  O616  1  0.58890421  0.51699231  0.07763934  1
  O  O617  1  0.58882139  0.51857559  0.32864854  1
  O  O618  1  0.58800753  0.51976324  0.57747778  1
  O  O619  1  0.58818453  0.51728550  0.82721768  1
  O  O620  1  0.58811183  0.85135526  0.07654967  1
  O  O621  1  0.58579297  0.85107192  0.32728488  1
  O  O622  1  0.58703755  0.85033234  0.57797095  1
  O  O623  1  0.58783959  0.85173459  0.82767517  1
  O  O624  1  0.33834796  0.18422634  0.04779182  1
  O  O625  1  0.33848248  0.18506749  0.29724831  1
  O  O626  1  0.33964130  0.18539639  0.54759421  1
  O  O627  1  0.33675324  0.18623517  0.79688993  1
  O  O628  1  0.33791976  0.51833902  0.04691092  1
  O  O629  1  0.33811522  0.51765923  0.29745969  1
  O  O630  1  0.33778060  0.51932060  0.54893822  1
  O  O631  1  0.33927317  0.51803462  0.79705109  1
  O  O632  1  0.33536840  0.85220500  0.04763079  1
  O  O633  1  0.33877980  0.85176122  0.29784057  1
  O  O634  1  0.33864463  0.85027383  0.54677790  1
  O  O635  1  0.33487645  0.85025349  0.79789505  1
  O  O636  1  0.83868053  0.18488076  0.04831160  1
  O  O637  1  0.83734010  0.18586157  0.29817566  1
  O  O638  1  0.83552707  0.18413893  0.54645650  1
  O  O639  1  0.83738094  0.18544805  0.79711227  1
  O  O640  1  0.83697767  0.51713984  0.04727932  1
  O  O641  1  0.83898703  0.51788075  0.29736436  1
  O  O642  1  0.83656827  0.51786894  0.54797775  1
  O  O643  1  0.83799087  0.51971409  0.79764577  1
  O  O644  1  0.83739530  0.85220437  0.04733853  1
  O  O645  1  0.83774934  0.85086473  0.29818504  1
  O  O646  1  0.83821308  0.85292902  0.54698970  1
  O  O647  1  0.83821615  0.84929978  0.79743594  1
  O  O648  1  0.16395496  0.15007644  0.20233763  1
  O  O649  1  0.16344732  0.14853655  0.45185430  1
  O  O650  1  0.16250292  0.14872818  0.70239246  1
  O  O651  1  0.16276153  0.14817255  0.95308379  1
  O  O652  1  0.16426247  0.48067237  0.20239026  1
  O  O653  1  0.16262528  0.48373795  0.45318265  1
  O  O654  1  0.16307233  0.48145968  0.70155009  1
  O  O655  1  0.16337616  0.48193289  0.95204698  1
  O  O656  1  0.16446259  0.81491619  0.20335637  1
  O  O657  1  0.16317706  0.81317047  0.45259223  1
  O  O658  1  0.16250649  0.81527153  0.70254172  1
  O  O659  1  0.16061282  0.81557199  0.95280323  1
  O  O660  1  0.66212883  0.14933166  0.20288803  1
  O  O661  1  0.66221028  0.14894217  0.45153124  1
  O  O662  1  0.66305886  0.14796986  0.70231843  1
  O  O663  1  0.66456154  0.14783000  0.95275897  1
  O  O664  1  0.66219854  0.48063814  0.20213462  1
  O  O665  1  0.66110865  0.48211037  0.45202744  1
  O  O666  1  0.66175672  0.48301928  0.70357407  1
  O  O667  1  0.66302446  0.48255120  0.95291308  1
  O  O668  1  0.66410557  0.81507283  0.20278521  1
  O  O669  1  0.66008551  0.81354768  0.45196948  1
  O  O670  1  0.66324236  0.81392770  0.70139964  1
  O  O671  1  0.66295599  0.81486240  0.95270258  1
