# generated using pymatgen
data_Na2MnFe(PO4)2
_symmetry_space_group_name_H-M   'P 1'
_cell_length_a   21.08728378
_cell_length_b   18.94046166
_cell_length_c   20.04600927
_cell_angle_alpha   90.00008262
_cell_angle_beta   90.00398509
_cell_angle_gamma   90.00056611
_symmetry_Int_Tables_number   1
_chemical_formula_structural   Na2MnFe(PO4)2
_chemical_formula_sum   'Na96 Mn48 Fe48 P96 O384'
_cell_volume   8006.43401803
_cell_formula_units_Z   48
loop_
 _symmetry_equiv_pos_site_id
 _symmetry_equiv_pos_as_xyz
  1  'x, y, z'
loop_
 _atom_site_type_symbol
 _atom_site_label
 _atom_site_symmetry_multiplicity
 _atom_site_fract_x
 _atom_site_fract_y
 _atom_site_fract_z
 _atom_site_occupancy
  Na  Na0  1  -0.00060818  0.00011468  0.00034091  1
  Na  Na1  1  0.00093474  0.00071520  0.24988676  1
  Na  Na2  1  0.00187354  0.00011248  0.50005969  1
  Na  Na3  1  -0.00006168  -0.00036241  0.74954870  1
  Na  Na4  1  -0.00087881  0.33373730  0.00063155  1
  Na  Na5  1  -0.00001174  0.33379833  0.25000237  1
  Na  Na6  1  -0.00013265  0.33417634  0.49926382  1
  Na  Na7  1  0.00031478  0.33471895  0.74965622  1
  Na  Na8  1  -0.00083757  0.66590609  -0.00011375  1
  Na  Na9  1  0.00020723  0.66608989  0.24963709  1
  Na  Na10  1  -0.00058011  0.66598150  0.50136900  1
  Na  Na11  1  -0.00189441  0.66551631  0.75065154  1
  Na  Na12  1  0.49893643  -0.00034787  -0.00052890  1
  Na  Na13  1  0.49679205  -0.00110880  0.25128291  1
  Na  Na14  1  0.49779069  -0.00041148  0.50008799  1
  Na  Na15  1  0.49937768  -0.00025394  0.74889937  1
  Na  Na16  1  0.50091655  0.33409723  0.00049589  1
  Na  Na17  1  0.50196523  0.33478647  0.24984602  1
  Na  Na18  1  0.49787399  0.33353917  0.49962674  1
  Na  Na19  1  0.49698723  0.33313708  0.75010959  1
  Na  Na20  1  0.50337524  0.66758067  -0.00108505  1
  Na  Na21  1  0.50128686  0.66662596  0.25022802  1
  Na  Na22  1  0.49976371  0.66681733  0.50015947  1
  Na  Na23  1  0.50010760  0.66667290  0.75032782  1
  Na  Na24  1  0.24965049  0.00004527  0.12452298  1
  Na  Na25  1  0.25281948  0.00109724  0.37455443  1
  Na  Na26  1  0.25305928  0.00008874  0.62446012  1
  Na  Na27  1  0.25116795  -0.00031265  0.87574171  1
  Na  Na28  1  0.24819446  0.33357702  0.12346797  1
  Na  Na29  1  0.25011492  0.33390800  0.37546730  1
  Na  Na30  1  0.25098812  0.33424560  0.62608216  1
  Na  Na31  1  0.24931039  0.33386363  0.87508150  1
  Na  Na32  1  0.24926701  0.66645495  0.12557774  1
  Na  Na33  1  0.25014847  0.66638825  0.37460967  1
  Na  Na34  1  0.25108459  0.66721735  0.62504880  1
  Na  Na35  1  0.24842085  0.66562158  0.87507489  1
  Na  Na36  1  0.75124135  0.00038926  0.12468735  1
  Na  Na37  1  0.75035858  0.00072296  0.37510272  1
  Na  Na38  1  0.74757808  -0.00157189  0.62507110  1
  Na  Na39  1  0.75177013  0.00052649  0.87528333  1
  Na  Na40  1  0.75063003  0.33410706  0.12539457  1
  Na  Na41  1  0.74992093  0.33383670  0.37400475  1
  Na  Na42  1  0.75153275  0.33505670  0.62505801  1
  Na  Na43  1  0.75053195  0.33416985  0.87577604  1
  Na  Na44  1  0.74925921  0.66610949  0.12519939  1
  Na  Na45  1  0.74944018  0.66622475  0.37413602  1
  Na  Na46  1  0.75239212  0.66736238  0.62505332  1
  Na  Na47  1  0.75063438  0.66652770  0.87519832  1
  Na  Na48  1  -0.00190770  0.16730653  0.00109221  1
  Na  Na49  1  0.00115195  0.16613421  0.24994443  1
  Na  Na50  1  0.00199189  0.16622018  0.49943771  1
  Na  Na51  1  -0.00047882  0.16688101  0.75012966  1
  Na  Na52  1  0.00024857  0.49972669  0.00029603  1
  Na  Na53  1  -0.00103761  0.50024431  0.24966628  1
  Na  Na54  1  -0.00239698  0.50081442  0.50018340  1
  Na  Na55  1  -0.00097638  0.50027111  0.75025593  1
  Na  Na56  1  -0.00113304  0.83381291  -0.00053870  1
  Na  Na57  1  0.00148273  0.83276710  0.24987110  1
  Na  Na58  1  0.00161016  0.83289954  0.50102846  1
  Na  Na59  1  -0.00065469  0.83384334  0.74931581  1
  Na  Na60  1  0.49935849  0.16744334  0.00022092  1
  Na  Na61  1  0.50028933  0.16690989  0.25015316  1
  Na  Na62  1  0.49745376  0.16722930  0.49908665  1
  Na  Na63  1  0.49707483  0.16751034  0.74967331  1
  Na  Na64  1  0.50255004  0.49875691  -0.00065982  1
  Na  Na65  1  0.50049062  0.49954558  0.25041296  1
  Na  Na66  1  0.49956654  0.49913621  0.50011769  1
  Na  Na67  1  0.49986363  0.49964006  0.75049107  1
  Na  Na68  1  0.50139635  0.83215178  -0.00076164  1
  Na  Na69  1  0.49958032  0.83269139  0.25091162  1
  Na  Na70  1  0.49829669  0.83356521  0.50054720  1
  Na  Na71  1  0.49869354  0.83371138  0.74907343  1
  Na  Na72  1  0.24917946  0.16702055  0.12408481  1
  Na  Na73  1  0.25008531  0.16696938  0.37450505  1
  Na  Na74  1  0.25334319  0.16555943  0.62545630  1
  Na  Na75  1  0.25220019  0.16608495  0.87539222  1
  Na  Na76  1  0.24664795  0.50052525  0.12448715  1
  Na  Na77  1  0.25047320  0.49890877  0.37529702  1
  Na  Na78  1  0.24985587  0.49934970  0.62563941  1
  Na  Na79  1  0.24708406  0.50007259  0.87543946  1
  Na  Na80  1  0.25099477  0.83260707  0.12509205  1
  Na  Na81  1  0.25206576  0.83261679  0.37489332  1
  Na  Na82  1  0.25214564  0.83303057  0.62449241  1
  Na  Na83  1  0.25130876  0.83293669  0.87485139  1
  Na  Na84  1  0.75228361  0.16628465  0.12496379  1
  Na  Na85  1  0.74852151  0.16781102  0.37472502  1
  Na  Na86  1  0.75014283  0.16638202  0.62479916  1
  Na  Na87  1  0.75179648  0.16653867  0.87498347  1
  Na  Na88  1  0.75084933  0.49973223  0.12533288  1
  Na  Na89  1  0.75217126  0.49966471  0.37445065  1
  Na  Na90  1  0.75217150  0.49964004  0.62496973  1
  Na  Na91  1  0.75166572  0.49956473  0.87482447  1
  Na  Na92  1  0.74874163  0.83320633  0.12468259  1
  Na  Na93  1  0.74701850  0.83426601  0.37454359  1
  Na  Na94  1  0.74949305  0.83283319  0.62529580  1
  Na  Na95  1  0.74931624  0.83316493  0.87642568  1
  Mn  Mn96  1  0.64137968  0.25033512  0.49803977  1
  Mn  Mn97  1  0.14211868  0.58355051  0.49784009  1
  Mn  Mn98  1  0.64343225  0.58356975  0.74780183  1
  Mn  Mn99  1  0.14310179  0.24947596  0.74775175  1
  Mn  Mn100  1  0.85777670  0.75052025  0.25293576  1
  Mn  Mn101  1  0.39235921  0.25087396  0.12782309  1
  Mn  Mn102  1  0.39229302  0.58312979  0.87769728  1
  Mn  Mn103  1  0.60746689  0.74984762  0.62295504  1
  Mn  Mn104  1  0.39229736  0.91601511  0.12730940  1
  Mn  Mn105  1  0.14337189  0.91676552  0.24803018  1
  Mn  Mn106  1  0.14320616  0.24966569  0.49831352  1
  Mn  Mn107  1  0.60640919  0.08392652  0.62288841  1
  Mn  Mn108  1  0.39240913  0.58291823  0.12655245  1
  Mn  Mn109  1  0.89178284  0.91651660  0.62714358  1
  Mn  Mn110  1  0.85706015  0.74980090  0.00232317  1
  Mn  Mn111  1  0.85797628  0.08330992  0.50190030  1
  Mn  Mn112  1  0.39179616  0.25025048  0.37602245  1
  Mn  Mn113  1  0.89219307  0.25020713  0.62700371  1
  Mn  Mn114  1  0.10735569  0.08348098  0.87237677  1
  Mn  Mn115  1  0.89277733  0.91579795  0.37751415  1
  Mn  Mn116  1  0.64145418  0.91791728  0.24777171  1
  Mn  Mn117  1  0.35829559  0.74879682  0.00190646  1
  Mn  Mn118  1  0.10717452  0.75018344  0.87205445  1
  Mn  Mn119  1  0.14126522  0.25029593  0.99739453  1
  Mn  Mn120  1  0.64218888  0.91705766  0.99728720  1
  Mn  Mn121  1  0.14196460  0.91598567  0.99713131  1
  Mn  Mn122  1  0.35706514  0.41744845  0.00208120  1
  Mn  Mn123  1  0.60771735  0.08346464  0.87259082  1
  Mn  Mn124  1  0.10773001  0.41700484  0.37265920  1
  Mn  Mn125  1  0.89267840  0.24992494  0.37735683  1
  Mn  Mn126  1  0.64295095  0.58333172  0.49808639  1
  Mn  Mn127  1  0.10804173  0.74948639  0.62348135  1
  Mn  Mn128  1  0.89202809  0.24988544  0.87735296  1
  Mn  Mn129  1  0.60796750  0.08326381  0.12303115  1
  Mn  Mn130  1  0.85775438  0.08284934  0.75180822  1
  Mn  Mn131  1  0.64319593  0.25024184  0.99772195  1
  Mn  Mn132  1  0.60730930  0.41624290  0.62312894  1
  Mn  Mn133  1  0.64251154  0.58278387  0.24768190  1
  Mn  Mn134  1  0.10934520  0.08394963  0.62319254  1
  Mn  Mn135  1  0.10814223  0.75001995  0.12270264  1
  Mn  Mn136  1  0.39148380  0.58308361  0.62793503  1
  Mn  Mn137  1  0.89224746  0.91663818  0.12796422  1
  Mn  Mn138  1  0.14396620  0.91661503  0.49776069  1
  Mn  Mn139  1  0.35797543  0.08337506  0.00259637  1
  Mn  Mn140  1  0.60691568  0.08350649  0.37253813  1
  Mn  Mn141  1  0.39182074  0.58315520  0.37675700  1
  Mn  Mn142  1  0.85777235  0.75039537  0.50142451  1
  Mn  Mn143  1  0.64166240  0.24976241  0.74753875  1
  Fe  Fe144  1  0.35779783  0.08297303  0.75255641  1
  Fe  Fe145  1  0.89319224  0.58423877  0.37638606  1
  Fe  Fe146  1  0.60731482  0.74950854  0.12377431  1
  Fe  Fe147  1  0.89228558  0.91631384  0.87607150  1
  Fe  Fe148  1  0.10636096  0.41639079  0.12392242  1
  Fe  Fe149  1  0.39276117  0.91671812  0.62774956  1
  Fe  Fe150  1  0.35775462  0.74932112  0.50169258  1
  Fe  Fe151  1  0.89301365  0.58349833  0.87732056  1
  Fe  Fe152  1  0.85803393  0.08366108  0.00223792  1
  Fe  Fe153  1  0.35688591  0.41666976  0.25066626  1
  Fe  Fe154  1  0.35758194  0.08366567  0.50165554  1
  Fe  Fe155  1  0.39276417  0.25035499  0.87687710  1
  Fe  Fe156  1  0.35754096  0.41673904  0.50217070  1
  Fe  Fe157  1  0.60755562  0.41695314  0.37331633  1
  Fe  Fe158  1  0.85744087  0.41653644  0.00231655  1
  Fe  Fe159  1  0.10687490  0.41673997  0.62371099  1
  Fe  Fe160  1  0.10689477  0.08375181  0.12345877  1
  Fe  Fe161  1  0.89288385  0.58315636  0.12678517  1
  Fe  Fe162  1  0.35621186  0.41725124  0.75278456  1
  Fe  Fe163  1  0.39303427  0.91662649  0.87614460  1
  Fe  Fe164  1  0.64351798  0.58266270  0.99832974  1
  Fe  Fe165  1  0.85732548  0.41631024  0.50155919  1
  Fe  Fe166  1  0.14251280  0.25061726  0.24821001  1
  Fe  Fe167  1  0.14363125  0.91635463  0.74865561  1
  Fe  Fe168  1  0.14121359  0.58376196  0.99824633  1
  Fe  Fe169  1  0.60771918  0.41657737  0.87292574  1
  Fe  Fe170  1  0.39252422  0.91607468  0.37676332  1
  Fe  Fe171  1  0.85787379  0.41680913  0.75238042  1
  Fe  Fe172  1  0.14232077  0.58276260  0.24864771  1
  Fe  Fe173  1  0.10857422  0.74996332  0.37360478  1
  Fe  Fe174  1  0.10880936  0.08283214  0.37250392  1
  Fe  Fe175  1  0.35705999  0.74942098  0.75214379  1
  Fe  Fe176  1  0.85731279  0.75045212  0.75225765  1
  Fe  Fe177  1  0.64251342  0.91655294  0.74886111  1
  Fe  Fe178  1  0.10600131  0.41660866  0.87313106  1
  Fe  Fe179  1  0.35793946  0.74899178  0.25195210  1
  Fe  Fe180  1  0.60817722  0.41728984  0.12321417  1
  Fe  Fe181  1  0.85728801  0.41618194  0.25172654  1
  Fe  Fe182  1  0.60650241  0.74947829  0.37371106  1
  Fe  Fe183  1  0.64339759  0.24993517  0.24813470  1
  Fe  Fe184  1  0.39151175  0.25015342  0.62711372  1
  Fe  Fe185  1  0.85795327  0.08361429  0.25225355  1
  Fe  Fe186  1  0.60741802  0.75006804  0.87218910  1
  Fe  Fe187  1  0.89299123  0.25045757  0.12758943  1
  Fe  Fe188  1  0.64131321  0.91662223  0.49836094  1
  Fe  Fe189  1  0.35670872  0.08407152  0.25114829  1
  Fe  Fe190  1  0.89284839  0.58333901  0.62719737  1
  Fe  Fe191  1  0.14220451  0.58369145  0.74860356  1
  P  P192  1  0.05342738  0.25034997  0.11169474  1
  P  P193  1  0.05469073  0.24960454  0.35937920  1
  P  P194  1  0.05372696  0.25122639  0.60998131  1
  P  P195  1  0.05278204  0.25089310  0.85987613  1
  P  P196  1  0.05394748  0.58236301  0.11091598  1
  P  P197  1  0.05305081  0.58386027  0.35969363  1
  P  P198  1  0.05360028  0.58240111  0.61167938  1
  P  P199  1  0.05353558  0.58265055  0.86069420  1
  P  P200  1  0.05374853  0.91747004  0.11010460  1
  P  P201  1  0.05441895  0.91628299  0.36018961  1
  P  P202  1  0.05536324  0.91663666  0.61118337  1
  P  P203  1  0.05237547  0.91668181  0.85901274  1
  P  P204  1  0.55515200  0.25091527  0.11118718  1
  P  P205  1  0.55400286  0.25116445  0.35924208  1
  P  P206  1  0.55066675  0.25019708  0.60988342  1
  P  P207  1  0.55231036  0.25080152  0.86004980  1
  P  P208  1  0.55440701  0.58294144  0.10929867  1
  P  P209  1  0.55363242  0.58290421  0.36048372  1
  P  P210  1  0.55313661  0.58301190  0.61015718  1
  P  P211  1  0.55520555  0.58294513  0.86104841  1
  P  P212  1  0.55317598  0.91599138  0.10995503  1
  P  P213  1  0.55277490  0.91589394  0.36157271  1
  P  P214  1  0.55339851  0.91670808  0.61067649  1
  P  P215  1  0.55280508  0.91615297  0.85898472  1
  P  P216  1  0.44621748  0.08358187  0.14098989  1
  P  P217  1  0.44407751  0.08312586  0.38894925  1
  P  P218  1  0.44390119  0.08340639  0.63919678  1
  P  P219  1  0.44529277  0.08319057  0.88868533  1
  P  P220  1  0.44773884  0.41726841  0.14033866  1
  P  P221  1  0.44571861  0.41663564  0.38893881  1
  P  P222  1  0.44417361  0.41616011  0.64012127  1
  P  P223  1  0.44651057  0.41633766  0.88918009  1
  P  P224  1  0.44760109  0.74901351  0.14041810  1
  P  P225  1  0.44566685  0.74981603  0.38951933  1
  P  P226  1  0.44459345  0.75029244  0.63973667  1
  P  P227  1  0.44661657  0.75039204  0.88837188  1
  P  P228  1  0.94594400  0.08429036  0.13984309  1
  P  P229  1  0.94775655  0.08315827  0.38898781  1
  P  P230  1  0.94744695  0.08333631  0.63982443  1
  P  P231  1  0.94577235  0.08226229  0.89061591  1
  P  P232  1  0.94548014  0.41684971  0.13928787  1
  P  P233  1  0.94486772  0.41767938  0.38902603  1
  P  P234  1  0.94569919  0.41738865  0.63935760  1
  P  P235  1  0.94554054  0.41761451  0.88983324  1
  P  P236  1  0.94657913  0.74906509  0.13998933  1
  P  P237  1  0.94890911  0.74923973  0.39014319  1
  P  P238  1  0.94578110  0.74935396  0.64074357  1
  P  P239  1  0.94503919  0.75006927  0.88872650  1
  P  P240  1  0.19619173  0.08425977  0.23523065  1
  P  P241  1  0.19833298  0.08322059  0.48448010  1
  P  P242  1  0.19892827  0.08227546  0.73555719  1
  P  P243  1  0.19515846  0.08347430  0.98571687  1
  P  P244  1  0.19659012  0.41652663  0.23450379  1
  P  P245  1  0.19677621  0.41663538  0.48658272  1
  P  P246  1  0.19518542  0.41736033  0.73613811  1
  P  P247  1  0.19343247  0.41753865  0.98545473  1
  P  P248  1  0.19707370  0.74919220  0.23644240  1
  P  P249  1  0.19794450  0.74993860  0.48463908  1
  P  P250  1  0.19790787  0.75012245  0.73531757  1
  P  P251  1  0.19640525  0.74908937  0.98462060  1
  P  P252  1  0.69803881  0.08432575  0.23498514  1
  P  P253  1  0.69588053  0.08275591  0.48499121  1
  P  P254  1  0.69631803  0.08241910  0.73499154  1
  P  P255  1  0.69840429  0.08385374  0.98500039  1
  P  P256  1  0.69623594  0.41617529  0.23568769  1
  P  P257  1  0.69733559  0.41709927  0.48433669  1
  P  P258  1  0.69709586  0.41693616  0.73605108  1
  P  P259  1  0.69649433  0.41757681  0.98575758  1
  P  P260  1  0.69463452  0.74999668  0.23560442  1
  P  P261  1  0.69571937  0.75038091  0.48433566  1
  P  P262  1  0.69674077  0.75068485  0.73634220  1
  P  P263  1  0.69421228  0.74867130  0.98571943  1
  P  P264  1  0.30432253  0.25069198  0.01399488  1
  P  P265  1  0.30168881  0.25095855  0.26407365  1
  P  P266  1  0.30438926  0.25029190  0.51538900  1
  P  P267  1  0.30527689  0.25044072  0.76489843  1
  P  P268  1  0.30122989  0.58303510  0.01518801  1
  P  P269  1  0.30207051  0.58230002  0.26428900  1
  P  P270  1  0.30339380  0.58320846  0.51498059  1
  P  P271  1  0.30185182  0.58301213  0.76542641  1
  P  P272  1  0.30462802  0.91601599  0.01401083  1
  P  P273  1  0.30471782  0.91649553  0.26515999  1
  P  P274  1  0.30639611  0.91628045  0.51400061  1
  P  P275  1  0.30443842  0.91622847  0.76450618  1
  P  P276  1  0.80483842  0.25064391  0.01589120  1
  P  P277  1  0.80421264  0.25017159  0.26369394  1
  P  P278  1  0.80302527  0.25083434  0.51468267  1
  P  P279  1  0.80318119  0.25096778  0.76503344  1
  P  P280  1  0.80434471  0.58249431  0.01453437  1
  P  P281  1  0.80561166  0.58261236  0.26414769  1
  P  P282  1  0.80576693  0.58287676  0.51413621  1
  P  P283  1  0.80603731  0.58354384  0.76450838  1
  P  P284  1  0.80460425  0.91706531  0.01409226  1
  P  P285  1  0.80318028  0.91750402  0.26535668  1
  P  P286  1  0.80149875  0.91640593  0.51486211  1
  P  P287  1  0.80248131  0.91561211  0.76565731  1
  O  O288  1  0.05831842  0.25039956  0.18833429  1
  O  O289  1  0.05793705  0.25032118  0.43614866  1
  O  O290  1  0.05695299  0.25042329  0.68675041  1
  O  O291  1  0.05525767  0.25017428  0.93668587  1
  O  O292  1  0.05894041  0.58304171  0.18759625  1
  O  O293  1  0.05640216  0.58305435  0.43647284  1
  O  O294  1  0.05859537  0.58325343  0.68834792  1
  O  O295  1  0.05776042  0.58366034  0.93740984  1
  O  O296  1  0.05745291  0.91684065  0.18683904  1
  O  O297  1  0.05751138  0.91638066  0.43697992  1
  O  O298  1  0.06025080  0.91670305  0.68790579  1
  O  O299  1  0.05616215  0.91641924  0.93574681  1
  O  O300  1  0.55967320  0.25011608  0.18790565  1
  O  O301  1  0.55628244  0.25038187  0.43605119  1
  O  O302  1  0.55496253  0.25031020  0.68655592  1
  O  O303  1  0.55657595  0.25038499  0.93675355  1
  O  O304  1  0.55687570  0.58252748  0.18612435  1
  O  O305  1  0.55649446  0.58274280  0.43718340  1
  O  O306  1  0.55695571  0.58308805  0.68691221  1
  O  O307  1  0.55940688  0.58267321  0.93773804  1
  O  O308  1  0.55568762  0.91702032  0.18678978  1
  O  O309  1  0.55720772  0.91677862  0.43825790  1
  O  O310  1  0.55861867  0.91643302  0.68729758  1
  O  O311  1  0.55655148  0.91673446  0.93573369  1
  O  O312  1  0.44340496  0.08389382  0.06414536  1
  O  O313  1  0.43982992  0.08419501  0.31220607  1
  O  O314  1  0.44065139  0.08344104  0.56235462  1
  O  O315  1  0.44149832  0.08296378  0.81185040  1
  O  O316  1  0.44325855  0.41709461  0.06368249  1
  O  O317  1  0.44060747  0.41677630  0.31229952  1
  O  O318  1  0.44034596  0.41716693  0.56326162  1
  O  O319  1  0.44093493  0.41753967  0.81258350  1
  O  O320  1  0.44401898  0.74890419  0.06366677  1
  O  O321  1  0.44103274  0.74882805  0.31277973  1
  O  O322  1  0.44087557  0.74919244  0.56295312  1
  O  O323  1  0.44108120  0.74930162  0.81175168  1
  O  O324  1  0.94119218  0.08359672  0.06313480  1
  O  O325  1  0.94219933  0.08341632  0.31234339  1
  O  O326  1  0.94420102  0.08306004  0.56303307  1
  O  O327  1  0.94297450  0.08309359  0.81380069  1
  O  O328  1  0.94141264  0.41684244  0.06256227  1
  O  O329  1  0.94103772  0.41637408  0.31226135  1
  O  O330  1  0.94136172  0.41655555  0.56265022  1
  O  O331  1  0.94132636  0.41685251  0.81309429  1
  O  O332  1  0.94310724  0.74965623  0.06323331  1
  O  O333  1  0.94478108  0.75006914  0.31349342  1
  O  O334  1  0.94305961  0.75035053  0.56396167  1
  O  O335  1  0.94142398  0.75032526  0.81199562  1
  O  O336  1  0.19031996  0.08374194  0.06247855  1
  O  O337  1  0.19209693  0.08345386  0.31200978  1
  O  O338  1  0.19472822  0.08302555  0.56122114  1
  O  O339  1  0.19466481  0.08295950  0.81220670  1
  O  O340  1  0.18915945  0.41648819  0.06220652  1
  O  O341  1  0.19363704  0.41651051  0.31135776  1
  O  O342  1  0.19164124  0.41684907  0.56317536  1
  O  O343  1  0.19017065  0.41672471  0.81279943  1
  O  O344  1  0.19344778  0.74993821  0.06143289  1
  O  O345  1  0.19226134  0.74974990  0.31309065  1
  O  O346  1  0.19380580  0.74992713  0.56131008  1
  O  O347  1  0.19388682  0.75010773  0.81196823  1
  O  O348  1  0.69420825  0.08363202  0.06163749  1
  O  O349  1  0.69338152  0.08373715  0.31162432  1
  O  O350  1  0.69244894  0.08318259  0.56175056  1
  O  O351  1  0.69360409  0.08345006  0.81178153  1
  O  O352  1  0.69194060  0.41713969  0.06245748  1
  O  O353  1  0.69151360  0.41718437  0.31231041  1
  O  O354  1  0.69328719  0.41721131  0.56108030  1
  O  O355  1  0.69175406  0.41666442  0.81271040  1
  O  O356  1  0.69039255  0.74952944  0.06251233  1
  O  O357  1  0.68988221  0.74984857  0.31233018  1
  O  O358  1  0.69306250  0.74945009  0.56117876  1
  O  O359  1  0.69183498  0.75001497  0.81303439  1
  O  O360  1  0.30499822  0.25091008  0.18738943  1
  O  O361  1  0.30659472  0.25063627  0.43849771  1
  O  O362  1  0.30848728  0.25045527  0.68806895  1
  O  O363  1  0.30914063  0.25089872  0.93727426  1
  O  O364  1  0.30551468  0.58263260  0.18765919  1
  O  O365  1  0.30622448  0.58291125  0.43821179  1
  O  O366  1  0.30556588  0.58298761  0.68877656  1
  O  O367  1  0.30580456  0.58273500  0.93854846  1
  O  O368  1  0.30669688  0.91629723  0.18830095  1
  O  O369  1  0.30971220  0.91623058  0.43715949  1
  O  O370  1  0.30857512  0.91635838  0.68774783  1
  O  O371  1  0.30923571  0.91603927  0.93727006  1
  O  O372  1  0.80890186  0.25024681  0.18703213  1
  O  O373  1  0.80625518  0.25020472  0.43790711  1
  O  O374  1  0.80612012  0.25079560  0.68827248  1
  O  O375  1  0.80727869  0.25076439  0.93908636  1
  O  O376  1  0.80947218  0.58350878  0.18736761  1
  O  O377  1  0.80943931  0.58417142  0.43734706  1
  O  O378  1  0.80946319  0.58334673  0.68765856  1
  O  O379  1  0.80888983  0.58318840  0.93781375  1
  O  O380  1  0.80647002  0.91640040  0.18856682  1
  O  O381  1  0.80605155  0.91634440  0.43821419  1
  O  O382  1  0.80584656  0.91587990  0.68890854  1
  O  O383  1  0.80869807  0.91632765  0.93738896  1
  O  O384  1  0.23411727  0.25055706  0.03740737  1
  O  O385  1  0.23190576  0.25081446  0.28943170  1
  O  O386  1  0.23493757  0.24999262  0.54135183  1
  O  O387  1  0.23533969  0.25022806  0.78962283  1
  O  O388  1  0.23112080  0.58340257  0.03920484  1
  O  O389  1  0.23215671  0.58229710  0.28950240  1
  O  O390  1  0.23385366  0.58342100  0.54057698  1
  O  O391  1  0.23168542  0.58301907  0.78980040  1
  O  O392  1  0.23465059  0.91627033  0.03814107  1
  O  O393  1  0.23519743  0.91666832  0.29094142  1
  O  O394  1  0.23648653  0.91632554  0.53871009  1
  O  O395  1  0.23417367  0.91617858  0.78878415  1
  O  O396  1  0.73519258  0.25058832  0.04119006  1
  O  O397  1  0.73392305  0.25060252  0.28761358  1
  O  O398  1  0.73342310  0.25086801  0.54009454  1
  O  O399  1  0.73368353  0.25048952  0.79073533  1
  O  O400  1  0.73401369  0.58285260  0.03828266  1
  O  O401  1  0.73548070  0.58283185  0.28812444  1
  O  O402  1  0.73586453  0.58354506  0.53890187  1
  O  O403  1  0.73608500  0.58321858  0.78903933  1
  O  O404  1  0.73459244  0.91660221  0.03838782  1
  O  O405  1  0.73339229  0.91768828  0.29009388  1
  O  O406  1  0.73135603  0.91582892  0.53901062  1
  O  O407  1  0.73254246  0.91657291  0.79062031  1
  O  O408  1  0.26655400  0.08359438  0.21129175  1
  O  O409  1  0.26851662  0.08383331  0.46037289  1
  O  O410  1  0.26912051  0.08281548  0.71145526  1
  O  O411  1  0.26532406  0.08329733  0.96225078  1
  O  O412  1  0.26645202  0.41678576  0.20920025  1
  O  O413  1  0.26715283  0.41647194  0.46297458  1
  O  O414  1  0.26575952  0.41683395  0.71307194  1
  O  O415  1  0.26358107  0.41696466  0.96157007  1
  O  O416  1  0.26745874  0.74942076  0.21264903  1
  O  O417  1  0.26814826  0.74970775  0.46068162  1
  O  O418  1  0.26802487  0.74990090  0.71090709  1
  O  O419  1  0.26601475  0.74884581  0.95938267  1
  O  O420  1  0.76822367  0.08369256  0.21097384  1
  O  O421  1  0.76558977  0.08366655  0.45984824  1
  O  O422  1  0.76585762  0.08229264  0.70943078  1
  O  O423  1  0.76858066  0.08401094  0.96098598  1
  O  O424  1  0.76671500  0.41667190  0.21223434  1
  O  O425  1  0.76748876  0.41679407  0.46017565  1
  O  O426  1  0.76756380  0.41749965  0.71293036  1
  O  O427  1  0.76700227  0.41681008  0.96242806  1
  O  O428  1  0.76481546  0.74967561  0.21192996  1
  O  O429  1  0.76538597  0.75028162  0.45896506  1
  O  O430  1  0.76701532  0.75009494  0.71258535  1
  O  O431  1  0.76434942  0.74945338  0.96181384  1
  O  O432  1  0.01646771  0.08383688  0.16317397  1
  O  O433  1  0.01829760  0.08322830  0.41207245  1
  O  O434  1  0.01708982  0.08347512  0.66505207  1
  O  O435  1  0.01540498  0.08355186  0.91593142  1
  O  O436  1  0.01583707  0.41686748  0.16334369  1
  O  O437  1  0.01496773  0.41738436  0.41327420  1
  O  O438  1  0.01594410  0.41736875  0.66347674  1
  O  O439  1  0.01581828  0.41708920  0.91371782  1
  O  O440  1  0.01638909  0.74920008  0.16471243  1
  O  O441  1  0.01886197  0.74924319  0.41500328  1
  O  O442  1  0.01551664  0.74952969  0.66592913  1
  O  O443  1  0.01486416  0.74965681  0.91357200  1
  O  O444  1  0.51582896  0.08305012  0.16625506  1
  O  O445  1  0.51410574  0.08378902  0.41313703  1
  O  O446  1  0.51377590  0.08349304  0.66398229  1
  O  O447  1  0.51514017  0.08331220  0.91356348  1
  O  O448  1  0.51805641  0.41737372  0.16397165  1
  O  O449  1  0.51614156  0.41645233  0.41246296  1
  O  O450  1  0.51421753  0.41665578  0.66433503  1
  O  O451  1  0.51701474  0.41641817  0.91238451  1
  O  O452  1  0.51765345  0.74944540  0.16487631  1
  O  O453  1  0.51599819  0.74960976  0.41330564  1
  O  O454  1  0.51462154  0.74984396  0.66397221  1
  O  O455  1  0.51711456  0.75015374  0.91144856  1
  O  O456  1  0.48508726  0.25096811  0.08714267  1
  O  O457  1  0.48428819  0.25090963  0.33389176  1
  O  O458  1  0.48060312  0.25020996  0.58562608  1
  O  O459  1  0.48216705  0.25048515  0.83587822  1
  O  O460  1  0.48487847  0.58289847  0.08343452  1
  O  O461  1  0.48403386  0.58299584  0.33496097  1
  O  O462  1  0.48334194  0.58298966  0.58559247  1
  O  O463  1  0.48515376  0.58326438  0.83672710  1
  O  O464  1  0.48369641  0.91585578  0.08422556  1
  O  O465  1  0.48243713  0.91573949  0.33769865  1
  O  O466  1  0.48282737  0.91671916  0.58772512  1
  O  O467  1  0.48269832  0.91648984  0.83461208  1
  O  O468  1  0.98306068  0.25061443  0.08798330  1
  O  O469  1  0.98485086  0.24994687  0.33467074  1
  O  O470  1  0.98424331  0.25046968  0.58437955  1
  O  O471  1  0.98324307  0.25067365  0.83436779  1
  O  O472  1  0.98347595  0.58267805  0.08745397  1
  O  O473  1  0.98304861  0.58326493  0.33503000  1
  O  O474  1  0.98325483  0.58303984  0.58810761  1
  O  O475  1  0.98315363  0.58309736  0.83710276  1
  O  O476  1  0.98394968  0.91703709  0.08543886  1
  O  O477  1  0.98485581  0.91660147  0.33461300  1
  O  O478  1  0.98522300  0.91643952  0.58735761  1
  O  O479  1  0.98221128  0.91654022  0.83483287  1
  O  O480  1  0.08658124  0.31545026  0.07833891  1
  O  O481  1  0.08873283  0.31470465  0.32664681  1
  O  O482  1  0.08736264  0.31676163  0.57796381  1
  O  O483  1  0.08686305  0.31612390  0.82802923  1
  O  O484  1  0.08736092  0.64718744  0.07709558  1
  O  O485  1  0.08708061  0.64889069  0.32729468  1
  O  O486  1  0.08704536  0.64731609  0.57816005  1
  O  O487  1  0.08720670  0.64730960  0.82683705  1
  O  O488  1  0.08737911  0.98276429  0.07780923  1
  O  O489  1  0.08882369  0.98129300  0.32787978  1
  O  O490  1  0.08888673  0.98162760  0.57794505  1
  O  O491  1  0.08635193  0.98170369  0.82640371  1
  O  O492  1  0.58868429  0.31619720  0.07850166  1
  O  O493  1  0.58838403  0.31629951  0.32743040  1
  O  O494  1  0.58446966  0.31522804  0.57708974  1
  O  O495  1  0.58591399  0.31589143  0.82719374  1
  O  O496  1  0.58880630  0.64812534  0.07747568  1
  O  O497  1  0.58779739  0.64797923  0.32820072  1
  O  O498  1  0.58705328  0.64810719  0.57767653  1
  O  O499  1  0.58883479  0.64810489  0.82807110  1
  O  O500  1  0.58729176  0.98106180  0.07734689  1
  O  O501  1  0.58566781  0.98103298  0.32778246  1
  O  O502  1  0.58642646  0.98173326  0.57703070  1
  O  O503  1  0.58677915  0.98110592  0.82617883  1
  O  O504  1  0.41142034  0.01875360  0.17291774  1
  O  O505  1  0.41086767  0.01787091  0.42179640  1
  O  O506  1  0.41030665  0.01811957  0.67203354  1
  O  O507  1  0.41175716  0.01783482  0.92125553  1
  O  O508  1  0.41399824  0.35244358  0.17370870  1
  O  O509  1  0.41216836  0.35163131  0.42215373  1
  O  O510  1  0.41058052  0.35091281  0.67257090  1
  O  O511  1  0.41337978  0.35119758  0.92233976  1
  O  O512  1  0.41393959  0.68384603  0.17321359  1
  O  O513  1  0.41216358  0.68489161  0.42302666  1
  O  O514  1  0.41058721  0.68566983  0.67332647  1
  O  O515  1  0.41367109  0.68546355  0.92250870  1
  O  O516  1  0.91250008  0.01947284  0.17352415  1
  O  O517  1  0.91462531  0.01811931  0.42249360  1
  O  O518  1  0.91326656  0.01830665  0.67221892  1
  O  O519  1  0.91221359  0.01669746  0.92259322  1
  O  O520  1  0.91204643  0.35187297  0.17271090  1
  O  O521  1  0.91111179  0.35291402  0.42259191  1
  O  O522  1  0.91217955  0.35253910  0.67300347  1
  O  O523  1  0.91177752  0.35287134  0.92331742  1
  O  O524  1  0.91266538  0.68392478  0.17220616  1
  O  O525  1  0.91487830  0.68408484  0.42236512  1
  O  O526  1  0.91163069  0.68416952  0.67271592  1
  O  O527  1  0.91119462  0.68490361  0.92148035  1
  O  O528  1  0.16241274  0.01943138  0.20191242  1
  O  O529  1  0.16501850  0.01808251  0.45143204  1
  O  O530  1  0.16564446  0.01713803  0.70269887  1
  O  O531  1  0.16186399  0.01843502  0.95247903  1
  O  O532  1  0.16238357  0.35154276  0.20191753  1
  O  O533  1  0.16347511  0.35172508  0.45311555  1
  O  O534  1  0.16186448  0.35252081  0.70231989  1
  O  O535  1  0.15955895  0.35289234  0.95180795  1
  O  O536  1  0.16369153  0.68405259  0.20347808  1
  O  O537  1  0.16392371  0.68505855  0.45174998  1
  O  O538  1  0.16407195  0.68497468  0.70265177  1
  O  O539  1  0.16184519  0.68402501  0.95282297  1
  O  O540  1  0.66412164  0.01940838  0.20193178  1
  O  O541  1  0.66222431  0.01737484  0.45262283  1
  O  O542  1  0.66191466  0.01715983  0.70341274  1
  O  O543  1  0.66464886  0.01888692  0.95204457  1
  O  O544  1  0.66313374  0.35105676  0.20245051  1
  O  O545  1  0.66308048  0.35231176  0.45157953  1
  O  O546  1  0.66410286  0.35184413  0.70240079  1
  O  O547  1  0.66279844  0.35277880  0.95219630  1
  O  O548  1  0.66106081  0.68497511  0.20234651  1
  O  O549  1  0.66149595  0.68538964  0.45170092  1
  O  O550  1  0.66335675  0.68585303  0.70262608  1
  O  O551  1  0.66127968  0.68325922  0.95281942  1
  O  O552  1  0.33747401  0.31576011  0.04741760  1
  O  O553  1  0.33566848  0.31609505  0.29656156  1
  O  O554  1  0.33865320  0.31530445  0.54774267  1
  O  O555  1  0.33883758  0.31573710  0.79768518  1
  O  O556  1  0.33529438  0.64792429  0.04788247  1
  O  O557  1  0.33626490  0.64720132  0.29705594  1
  O  O558  1  0.33764447  0.64840022  0.54699531  1
  O  O559  1  0.33569714  0.64806443  0.79812442  1
  O  O560  1  0.33827930  0.98095428  0.04709226  1
  O  O561  1  0.33915246  0.98162055  0.29701799  1
  O  O562  1  0.34008428  0.98143894  0.54673957  1
  O  O563  1  0.33806828  0.98117138  0.79777659  1
  O  O564  1  0.83903871  0.31579169  0.04822221  1
  O  O565  1  0.83767643  0.31525818  0.29677662  1
  O  O566  1  0.83728390  0.31606439  0.54662080  1
  O  O567  1  0.83729301  0.31604606  0.79743150  1
  O  O568  1  0.83791931  0.64731909  0.04812523  1
  O  O569  1  0.83926263  0.64740909  0.29783465  1
  O  O570  1  0.84002511  0.64741664  0.54753526  1
  O  O571  1  0.83947708  0.64877816  0.79738696  1
  O  O572  1  0.83797293  0.98240707  0.04676492  1
  O  O573  1  0.83747583  0.98258234  0.29731746  1
  O  O574  1  0.83496573  0.98157229  0.54779294  1
  O  O575  1  0.83721957  0.98038777  0.79805465  1
  O  O576  1  0.41204216  0.14867124  0.17344166  1
  O  O577  1  0.41014897  0.14804953  0.42206348  1
  O  O578  1  0.40995169  0.14833997  0.67199663  1
  O  O579  1  0.41158096  0.14837481  0.92134021  1
  O  O580  1  0.41396745  0.48222469  0.17328533  1
  O  O581  1  0.41238621  0.48153491  0.42260441  1
  O  O582  1  0.41021031  0.48087511  0.67366096  1
  O  O583  1  0.41350525  0.48135481  0.92313626  1
  O  O584  1  0.41330620  0.81372821  0.17318669  1
  O  O585  1  0.41223703  0.81483998  0.42251791  1
  O  O586  1  0.41119083  0.81572562  0.67217070  1
  O  O587  1  0.41372686  0.81568869  0.92143772  1
  O  O588  1  0.91292495  0.14953192  0.17307354  1
  O  O589  1  0.91461925  0.14825321  0.42242188  1
  O  O590  1  0.91321430  0.14836927  0.67203298  1
  O  O591  1  0.91084489  0.14689295  0.92324163  1
  O  O592  1  0.91193226  0.48182765  0.17235801  1
  O  O593  1  0.91140939  0.48299842  0.42144946  1
  O  O594  1  0.91216823  0.48249044  0.67236665  1
  O  O595  1  0.91229503  0.48283756  0.92288718  1
  O  O596  1  0.91273372  0.81406315  0.17290296  1
  O  O597  1  0.91506018  0.81420663  0.42324247  1
  O  O598  1  0.91131038  0.81420314  0.67338541  1
  O  O599  1  0.91147004  0.81521390  0.92157401  1
  O  O600  1  0.08652916  0.18524543  0.07826151  1
  O  O601  1  0.08889151  0.18462601  0.32702230  1
  O  O602  1  0.08844016  0.18636481  0.57767868  1
  O  O603  1  0.08719512  0.18599995  0.82740348  1
  O  O604  1  0.08696292  0.51714975  0.07778261  1
  O  O605  1  0.08716530  0.51894633  0.32670709  1
  O  O606  1  0.08645191  0.51717939  0.57829750  1
  O  O607  1  0.08667672  0.51736718  0.82777477  1
  O  O608  1  0.08764328  0.85235673  0.07738401  1
  O  O609  1  0.08833326  0.85093405  0.32799784  1
  O  O610  1  0.08880355  0.85146759  0.57818689  1
  O  O611  1  0.08642509  0.85179125  0.82613428  1
  O  O612  1  0.58837671  0.18584254  0.07766476  1
  O  O613  1  0.58845813  0.18629551  0.32665206  1
  O  O614  1  0.58429064  0.18515424  0.57705270  1
  O  O615  1  0.58577401  0.18563714  0.82706251  1
  O  O616  1  0.58905617  0.51798994  0.07701688  1
  O  O617  1  0.58776821  0.51783151  0.32794870  1
  O  O618  1  0.58711102  0.51801019  0.57758384  1
  O  O619  1  0.58857142  0.51774460  0.82795021  1
  O  O620  1  0.58750944  0.85079589  0.07830413  1
  O  O621  1  0.58626558  0.85090206  0.32870029  1
  O  O622  1  0.58657091  0.85173976  0.57703160  1
  O  O623  1  0.58667561  0.85109319  0.82627482  1
  O  O624  1  0.33777286  0.18572144  0.04719716  1
  O  O625  1  0.33586661  0.18598132  0.29658334  1
  O  O626  1  0.33890532  0.18519126  0.54725876  1
  O  O627  1  0.33931817  0.18545340  0.79756384  1
  O  O628  1  0.33464770  0.51798415  0.04829992  1
  O  O629  1  0.33593553  0.51708086  0.29672696  1
  O  O630  1  0.33746450  0.51817927  0.54744153  1
  O  O631  1  0.33550307  0.51792986  0.79836760  1
  O  O632  1  0.33793511  0.85074403  0.04696447  1
  O  O633  1  0.33910827  0.85139469  0.29730439  1
  O  O634  1  0.34009985  0.85118936  0.54682228  1
  O  O635  1  0.33804924  0.85111725  0.79748116  1
  O  O636  1  0.83931993  0.18563572  0.04801132  1
  O  O637  1  0.83732566  0.18502823  0.29709308  1
  O  O638  1  0.83717961  0.18583926  0.54718575  1
  O  O639  1  0.83765279  0.18582121  0.79695690  1
  O  O640  1  0.83777346  0.51736321  0.04755351  1
  O  O641  1  0.83913656  0.51740357  0.29670864  1
  O  O642  1  0.83913553  0.51729430  0.54648643  1
  O  O643  1  0.84001734  0.51864609  0.79751209  1
  O  O644  1  0.83815204  0.85210159  0.04745293  1
  O  O645  1  0.83686827  0.85231323  0.29822454  1
  O  O646  1  0.83553468  0.85148718  0.54764347  1
  O  O647  1  0.83620623  0.85049564  0.79842978  1
  O  O648  1  0.16291727  0.14953648  0.20236796  1
  O  O649  1  0.16407435  0.14800337  0.45187110  1
  O  O650  1  0.16530870  0.14736725  0.70246618  1
  O  O651  1  0.16202186  0.14858989  0.95233488  1
  O  O652  1  0.16200524  0.48148445  0.20236906  1
  O  O653  1  0.16360656  0.48160230  0.45289338  1
  O  O654  1  0.16217941  0.48256045  0.70278360  1
  O  O655  1  0.16012672  0.48294629  0.95286848  1
  O  O656  1  0.16389431  0.81419975  0.20281140  1
  O  O657  1  0.16439497  0.81493111  0.45156098  1
  O  O658  1  0.16452278  0.81527545  0.70243398  1
  O  O659  1  0.16249030  0.81408380  0.95181786  1
  O  O660  1  0.66477109  0.14954979  0.20212350  1
  O  O661  1  0.66141883  0.14768959  0.45261743  1
  O  O662  1  0.66215841  0.14745234  0.70237165  1
  O  O663  1  0.66474156  0.14892480  0.95217832  1
  O  O664  1  0.66279420  0.48097726  0.20180474  1
  O  O665  1  0.66383194  0.48221387  0.45128747  1
  O  O666  1  0.66386305  0.48185083  0.70249873  1
  O  O667  1  0.66355624  0.48271061  0.95229975  1
  O  O668  1  0.66116458  0.81501242  0.20239497  1
  O  O669  1  0.66108071  0.81538439  0.45250747  1
  O  O670  1  0.66349673  0.81594569  0.70342676  1
  O  O671  1  0.66017013  0.81337171  0.95226542  1
