# generated using pymatgen
data_Na2MnFe(PO4)2
_symmetry_space_group_name_H-M   'P 1'
_cell_length_a   21.08847322
_cell_length_b   18.94177174
_cell_length_c   20.04730566
_cell_angle_alpha   90.00053085
_cell_angle_beta   89.99846330
_cell_angle_gamma   89.99976555
_symmetry_Int_Tables_number   1
_chemical_formula_structural   Na2MnFe(PO4)2
_chemical_formula_sum   'Na96 Mn48 Fe48 P96 O384'
_cell_volume   8007.95730921
_cell_formula_units_Z   48
loop_
 _symmetry_equiv_pos_site_id
 _symmetry_equiv_pos_as_xyz
  1  'x, y, z'
loop_
 _atom_site_type_symbol
 _atom_site_label
 _atom_site_symmetry_multiplicity
 _atom_site_fract_x
 _atom_site_fract_y
 _atom_site_fract_z
 _atom_site_occupancy
  Na  Na0  1  -0.00127885  -0.00026955  -0.00087034  1
  Na  Na1  1  -0.00035410  0.00006137  0.24953478  1
  Na  Na2  1  -0.00155364  -0.00029222  0.50093266  1
  Na  Na3  1  -0.00044981  0.00035754  0.74900698  1
  Na  Na4  1  -0.00057780  0.33319662  0.00134648  1
  Na  Na5  1  0.00116524  0.33385130  0.25045811  1
  Na  Na6  1  0.00069373  0.33371690  0.49897633  1
  Na  Na7  1  -0.00050111  0.33327209  0.74927339  1
  Na  Na8  1  -0.00239194  0.66612196  0.00125237  1
  Na  Na9  1  0.00035635  0.66728293  0.24941310  1
  Na  Na10  1  -0.00144207  0.66616241  0.49992840  1
  Na  Na11  1  -0.00281279  0.66573417  0.74986372  1
  Na  Na12  1  0.49921642  -0.00077455  0.00054244  1
  Na  Na13  1  0.49976872  0.00024467  0.25002461  1
  Na  Na14  1  0.49927658  0.00022680  0.50035283  1
  Na  Na15  1  0.49946187  -0.00041514  0.74984571  1
  Na  Na16  1  0.49989457  0.33328494  -0.00012926  1
  Na  Na17  1  0.50108613  0.33344780  0.25059899  1
  Na  Na18  1  0.49995542  0.33318857  0.49968994  1
  Na  Na19  1  0.50009555  0.33359187  0.75000167  1
  Na  Na20  1  0.50048507  0.66735643  0.00072061  1
  Na  Na21  1  0.50051063  0.66656465  0.25024842  1
  Na  Na22  1  0.50040576  0.66649034  0.49901040  1
  Na  Na23  1  0.49845074  0.66557737  0.74971324  1
  Na  Na24  1  0.25222284  0.00033407  0.12396642  1
  Na  Na25  1  0.25259083  0.00089347  0.37460904  1
  Na  Na26  1  0.25139199  0.00066140  0.62632576  1
  Na  Na27  1  0.24946108  -0.00085717  0.87472166  1
  Na  Na28  1  0.24724441  0.33272561  0.12469000  1
  Na  Na29  1  0.24825829  0.33331660  0.37544449  1
  Na  Na30  1  0.24902968  0.33353131  0.62629108  1
  Na  Na31  1  0.25055298  0.33431785  0.87451067  1
  Na  Na32  1  0.25128459  0.66668803  0.12381576  1
  Na  Na33  1  0.24956456  0.66616779  0.37542354  1
  Na  Na34  1  0.25181859  0.66696298  0.62570706  1
  Na  Na35  1  0.25204559  0.66697934  0.87415364  1
  Na  Na36  1  0.75059111  0.00045456  0.12503271  1
  Na  Na37  1  0.74823547  -0.00063638  0.37447853  1
  Na  Na38  1  0.75140084  0.00074925  0.62474667  1
  Na  Na39  1  0.75080305  -0.00007938  0.87604670  1
  Na  Na40  1  0.75046508  0.33317575  0.12410287  1
  Na  Na41  1  0.75171612  0.33439904  0.37608815  1
  Na  Na42  1  0.75014873  0.33275982  0.62482447  1
  Na  Na43  1  0.75107646  0.33318385  0.87438127  1
  Na  Na44  1  0.74904595  0.66628065  0.12361624  1
  Na  Na45  1  0.75046585  0.66625825  0.37493017  1
  Na  Na46  1  0.75125668  0.66692652  0.62697753  1
  Na  Na47  1  0.75096788  0.66734027  0.87519021  1
  Na  Na48  1  -0.00089828  0.16624862  0.00065373  1
  Na  Na49  1  -0.00062428  0.16699580  0.25006481  1
  Na  Na50  1  -0.00203176  0.16762758  0.50014795  1
  Na  Na51  1  -0.00239290  0.16685123  0.74950053  1
  Na  Na52  1  -0.00057556  0.50003730  0.00126890  1
  Na  Na53  1  0.00192821  0.49895864  0.24958128  1
  Na  Na54  1  -0.00029033  0.49957863  0.49894666  1
  Na  Na55  1  -0.00017260  0.49905332  0.74970491  1
  Na  Na56  1  -0.00294904  0.83465642  -0.00022033  1
  Na  Na57  1  -0.00082211  0.83340010  0.24981140  1
  Na  Na58  1  -0.00069965  0.83367456  0.50067884  1
  Na  Na59  1  0.00003350  0.83297312  0.74912784  1
  Na  Na60  1  0.50046019  0.16699019  0.00011780  1
  Na  Na61  1  0.50055890  0.16692783  0.25047492  1
  Na  Na62  1  0.50086350  0.16658022  0.49949022  1
  Na  Na63  1  0.49793467  0.16842623  0.74973247  1
  Na  Na64  1  0.49785719  0.50045422  0.00033966  1
  Na  Na65  1  0.50067136  0.49897700  0.25089908  1
  Na  Na66  1  0.49936841  0.49975694  0.49964944  1
  Na  Na67  1  0.49919587  0.49968129  0.74943388  1
  Na  Na68  1  0.50003508  0.83408905  0.00042558  1
  Na  Na69  1  0.50111938  0.83298314  0.24973580  1
  Na  Na70  1  0.49902974  0.83454678  0.49963296  1
  Na  Na71  1  0.50152215  0.83304574  0.75059148  1
  Na  Na72  1  0.25018853  0.16679529  0.12354240  1
  Na  Na73  1  0.24958439  0.16734505  0.37527659  1
  Na  Na74  1  0.25118764  0.16636714  0.62687150  1
  Na  Na75  1  0.24966053  0.16705436  0.87432411  1
  Na  Na76  1  0.24790741  0.50008613  0.12448372  1
  Na  Na77  1  0.24868138  0.49915909  0.37558078  1
  Na  Na78  1  0.25003946  0.49910265  0.62613656  1
  Na  Na79  1  0.25014247  0.49975865  0.87443849  1
  Na  Na80  1  0.25293998  0.83287211  0.12436327  1
  Na  Na81  1  0.25174045  0.83360703  0.37461237  1
  Na  Na82  1  0.25045880  0.83422240  0.62530514  1
  Na  Na83  1  0.25181215  0.83348133  0.87477167  1
  Na  Na84  1  0.74991130  0.16743647  0.12554294  1
  Na  Na85  1  0.75105114  0.16683075  0.37510518  1
  Na  Na86  1  0.75238522  0.16649514  0.62478470  1
  Na  Na87  1  0.75278835  0.16598647  0.87456239  1
  Na  Na88  1  0.75103783  0.49934877  0.12356456  1
  Na  Na89  1  0.75056872  0.49912880  0.37593707  1
  Na  Na90  1  0.75015642  0.49971759  0.62555193  1
  Na  Na91  1  0.75126909  0.49911916  0.87491278  1
  Na  Na92  1  0.74814228  0.83418641  0.12394198  1
  Na  Na93  1  0.74934427  0.83300623  0.37447742  1
  Na  Na94  1  0.75004078  0.83304758  0.62617701  1
  Na  Na95  1  0.74894218  0.83365023  0.87599263  1
  Mn  Mn96  1  0.14248525  0.91607564  0.99760470  1
  Mn  Mn97  1  0.89231888  0.58362312  0.12766843  1
  Mn  Mn98  1  0.10733343  0.74907923  0.62271780  1
  Mn  Mn99  1  0.60769241  0.74900720  0.62249413  1
  Mn  Mn100  1  0.14135640  0.24950322  0.74818466  1
  Mn  Mn101  1  0.60822826  0.08336201  0.87259097  1
  Mn  Mn102  1  0.14199367  0.58317138  0.49833323  1
  Mn  Mn103  1  0.89130290  0.91705959  0.37714630  1
  Mn  Mn104  1  0.39284586  0.91705217  0.37674493  1
  Mn  Mn105  1  0.85693856  0.74946222  0.25189323  1
  Mn  Mn106  1  0.64302270  0.25052709  0.24820143  1
  Mn  Mn107  1  0.60737722  0.41725386  0.87320096  1
  Mn  Mn108  1  0.64247167  0.58284033  0.99709562  1
  Mn  Mn109  1  0.89231683  0.24982388  0.12749681  1
  Mn  Mn110  1  0.85820667  0.41615639  0.75229826  1
  Mn  Mn111  1  0.14258812  0.58408037  0.99699016  1
  Mn  Mn112  1  0.10821413  0.08326650  0.37316541  1
  Mn  Mn113  1  0.14157020  0.58436388  0.74804192  1
  Mn  Mn114  1  0.39149191  0.25006548  0.37763154  1
  Mn  Mn115  1  0.60785704  0.08410043  0.62291955  1
  Mn  Mn116  1  0.64238935  0.58290928  0.24752488  1
  Mn  Mn117  1  0.10794126  0.08270376  0.12283349  1
  Mn  Mn118  1  0.14184709  0.24988326  0.99672359  1
  Mn  Mn119  1  0.85755917  0.08365605  0.25293837  1
  Mn  Mn120  1  0.64189049  0.58333721  0.74800427  1
  Mn  Mn121  1  0.89150014  0.91664306  0.62770321  1
  Mn  Mn122  1  0.89231295  0.58304421  0.37726555  1
  Mn  Mn123  1  0.64217931  0.91672851  0.49825465  1
  Mn  Mn124  1  0.85744227  0.75096128  0.75327336  1
  Mn  Mn125  1  0.10802716  0.75008816  0.37258299  1
  Mn  Mn126  1  0.14298210  0.91659367  0.24726843  1
  Mn  Mn127  1  0.10713034  0.08402307  0.62232657  1
  Mn  Mn128  1  0.60840014  0.41618622  0.37335605  1
  Mn  Mn129  1  0.39260798  0.25001080  0.12737959  1
  Mn  Mn130  1  0.35669788  0.41639279  0.25167680  1
  Mn  Mn131  1  0.39154274  0.58282538  0.37728816  1
  Mn  Mn132  1  0.10717834  0.75024740  0.87321102  1
  Mn  Mn133  1  0.60784351  0.08373512  0.12238306  1
  Mn  Mn134  1  0.35832784  0.74978164  0.50282038  1
  Mn  Mn135  1  0.14298205  0.91752844  0.49775101  1
  Mn  Mn136  1  0.35783046  0.08350433  0.00173007  1
  Mn  Mn137  1  0.35855428  0.75037863  0.75236283  1
  Mn  Mn138  1  0.35778939  0.08340845  0.75279967  1
  Mn  Mn139  1  0.39244655  0.58326418  0.12789118  1
  Mn  Mn140  1  0.10831007  0.75061059  0.12237358  1
  Mn  Mn141  1  0.35769309  0.41655722  0.75192344  1
  Mn  Mn142  1  0.64259907  0.24915009  0.74775165  1
  Mn  Mn143  1  0.60851899  0.75040388  0.37296382  1
  Fe  Fe144  1  0.10654674  0.41660586  0.62309658  1
  Fe  Fe145  1  0.64311515  0.58279909  0.49930815  1
  Fe  Fe146  1  0.60688815  0.74955680  0.12301810  1
  Fe  Fe147  1  0.35809633  0.08451161  0.50199357  1
  Fe  Fe148  1  0.85686302  0.08326114  0.50106584  1
  Fe  Fe149  1  0.14233216  0.24954919  0.24866467  1
  Fe  Fe150  1  0.89170405  0.91649928  0.12668902  1
  Fe  Fe151  1  0.39252086  0.58323240  0.87684284  1
  Fe  Fe152  1  0.14253163  0.24944020  0.49903692  1
  Fe  Fe153  1  0.89255341  0.25069402  0.62602210  1
  Fe  Fe154  1  0.35880990  0.74938724  0.00173001  1
  Fe  Fe155  1  0.89280987  0.25022598  0.87716247  1
  Fe  Fe156  1  0.14273319  0.58367835  0.24846220  1
  Fe  Fe157  1  0.10703761  0.41660750  0.37335303  1
  Fe  Fe158  1  0.39266645  0.25034883  0.87735705  1
  Fe  Fe159  1  0.39336373  0.91656855  0.87697377  1
  Fe  Fe160  1  0.64234936  0.91680655  0.24745042  1
  Fe  Fe161  1  0.89322582  0.25010820  0.37716927  1
  Fe  Fe162  1  0.35699637  0.41670605  0.00212844  1
  Fe  Fe163  1  0.85734697  0.08297837  0.00157994  1
  Fe  Fe164  1  0.64360481  0.24976537  0.99801716  1
  Fe  Fe165  1  0.85796236  0.41683058  0.25153553  1
  Fe  Fe166  1  0.64269058  0.91744209  0.74896111  1
  Fe  Fe167  1  0.35763568  0.08389053  0.25171731  1
  Fe  Fe168  1  0.60680078  0.74976587  0.87419268  1
  Fe  Fe169  1  0.85641869  0.75055529  0.00173000  1
  Fe  Fe170  1  0.39265060  0.25048780  0.62595744  1
  Fe  Fe171  1  0.60824181  0.41681296  0.12276586  1
  Fe  Fe172  1  0.39293161  0.58285957  0.62602482  1
  Fe  Fe173  1  0.60762019  0.08357344  0.37370910  1
  Fe  Fe174  1  0.60702865  0.41654878  0.62313774  1
  Fe  Fe175  1  0.14250887  0.91646339  0.74883998  1
  Fe  Fe176  1  0.39280685  0.91680116  0.62730379  1
  Fe  Fe177  1  0.89240903  0.58306877  0.87686129  1
  Fe  Fe178  1  0.10590166  0.08317905  0.87350501  1
  Fe  Fe179  1  0.85781977  0.41638852  0.00179636  1
  Fe  Fe180  1  0.85759782  0.08269839  0.75211353  1
  Fe  Fe181  1  0.64344470  0.25033602  0.49875437  1
  Fe  Fe182  1  0.39372050  0.91678575  0.12666458  1
  Fe  Fe183  1  0.10644237  0.41648913  0.87421093  1
  Fe  Fe184  1  0.64291761  0.91746471  0.99816107  1
  Fe  Fe185  1  0.89186204  0.58266106  0.62625970  1
  Fe  Fe186  1  0.35646110  0.41577301  0.50218291  1
  Fe  Fe187  1  0.35785239  0.74982636  0.25151813  1
  Fe  Fe188  1  0.89220180  0.91654622  0.87675367  1
  Fe  Fe189  1  0.85765723  0.41691239  0.50201219  1
  Fe  Fe190  1  0.85734320  0.74963779  0.50135872  1
  Fe  Fe191  1  0.10699222  0.41674300  0.12295210  1
  P  P192  1  0.05487386  0.25024874  0.11134903  1
  P  P193  1  0.05417971  0.25028216  0.36109044  1
  P  P194  1  0.05238006  0.25059832  0.60940324  1
  P  P195  1  0.05142833  0.24981907  0.86033141  1
  P  P196  1  0.05516800  0.58305128  0.11118336  1
  P  P197  1  0.05399818  0.58262823  0.35938484  1
  P  P198  1  0.05143965  0.58242656  0.61000663  1
  P  P199  1  0.05153769  0.58295522  0.86052393  1
  P  P200  1  0.05187628  0.91668079  0.10942310  1
  P  P201  1  0.05304751  0.91703271  0.35974418  1
  P  P202  1  0.05421928  0.91667403  0.61102425  1
  P  P203  1  0.05205064  0.91718782  0.85951557  1
  P  P204  1  0.55483211  0.25107453  0.10933314  1
  P  P205  1  0.55479083  0.24936665  0.36150621  1
  P  P206  1  0.55305401  0.25078432  0.60944137  1
  P  P207  1  0.55349607  0.25019445  0.86109602  1
  P  P208  1  0.55385895  0.58290715  0.11011375  1
  P  P209  1  0.55469452  0.58294423  0.36124529  1
  P  P210  1  0.55273319  0.58213886  0.60938656  1
  P  P211  1  0.55179065  0.58389657  0.86029753  1
  P  P212  1  0.55447051  0.91618308  0.11057102  1
  P  P213  1  0.55470161  0.91788287  0.35947271  1
  P  P214  1  0.55318872  0.91703914  0.61138340  1
  P  P215  1  0.55438681  0.91623969  0.86107885  1
  P  P216  1  0.44621663  0.08304512  0.14052302  1
  P  P217  1  0.44631931  0.08373412  0.38962406  1
  P  P218  1  0.44529570  0.08428400  0.63886969  1
  P  P219  1  0.44702968  0.08338389  0.88995149  1
  P  P220  1  0.44732027  0.41636910  0.13939478  1
  P  P221  1  0.44547351  0.41622768  0.39078600  1
  P  P222  1  0.44624634  0.41610488  0.63831247  1
  P  P223  1  0.44563288  0.41671024  0.89047187  1
  P  P224  1  0.44645018  0.75064186  0.13946866  1
  P  P225  1  0.44587246  0.75000583  0.38885533  1
  P  P226  1  0.44684488  0.74989502  0.63982999  1
  P  P227  1  0.44741944  0.75014989  0.89047573  1
  P  P228  1  0.94491390  0.08227286  0.13889630  1
  P  P229  1  0.94619633  0.08414610  0.39069268  1
  P  P230  1  0.94392849  0.08443012  0.63906204  1
  P  P231  1  0.94537702  0.08312201  0.88906230  1
  P  P232  1  0.94605588  0.41655516  0.13989426  1
  P  P233  1  0.94594182  0.41592802  0.38910001  1
  P  P234  1  0.94593063  0.41651566  0.63826046  1
  P  P235  1  0.94704379  0.41634822  0.89061627  1
  P  P236  1  0.94513145  0.75114997  0.13884369  1
  P  P237  1  0.94594752  0.75004540  0.39058611  1
  P  P238  1  0.94445910  0.74898639  0.63890483  1
  P  P239  1  0.94558260  0.75018948  0.89075727  1
  P  P240  1  0.19822152  0.08388970  0.23473525  1
  P  P241  1  0.19849320  0.08440582  0.48564240  1
  P  P242  1  0.19449545  0.08245365  0.73667926  1
  P  P243  1  0.19585676  0.08294931  0.98359905  1
  P  P244  1  0.19400535  0.41644629  0.23573750  1
  P  P245  1  0.19509145  0.41552609  0.48640110  1
  P  P246  1  0.19367622  0.41677699  0.73591655  1
  P  P247  1  0.19591025  0.41688330  0.98497657  1
  P  P248  1  0.19846712  0.74952961  0.23459644  1
  P  P249  1  0.19712501  0.75018800  0.48508815  1
  P  P250  1  0.19654367  0.75110594  0.73522344  1
  P  P251  1  0.19900399  0.75010347  0.98437354  1
  P  P252  1  0.69550340  0.08314832  0.23611575  1
  P  P253  1  0.69716081  0.08449326  0.48487957  1
  P  P254  1  0.69823028  0.08254734  0.73519670  1
  P  P255  1  0.69795444  0.08381174  0.98526647  1
  P  P256  1  0.69799770  0.41645298  0.23422137  1
  P  P257  1  0.69673712  0.41662315  0.48712231  1
  P  P258  1  0.69590194  0.41625249  0.73434450  1
  P  P259  1  0.69731014  0.41562776  0.98558104  1
  P  P260  1  0.69559967  0.75040381  0.23372748  1
  P  P261  1  0.69796694  0.74870066  0.48572009  1
  P  P262  1  0.69469386  0.75100014  0.73709893  1
  P  P263  1  0.69541011  0.75064819  0.98572903  1
  P  P264  1  0.30442295  0.25108085  0.01369495  1
  P  P265  1  0.30190288  0.24970789  0.26470506  1
  P  P266  1  0.30232199  0.25048740  0.51602046  1
  P  P267  1  0.30487141  0.25036105  0.76472099  1
  P  P268  1  0.30526346  0.58291593  0.01354328  1
  P  P269  1  0.30198928  0.58338641  0.26481946  1
  P  P270  1  0.30352636  0.58170028  0.51597259  1
  P  P271  1  0.30524397  0.58309959  0.76441217  1
  P  P272  1  0.30611529  0.91578529  0.01417275  1
  P  P273  1  0.30554226  0.91690079  0.26309898  1
  P  P274  1  0.30482326  0.91802133  0.51577605  1
  P  P275  1  0.30444169  0.91684564  0.76490775  1
  P  P276  1  0.80433613  0.24980974  0.01360694  1
  P  P277  1  0.80461070  0.25135132  0.26598886  1
  P  P278  1  0.80450552  0.25026676  0.51398284  1
  P  P279  1  0.80560861  0.24924522  0.76420335  1
  P  P280  1  0.80514128  0.58331677  0.01333204  1
  P  P281  1  0.80322190  0.58217026  0.26490046  1
  P  P282  1  0.80290325  0.58302477  0.51573437  1
  P  P283  1  0.80485349  0.58289215  0.76498401  1
  P  P284  1  0.80394728  0.91670047  0.01410616  1
  P  P285  1  0.80244488  0.91636061  0.26370391  1
  P  P286  1  0.80301697  0.91642705  0.51491721  1
  P  P287  1  0.80254464  0.91745012  0.76621382  1
  O  O288  1  0.05886270  0.24939748  0.18809918  1
  O  O289  1  0.05880523  0.24927897  0.43775415  1
  O  O290  1  0.05585331  0.24955997  0.68608215  1
  O  O291  1  0.05491102  0.24961268  0.93705883  1
  O  O292  1  0.05952380  0.58412348  0.18788660  1
  O  O293  1  0.05667764  0.58333468  0.43618300  1
  O  O294  1  0.05516205  0.58320680  0.68668676  1
  O  O295  1  0.05551383  0.58381620  0.93722213  1
  O  O296  1  0.05648314  0.91648034  0.18609019  1
  O  O297  1  0.05662566  0.91722506  0.43651627  1
  O  O298  1  0.05867585  0.91670563  0.68771792  1
  O  O299  1  0.05600587  0.91653780  0.93620739  1
  O  O300  1  0.55781397  0.25054132  0.18613756  1
  O  O301  1  0.55957103  0.25010921  0.43817904  1
  O  O302  1  0.55663802  0.25005340  0.68619869  1
  O  O303  1  0.55923076  0.24974753  0.93766420  1
  O  O304  1  0.55663179  0.58254804  0.18690516  1
  O  O305  1  0.55948952  0.58288955  0.43794427  1
  O  O306  1  0.55628847  0.58274483  0.68611705  1
  O  O307  1  0.55592559  0.58324836  0.93693826  1
  O  O308  1  0.55881716  0.91703027  0.18726667  1
  O  O309  1  0.55732124  0.91722027  0.43634980  1
  O  O310  1  0.55827998  0.91737675  0.68801842  1
  O  O311  1  0.55933610  0.91747993  0.93779688  1
  O  O312  1  0.44311018  0.08389467  0.06377605  1
  O  O313  1  0.44134829  0.08438098  0.31295682  1
  O  O314  1  0.44176694  0.08429590  0.56207824  1
  O  O315  1  0.44416753  0.08348890  0.81315357  1
  O  O316  1  0.44182149  0.41634439  0.06284399  1
  O  O317  1  0.44186959  0.41598541  0.31400867  1
  O  O318  1  0.44151691  0.41589770  0.56173116  1
  O  O319  1  0.44312523  0.41648246  0.81362082  1
  O  O320  1  0.44210205  0.74985383  0.06276660  1
  O  O321  1  0.44148508  0.74950332  0.31208763  1
  O  O322  1  0.44439888  0.75034613  0.56302280  1
  O  O323  1  0.44418809  0.75016677  0.81374626  1
  O  O324  1  0.94066729  0.08290669  0.06211542  1
  O  O325  1  0.94334986  0.08335594  0.31386573  1
  O  O326  1  0.93968473  0.08328070  0.56234106  1
  O  O327  1  0.94133602  0.08280508  0.81231565  1
  O  O328  1  0.94093260  0.41641472  0.06320490  1
  O  O329  1  0.94175572  0.41674715  0.31244751  1
  O  O330  1  0.94149592  0.41663165  0.56153589  1
  O  O331  1  0.94393790  0.41625523  0.81392962  1
  O  O332  1  0.94033603  0.75062143  0.06216448  1
  O  O333  1  0.94263938  0.74994700  0.31378885  1
  O  O334  1  0.94034398  0.74988767  0.56216890  1
  O  O335  1  0.94322597  0.75037703  0.81390014  1
  O  O336  1  0.19298266  0.08301375  0.06040230  1
  O  O337  1  0.19454170  0.08326390  0.31144091  1
  O  O338  1  0.19430529  0.08374217  0.56231281  1
  O  O339  1  0.18958404  0.08329183  0.81334243  1
  O  O340  1  0.19089766  0.41662484  0.06165352  1
  O  O341  1  0.19056907  0.41639460  0.31260293  1
  O  O342  1  0.19036785  0.41650286  0.56313447  1
  O  O343  1  0.18905149  0.41672202  0.81266344  1
  O  O344  1  0.19461944  0.75022411  0.06102789  1
  O  O345  1  0.19454988  0.75029558  0.31128568  1
  O  O346  1  0.19360817  0.75008186  0.56185938  1
  O  O347  1  0.19324018  0.75021744  0.81197005  1
  O  O348  1  0.69422399  0.08390269  0.06193142  1
  O  O349  1  0.69154769  0.08361392  0.31282931  1
  O  O350  1  0.69377006  0.08417004  0.56162713  1
  O  O351  1  0.69444545  0.08338225  0.81187468  1
  O  O352  1  0.69243844  0.41649131  0.06219710  1
  O  O353  1  0.69396263  0.41651988  0.31096589  1
  O  O354  1  0.69172505  0.41635442  0.56370665  1
  O  O355  1  0.69259589  0.41638555  0.81116853  1
  O  O356  1  0.69059683  0.74975196  0.06236960  1
  O  O357  1  0.69331252  0.74963115  0.31060410  1
  O  O358  1  0.69430913  0.74931061  0.56246144  1
  O  O359  1  0.69033034  0.74975439  0.81382269  1
  O  O360  1  0.30577869  0.25039666  0.18803618  1
  O  O361  1  0.30548968  0.25062556  0.43927464  1
  O  O362  1  0.30928895  0.25060381  0.68802542  1
  O  O363  1  0.30875870  0.25048179  0.93694456  1
  O  O364  1  0.30583456  0.58261864  0.18808570  1
  O  O365  1  0.30603230  0.58224855  0.43916015  1
  O  O366  1  0.30990331  0.58276372  0.68770820  1
  O  O367  1  0.30916688  0.58315783  0.93675737  1
  O  O368  1  0.30944849  0.91675529  0.18634997  1
  O  O369  1  0.30777132  0.91722815  0.43894695  1
  O  O370  1  0.30950064  0.91687986  0.68824074  1
  O  O371  1  0.31015729  0.91657430  0.93737024  1
  O  O372  1  0.80721626  0.25040533  0.18915123  1
  O  O373  1  0.80892763  0.25066606  0.43731657  1
  O  O374  1  0.80937496  0.25056403  0.68744694  1
  O  O375  1  0.80887809  0.25011783  0.93689047  1
  O  O376  1  0.80615520  0.58284529  0.18811863  1
  O  O377  1  0.80633726  0.58270107  0.43900518  1
  O  O378  1  0.80892198  0.58256698  0.68824558  1
  O  O379  1  0.80902960  0.58304702  0.93654303  1
  O  O380  1  0.80714082  0.91664077  0.18704609  1
  O  O381  1  0.80529748  0.91637306  0.43812643  1
  O  O382  1  0.80608901  0.91656138  0.68949536  1
  O  O383  1  0.80857399  0.91657807  0.93744914  1
  O  O384  1  0.23436056  0.25008753  0.03759178  1
  O  O385  1  0.23188533  0.25018568  0.28935971  1
  O  O386  1  0.23240032  0.25018255  0.54115911  1
  O  O387  1  0.23463773  0.25034676  0.78835282  1
  O  O388  1  0.23533121  0.58314008  0.03794953  1
  O  O389  1  0.23202662  0.58295288  0.28955952  1
  O  O390  1  0.23393725  0.58259761  0.54151189  1
  O  O391  1  0.23505828  0.58344062  0.78809847  1
  O  O392  1  0.23601623  0.91663270  0.03827189  1
  O  O393  1  0.23573820  0.91709105  0.28803348  1
  O  O394  1  0.23512252  0.91750702  0.54091379  1
  O  O395  1  0.23404059  0.91658125  0.78831560  1
  O  O396  1  0.73419070  0.24987480  0.03788241  1
  O  O397  1  0.73499863  0.25071968  0.29120819  1
  O  O398  1  0.73414723  0.25018067  0.53806278  1
  O  O399  1  0.73558494  0.24973429  0.78851224  1
  O  O400  1  0.73513700  0.58315311  0.03757980  1
  O  O401  1  0.73373589  0.58247476  0.29042902  1
  O  O402  1  0.73290435  0.58290564  0.54075557  1
  O  O403  1  0.73477891  0.58298954  0.78906688  1
  O  O404  1  0.73339858  0.91711879  0.03755915  1
  O  O405  1  0.73221288  0.91613260  0.28759649  1
  O  O406  1  0.73353363  0.91683462  0.54090891  1
  O  O407  1  0.73258559  0.91711267  0.79089407  1
  O  O408  1  0.26815611  0.08370191  0.20978843  1
  O  O409  1  0.26857458  0.08449293  0.46120405  1
  O  O410  1  0.26474385  0.08317866  0.71325106  1
  O  O411  1  0.26565385  0.08320898  0.95881804  1
  O  O412  1  0.26393017  0.41636865  0.21088429  1
  O  O413  1  0.26545340  0.41599578  0.46271823  1
  O  O414  1  0.26401251  0.41650503  0.71263593  1
  O  O415  1  0.26625807  0.41706508  0.96152914  1
  O  O416  1  0.26855991  0.74982770  0.21002315  1
  O  O417  1  0.26689275  0.74981477  0.46031704  1
  O  O418  1  0.26632081  0.75079367  0.71039769  1
  O  O419  1  0.26915228  0.74992151  0.96033523  1
  O  O420  1  0.76543021  0.08394692  0.21164043  1
  O  O421  1  0.76725810  0.08349873  0.46027807  1
  O  O422  1  0.76820696  0.08303700  0.71062209  1
  O  O423  1  0.76805787  0.08303932  0.96078845  1
  O  O424  1  0.76811491  0.41624133  0.20994297  1
  O  O425  1  0.76718253  0.41664264  0.46347313  1
  O  O426  1  0.76582842  0.41614017  0.71004766  1
  O  O427  1  0.76766968  0.41615511  0.96182562  1
  O  O428  1  0.76510631  0.75001694  0.20811540  1
  O  O429  1  0.76782936  0.74927175  0.46067615  1
  O  O430  1  0.76480379  0.75058824  0.71322793  1
  O  O431  1  0.76590301  0.75040416  0.96236769  1
  O  O432  1  0.01485161  0.08303194  0.16324892  1
  O  O433  1  0.01579544  0.08371122  0.41605502  1
  O  O434  1  0.01403442  0.08383126  0.66294862  1
  O  O435  1  0.01566018  0.08317128  0.91330664  1
  O  O436  1  0.01650239  0.41657104  0.16295918  1
  O  O437  1  0.01633440  0.41645212  0.41282395  1
  O  O438  1  0.01609564  0.41610272  0.66246470  1
  O  O439  1  0.01707166  0.41646788  0.91565933  1
  O  O440  1  0.01519753  0.75047436  0.16280677  1
  O  O441  1  0.01569258  0.74989163  0.41547314  1
  O  O442  1  0.01435711  0.74916549  0.66339811  1
  O  O443  1  0.01516497  0.75031877  0.91645811  1
  O  O444  1  0.51604928  0.08375744  0.16521140  1
  O  O445  1  0.51665826  0.08333781  0.41324297  1
  O  O446  1  0.51512467  0.08438752  0.66382884  1
  O  O447  1  0.51659210  0.08308116  0.91551662  1
  O  O448  1  0.51769545  0.41634078  0.16290299  1
  O  O449  1  0.51546745  0.41627041  0.41492055  1
  O  O450  1  0.51647149  0.41633865  0.66255799  1
  O  O451  1  0.51537559  0.41681069  0.91566809  1
  O  O452  1  0.51684613  0.74980697  0.16308925  1
  O  O453  1  0.51586853  0.75072715  0.41306315  1
  O  O454  1  0.51631599  0.74918783  0.66562894  1
  O  O455  1  0.51746789  0.75055049  0.91534658  1
  O  O456  1  0.48500488  0.25010497  0.08465734  1
  O  O457  1  0.48470449  0.25009666  0.33749408  1
  O  O458  1  0.48296845  0.25013859  0.58495521  1
  O  O459  1  0.48301828  0.25077888  0.83795981  1
  O  O460  1  0.48420251  0.58351876  0.08500139  1
  O  O461  1  0.48464506  0.58249369  0.33720145  1
  O  O462  1  0.48261258  0.58275792  0.58497169  1
  O  O463  1  0.48171750  0.58307767  0.83588948  1
  O  O464  1  0.48407294  0.91673787  0.08698951  1
  O  O465  1  0.48505424  0.91690445  0.33433572  1
  O  O466  1  0.48289270  0.91728303  0.58763072  1
  O  O467  1  0.48389685  0.91641707  0.83770107  1
  O  O468  1  0.98484282  0.24996380  0.08718152  1
  O  O469  1  0.98381723  0.25018651  0.33730760  1
  O  O470  1  0.98229955  0.25070484  0.58495910  1
  O  O471  1  0.98145020  0.24998996  0.83546088  1
  O  O472  1  0.98502468  0.58301304  0.08744713  1
  O  O473  1  0.98434323  0.58299505  0.33408099  1
  O  O474  1  0.98151994  0.58259787  0.58513242  1
  O  O475  1  0.98144362  0.58281059  0.83605123  1
  O  O476  1  0.98175570  0.91690375  0.08536697  1
  O  O477  1  0.98326984  0.91701088  0.33495777  1
  O  O478  1  0.98400974  0.91690059  0.58738149  1
  O  O479  1  0.98179218  0.91660552  0.83532382  1
  O  O480  1  0.08813107  0.31564059  0.07859161  1
  O  O481  1  0.08754269  0.31555163  0.32831840  1
  O  O482  1  0.08654284  0.31552468  0.57703606  1
  O  O483  1  0.08535941  0.31493738  0.82797824  1
  O  O484  1  0.08848968  0.64789458  0.07741364  1
  O  O485  1  0.08856078  0.64741050  0.32672501  1
  O  O486  1  0.08545145  0.64730669  0.57709592  1
  O  O487  1  0.08504567  0.64810363  0.82744321  1
  O  O488  1  0.08564530  0.98169370  0.07664428  1
  O  O489  1  0.08703864  0.98213126  0.32721833  1
  O  O490  1  0.08752619  0.98178426  0.57773128  1
  O  O491  1  0.08559058  0.98238797  0.82685112  1
  O  O492  1  0.58864340  0.31625359  0.07686895  1
  O  O493  1  0.58852307  0.31422477  0.32814262  1
  O  O494  1  0.58685475  0.31592307  0.57688500  1
  O  O495  1  0.58688321  0.31509163  0.82771884  1
  O  O496  1  0.58815779  0.64799531  0.07796497  1
  O  O497  1  0.58787252  0.64817820  0.32814871  1
  O  O498  1  0.58698555  0.64692712  0.57646049  1
  O  O499  1  0.58510696  0.64921012  0.82771943  1
  O  O500  1  0.58805223  0.98099381  0.07684746  1
  O  O501  1  0.58838647  0.98330056  0.32745073  1
  O  O502  1  0.58656531  0.98197827  0.57793640  1
  O  O503  1  0.58773487  0.98099640  0.82699363  1
  O  O504  1  0.41261135  0.01765503  0.17266904  1
  O  O505  1  0.41278121  0.01875688  0.42269474  1
  O  O506  1  0.41157233  0.01920528  0.67176602  1
  O  O507  1  0.41280120  0.01825654  0.92198935  1
  O  O508  1  0.41401600  0.35138043  0.17292065  1
  O  O509  1  0.41145520  0.35131079  0.42368267  1
  O  O510  1  0.41301379  0.35097781  0.67175253  1
  O  O511  1  0.41140762  0.35178669  0.92302570  1
  O  O512  1  0.41261086  0.68596357  0.17311700  1
  O  O513  1  0.41264610  0.68490319  0.42209015  1
  O  O514  1  0.41222884  0.68474985  0.67142143  1
  O  O515  1  0.41367407  0.68499722  0.92310963  1
  O  O516  1  0.91150867  0.01702379  0.17167428  1
  O  O517  1  0.91139677  0.01945795  0.42318088  1
  O  O518  1  0.91000162  0.01980619  0.67288233  1
  O  O519  1  0.91186318  0.01808200  0.92225171  1
  O  O520  1  0.91286161  0.35161909  0.17343014  1
  O  O521  1  0.91273497  0.35081198  0.42234713  1
  O  O522  1  0.91243451  0.35145491  0.67135823  1
  O  O523  1  0.91315593  0.35118676  0.92326873  1
  O  O524  1  0.91154603  0.68614279  0.17213817  1
  O  O525  1  0.91165495  0.68500017  0.42299069  1
  O  O526  1  0.91079273  0.68382921  0.67140661  1
  O  O527  1  0.91118733  0.68515406  0.92282254  1
  O  O528  1  0.16434898  0.01888635  0.20173723  1
  O  O529  1  0.16494635  0.01948860  0.45227219  1
  O  O530  1  0.16169366  0.01710201  0.70360118  1
  O  O531  1  0.16170940  0.01786550  0.95136002  1
  O  O532  1  0.16019050  0.35132174  0.20302808  1
  O  O533  1  0.16189847  0.35020433  0.45349137  1
  O  O534  1  0.16017021  0.35182571  0.70258958  1
  O  O535  1  0.16246152  0.35193718  0.95143433  1
  O  O536  1  0.16478133  0.68434238  0.20213066  1
  O  O537  1  0.16295469  0.68507420  0.45287582  1
  O  O538  1  0.16251836  0.68600799  0.70255212  1
  O  O539  1  0.16513940  0.68518467  0.95145452  1
  O  O540  1  0.66228885  0.01794071  0.20300601  1
  O  O541  1  0.66262013  0.01974470  0.45230857  1
  O  O542  1  0.66444101  0.01734915  0.70285696  1
  O  O543  1  0.66380183  0.01887990  0.95271695  1
  O  O544  1  0.66403559  0.35149171  0.20148919  1
  O  O545  1  0.66373116  0.35158787  0.45339007  1
  O  O546  1  0.66182737  0.35129601  0.70176811  1
  O  O547  1  0.66428928  0.35039304  0.95246683  1
  O  O548  1  0.66104443  0.68549383  0.20137469  1
  O  O549  1  0.66423773  0.68354800  0.45328696  1
  O  O550  1  0.66133980  0.68608546  0.70345982  1
  O  O551  1  0.66206179  0.68583016  0.95180760  1
  O  O552  1  0.33728056  0.31644759  0.04692401  1
  O  O553  1  0.33575431  0.31456055  0.29781729  1
  O  O554  1  0.33625964  0.31561963  0.54872160  1
  O  O555  1  0.33836840  0.31532929  0.79792991  1
  O  O556  1  0.33905229  0.64800835  0.04637943  1
  O  O557  1  0.33590223  0.64854281  0.29710208  1
  O  O558  1  0.33855050  0.64639254  0.54820965  1
  O  O559  1  0.33911263  0.64799316  0.79749288  1
  O  O560  1  0.34022889  0.98053440  0.04736733  1
  O  O561  1  0.33925067  0.98215555  0.29580645  1
  O  O562  1  0.33871150  0.98333573  0.54784157  1
  O  O563  1  0.33776327  0.98179631  0.79839313  1
  O  O564  1  0.83785852  0.31479621  0.04688236  1
  O  O565  1  0.83860485  0.31663859  0.29790121  1
  O  O566  1  0.83799666  0.31516986  0.54759368  1
  O  O567  1  0.83955138  0.31393491  0.79775513  1
  O  O568  1  0.83837777  0.64864053  0.04619604  1
  O  O569  1  0.83743802  0.64717689  0.29729596  1
  O  O570  1  0.83683307  0.64808078  0.54824357  1
  O  O571  1  0.83862246  0.64783840  0.79793238  1
  O  O572  1  0.83744468  0.98161854  0.04743499  1
  O  O573  1  0.83566612  0.98136654  0.29721540  1
  O  O574  1  0.83744571  0.98158001  0.54678735  1
  O  O575  1  0.83660088  0.98257127  0.79844271  1
  O  O576  1  0.41178646  0.14776964  0.17348685  1
  O  O577  1  0.41294820  0.14862461  0.42333899  1
  O  O578  1  0.41144723  0.14948880  0.67136710  1
  O  O579  1  0.41294305  0.14852889  0.92220083  1
  O  O580  1  0.41402448  0.48141493  0.17286254  1
  O  O581  1  0.41132574  0.48108584  0.42339011  1
  O  O582  1  0.41273016  0.48114084  0.67151724  1
  O  O583  1  0.41145343  0.48182247  0.92265244  1
  O  O584  1  0.41351021  0.81601965  0.17236086  1
  O  O585  1  0.41212973  0.81500382  0.42162188  1
  O  O586  1  0.41310159  0.81510903  0.67242895  1
  O  O587  1  0.41335326  0.81509872  0.92306423  1
  O  O588  1  0.91113533  0.14721995  0.17198308  1
  O  O589  1  0.91202390  0.14944786  0.42254435  1
  O  O590  1  0.91081657  0.14993378  0.67155053  1
  O  O591  1  0.91193153  0.14825972  0.92215171  1
  O  O592  1  0.91277069  0.48151177  0.17337065  1
  O  O593  1  0.91216620  0.48061055  0.42278155  1
  O  O594  1  0.91266428  0.48147792  0.67164984  1
  O  O595  1  0.91292570  0.48124953  0.92328370  1
  O  O596  1  0.91190236  0.81643253  0.17178644  1
  O  O597  1  0.91167950  0.81495583  0.42309428  1
  O  O598  1  0.91085405  0.81400021  0.67232184  1
  O  O599  1  0.91101222  0.81531268  0.92269609  1
  O  O600  1  0.08844187  0.18547249  0.07788661  1
  O  O601  1  0.08767482  0.18548542  0.32725175  1
  O  O602  1  0.08621626  0.18569999  0.57614968  1
  O  O603  1  0.08511427  0.18477522  0.82744934  1
  O  O604  1  0.08840837  0.51764260  0.07850082  1
  O  O605  1  0.08805932  0.51725545  0.32765248  1
  O  O606  1  0.08526960  0.51729252  0.57756649  1
  O  O607  1  0.08539364  0.51790478  0.82815022  1
  O  O608  1  0.08554042  0.85169645  0.07626418  1
  O  O609  1  0.08702237  0.85194587  0.32718251  1
  O  O610  1  0.08742951  0.85160084  0.57781205  1
  O  O611  1  0.08626276  0.85232255  0.82666482  1
  O  O612  1  0.58941877  0.18629759  0.07658509  1
  O  O613  1  0.58788568  0.18404486  0.32857699  1
  O  O614  1  0.58749295  0.18605337  0.57662713  1
  O  O615  1  0.58621318  0.18503794  0.82717066  1
  O  O616  1  0.58773954  0.51779172  0.07742326  1
  O  O617  1  0.58834306  0.51796396  0.32813048  1
  O  O618  1  0.58652000  0.51702215  0.57680974  1
  O  O619  1  0.58585855  0.51909113  0.82731409  1
  O  O620  1  0.58761288  0.85099407  0.07751927  1
  O  O621  1  0.58947292  0.85316902  0.32701137  1
  O  O622  1  0.58628532  0.85183225  0.57809495  1
  O  O623  1  0.58757680  0.85100704  0.82829141  1
  O  O624  1  0.33831192  0.18619869  0.04676341  1
  O  O625  1  0.33566560  0.18455385  0.29729805  1
  O  O626  1  0.33691039  0.18570744  0.54841824  1
  O  O627  1  0.33849159  0.18543614  0.79796203  1
  O  O628  1  0.33853443  0.51763276  0.04664323  1
  O  O629  1  0.33583031  0.51839255  0.29767146  1
  O  O630  1  0.33735289  0.51632196  0.54809193  1
  O  O631  1  0.33852283  0.51806916  0.79777390  1
  O  O632  1  0.33953433  0.85049695  0.04685239  1
  O  O633  1  0.33912855  0.85172537  0.29595823  1
  O  O634  1  0.33932546  0.85315989  0.54845016  1
  O  O635  1  0.33821119  0.85202246  0.79816617  1
  O  O636  1  0.83763623  0.18460410  0.04661024  1
  O  O637  1  0.83932986  0.18666781  0.29856400  1
  O  O638  1  0.83784676  0.18507114  0.54688662  1
  O  O639  1  0.83907329  0.18390095  0.79665615  1
  O  O640  1  0.83880877  0.51829081  0.04632430  1
  O  O641  1  0.83735003  0.51704825  0.29704981  1
  O  O642  1  0.83706696  0.51799934  0.54843323  1
  O  O643  1  0.83854210  0.51786440  0.79796672  1
  O  O644  1  0.83683680  0.85148539  0.04760775  1
  O  O645  1  0.83590038  0.85140277  0.29684459  1
  O  O646  1  0.83700049  0.85128771  0.54725452  1
  O  O647  1  0.83668876  0.85270611  0.79932201  1
  O  O648  1  0.16422969  0.14903785  0.20248736  1
  O  O649  1  0.16453375  0.14953114  0.45323740  1
  O  O650  1  0.16112300  0.14742693  0.70307100  1
  O  O651  1  0.16135106  0.14778594  0.95113048  1
  O  O652  1  0.16033723  0.48154402  0.20286467  1
  O  O653  1  0.16135575  0.48020323  0.45266975  1
  O  O654  1  0.16046317  0.48182087  0.70251655  1
  O  O655  1  0.16233502  0.48176721  0.95159643  1
  O  O656  1  0.16469313  0.81452593  0.20144434  1
  O  O657  1  0.16354712  0.81535820  0.45237919  1
  O  O658  1  0.16261650  0.81633037  0.70317175  1
  O  O659  1  0.16525500  0.81515931  0.95164362  1
  O  O660  1  0.66176563  0.14810715  0.20307306  1
  O  O661  1  0.66370113  0.14975198  0.45226280  1
  O  O662  1  0.66429480  0.14745156  0.70220812  1
  O  O663  1  0.66477684  0.14903463  0.95215432  1
  O  O664  1  0.66415556  0.48136172  0.20116819  1
  O  O665  1  0.66366660  0.48175517  0.45376421  1
  O  O666  1  0.66179712  0.48125803  0.70182339  1
  O  O667  1  0.66382256  0.48055392  0.95200913  1
  O  O668  1  0.66121463  0.81551428  0.20185263  1
  O  O669  1  0.66377270  0.81371500  0.45316097  1
  O  O670  1  0.66162132  0.81648124  0.70448001  1
  O  O671  1  0.66218097  0.81591455  0.95291408  1
