# generated using pymatgen
data_Na2MnFe(PO4)2
_symmetry_space_group_name_H-M   'P 1'
_cell_length_a   21.07945209
_cell_length_b   18.93028478
_cell_length_c   20.03886234
_cell_angle_alpha   89.99952819
_cell_angle_beta   90.00128813
_cell_angle_gamma   90.00050164
_symmetry_Int_Tables_number   1
_chemical_formula_structural   Na2MnFe(PO4)2
_chemical_formula_sum   'Na96 Mn48 Fe48 P96 O384'
_cell_volume   7996.30825030
_cell_formula_units_Z   48
loop_
 _symmetry_equiv_pos_site_id
 _symmetry_equiv_pos_as_xyz
  1  'x, y, z'
loop_
 _atom_site_type_symbol
 _atom_site_label
 _atom_site_symmetry_multiplicity
 _atom_site_fract_x
 _atom_site_fract_y
 _atom_site_fract_z
 _atom_site_occupancy
  Na  Na0  1  -0.00055715  -0.00005260  -0.00097203  1
  Na  Na1  1  -0.00197479  -0.00082520  0.24935405  1
  Na  Na2  1  -0.00219840  -0.00039842  0.50051086  1
  Na  Na3  1  -0.00180985  -0.00135533  0.75093372  1
  Na  Na4  1  0.00012821  0.33415003  0.00060810  1
  Na  Na5  1  -0.00250937  0.33272175  0.24902139  1
  Na  Na6  1  0.00042128  0.33454174  0.49939559  1
  Na  Na7  1  -0.00009113  0.33350610  0.75096710  1
  Na  Na8  1  -0.00195281  0.66658107  -0.00014094  1
  Na  Na9  1  -0.00020404  0.66659576  0.24985302  1
  Na  Na10  1  0.00024813  0.66670281  0.50048776  1
  Na  Na11  1  -0.00222014  0.66567827  0.74929563  1
  Na  Na12  1  0.50227447  0.00042163  0.00083507  1
  Na  Na13  1  0.50111363  0.00009442  0.24888161  1
  Na  Na14  1  0.49900926  -0.00093697  0.50040921  1
  Na  Na15  1  0.50115281  0.00031804  0.75032016  1
  Na  Na16  1  0.49961039  0.33342840  -0.00060740  1
  Na  Na17  1  0.50097162  0.33385003  0.25013648  1
  Na  Na18  1  0.50169571  0.33431080  0.49988161  1
  Na  Na19  1  0.50066346  0.33391714  0.75055850  1
  Na  Na20  1  0.49943535  0.66616843  -0.00073470  1
  Na  Na21  1  0.49967586  0.66671137  0.24919254  1
  Na  Na22  1  0.49886548  0.66642188  0.50092875  1
  Na  Na23  1  0.49872420  0.66605937  0.75083557  1
  Na  Na24  1  0.24873382  -0.00023840  0.12505900  1
  Na  Na25  1  0.25124148  0.00004525  0.37485787  1
  Na  Na26  1  0.24994638  -0.00079876  0.62422408  1
  Na  Na27  1  0.24880175  -0.00025856  0.87580663  1
  Na  Na28  1  0.24812524  0.33336608  0.12480746  1
  Na  Na29  1  0.25026864  0.33437042  0.37582114  1
  Na  Na30  1  0.25000538  0.33385972  0.62546858  1
  Na  Na31  1  0.24928001  0.33359702  0.87449879  1
  Na  Na32  1  0.24913084  0.66588615  0.12401131  1
  Na  Na33  1  0.25077707  0.66674247  0.37510698  1
  Na  Na34  1  0.25155277  0.66648871  0.62543513  1
  Na  Na35  1  0.25315260  0.66791355  0.87507280  1
  Na  Na36  1  0.75052639  -0.00040304  0.12411031  1
  Na  Na37  1  0.75082474  -0.00029482  0.37485231  1
  Na  Na38  1  0.75228030  0.00041068  0.62533630  1
  Na  Na39  1  0.75138328  -0.00035288  0.87494634  1
  Na  Na40  1  0.75149043  0.33355670  0.12433545  1
  Na  Na41  1  0.74997762  0.33375035  0.37567463  1
  Na  Na42  1  0.74738162  0.33297572  0.62464723  1
  Na  Na43  1  0.75194923  0.33498441  0.87555387  1
  Na  Na44  1  0.75109471  0.66645904  0.12538559  1
  Na  Na45  1  0.75148869  0.66696286  0.37494066  1
  Na  Na46  1  0.74948442  0.66628418  0.62448231  1
  Na  Na47  1  0.75098622  0.66661681  0.87523750  1
  Na  Na48  1  -0.00153633  0.16670274  -0.00063839  1
  Na  Na49  1  -0.00063083  0.16563300  0.24908480  1
  Na  Na50  1  -0.00150896  0.16689496  0.49962617  1
  Na  Na51  1  -0.00209661  0.16757495  0.75145146  1
  Na  Na52  1  -0.00231251  0.50142011  0.00107883  1
  Na  Na53  1  -0.00138590  0.50074753  0.25029956  1
  Na  Na54  1  0.00143612  0.50020619  0.49878997  1
  Na  Na55  1  0.00159302  0.49944531  0.75000217  1
  Na  Na56  1  -0.00103377  0.83360668  -0.00154768  1
  Na  Na57  1  -0.00050704  0.83294114  0.24946052  1
  Na  Na58  1  -0.00390672  0.83452591  0.50137212  1
  Na  Na59  1  -0.00228882  0.83346584  0.75055872  1
  Na  Na60  1  0.50118963  0.16575562  0.00073200  1
  Na  Na61  1  0.50096998  0.16614142  0.25002275  1
  Na  Na62  1  0.49981335  0.16660498  0.50018846  1
  Na  Na63  1  0.50008896  0.16630929  0.74953568  1
  Na  Na64  1  0.50084255  0.49953295  -0.00089913  1
  Na  Na65  1  0.50034784  0.50056512  0.24932065  1
  Na  Na66  1  0.50005562  0.50104336  0.50080187  1
  Na  Na67  1  0.49943244  0.50107960  0.75120640  1
  Na  Na68  1  0.50033413  0.83364001  0.00000831  1
  Na  Na69  1  0.50013308  0.83333955  0.24863895  1
  Na  Na70  1  0.49841858  0.83371619  0.50004098  1
  Na  Na71  1  0.50077142  0.83267526  0.75097323  1
  Na  Na72  1  0.24781873  0.16706186  0.12483732  1
  Na  Na73  1  0.25072573  0.16581178  0.37463129  1
  Na  Na74  1  0.25059774  0.16575866  0.62540272  1
  Na  Na75  1  0.24975117  0.16606657  0.87535908  1
  Na  Na76  1  0.24983915  0.50039191  0.12383799  1
  Na  Na77  1  0.24940883  0.50109738  0.37618952  1
  Na  Na78  1  0.25060133  0.50026317  0.62540732  1
  Na  Na79  1  0.25190337  0.49918684  0.87396688  1
  Na  Na80  1  0.24833435  0.83354239  0.12519591  1
  Na  Na81  1  0.25159309  0.83238013  0.37497515  1
  Na  Na82  1  0.25156463  0.83269247  0.62424518  1
  Na  Na83  1  0.24969361  0.83309016  0.87612703  1
  Na  Na84  1  0.75081197  0.16637222  0.12400873  1
  Na  Na85  1  0.75133594  0.16599679  0.37464351  1
  Na  Na86  1  0.75027461  0.16692772  0.62564898  1
  Na  Na87  1  0.75227519  0.16534569  0.87575487  1
  Na  Na88  1  0.75188565  0.50000861  0.12494119  1
  Na  Na89  1  0.75126650  0.49954822  0.37518855  1
  Na  Na90  1  0.74726602  0.50161902  0.62428728  1
  Na  Na91  1  0.74998441  0.50058415  0.87563037  1
  Na  Na92  1  0.75040611  0.83430918  0.12500205  1
  Na  Na93  1  0.75097952  0.83338099  0.37542388  1
  Na  Na94  1  0.75128424  0.83259859  0.62461627  1
  Na  Na95  1  0.75308852  0.83206094  0.87423727  1
  Mn  Mn96  1  0.89158992  0.25063087  0.62741037  1
  Mn  Mn97  1  0.35803845  0.41651928  0.50282651  1
  Mn  Mn98  1  0.60815711  0.75041842  0.87312761  1
  Mn  Mn99  1  0.60872645  0.74973347  0.12207443  1
  Mn  Mn100  1  0.89241230  0.24982354  0.12732165  1
  Mn  Mn101  1  0.60853847  0.08328901  0.62274959  1
  Mn  Mn102  1  0.14200879  0.91599262  0.49776479  1
  Mn  Mn103  1  0.85784077  0.08327668  0.50260519  1
  Mn  Mn104  1  0.35787328  0.08275060  0.75302062  1
  Mn  Mn105  1  0.64265569  0.91649797  0.49778690  1
  Mn  Mn106  1  0.10698353  0.08312975  0.37300636  1
  Mn  Mn107  1  0.60774532  0.41727721  0.37243222  1
  Mn  Mn108  1  0.39217508  0.25005750  0.12675855  1
  Mn  Mn109  1  0.14114818  0.25045412  0.24809119  1
  Mn  Mn110  1  0.89213400  0.58289316  0.62707108  1
  Mn  Mn111  1  0.85790243  0.41730481  0.75186652  1
  Mn  Mn112  1  0.39264512  0.58285559  0.12654699  1
  Mn  Mn113  1  0.64284658  0.58345986  0.24802457  1
  Mn  Mn114  1  0.35732862  0.74970141  0.25161079  1
  Mn  Mn115  1  0.39215018  0.91614472  0.62806279  1
  Mn  Mn116  1  0.14193449  0.58293537  0.99703851  1
  Mn  Mn117  1  0.10711037  0.41655806  0.37238170  1
  Mn  Mn118  1  0.14300231  0.58423863  0.74843832  1
  Mn  Mn119  1  0.85719617  0.41711927  0.50288620  1
  Mn  Mn120  1  0.64318369  0.24997565  0.99728645  1
  Mn  Mn121  1  0.35790333  0.41708925  0.25161987  1
  Mn  Mn122  1  0.60736588  0.75044364  0.37315706  1
  Mn  Mn123  1  0.39190309  0.24958143  0.87780486  1
  Mn  Mn124  1  0.39267471  0.91698333  0.12663835  1
  Mn  Mn125  1  0.10703209  0.74909450  0.87256416  1
  Mn  Mn126  1  0.39267969  0.25088493  0.62717446  1
  Mn  Mn127  1  0.10736005  0.75044941  0.37367814  1
  Mn  Mn128  1  0.14183421  0.24968605  0.49749177  1
  Mn  Mn129  1  0.39217855  0.91707587  0.87780014  1
  Mn  Mn130  1  0.10702763  0.08363581  0.62296887  1
  Mn  Mn131  1  0.60791285  0.08266598  0.37275905  1
  Mn  Mn132  1  0.10686130  0.41685332  0.12263602  1
  Mn  Mn133  1  0.14166846  0.24935807  0.74754435  1
  Mn  Mn134  1  0.10685165  0.08372906  0.87287401  1
  Mn  Mn135  1  0.39213522  0.24976369  0.37744630  1
  Mn  Mn136  1  0.14119889  0.91610720  0.24805493  1
  Mn  Mn137  1  0.10760456  0.74965779  0.62309549  1
  Mn  Mn138  1  0.64369710  0.91591303  0.74794422  1
  Mn  Mn139  1  0.60798687  0.41615598  0.87289500  1
  Mn  Mn140  1  0.85845928  0.75022972  0.25272771  1
  Mn  Mn141  1  0.35773938  0.08344299  0.25155130  1
  Mn  Mn142  1  0.64298384  0.24956729  0.24741231  1
  Mn  Mn143  1  0.64289302  0.25050429  0.74830445  1
  Fe  Fe144  1  0.85787209  0.41719367  0.00174404  1
  Fe  Fe145  1  0.35677533  0.75050924  0.00203274  1
  Fe  Fe146  1  0.14205721  0.58351854  0.24853998  1
  Fe  Fe147  1  0.39320564  0.58325271  0.87699339  1
  Fe  Fe148  1  0.85770125  0.08342088  0.75233870  1
  Fe  Fe149  1  0.60700160  0.41750562  0.62398475  1
  Fe  Fe150  1  0.64412719  0.58397409  0.99874109  1
  Fe  Fe151  1  0.64231641  0.25006111  0.49805173  1
  Fe  Fe152  1  0.64210985  0.58370710  0.49770868  1
  Fe  Fe153  1  0.89231075  0.91677694  0.62760892  1
  Fe  Fe154  1  0.39264762  0.91628560  0.37595850  1
  Fe  Fe155  1  0.35798427  0.75040822  0.75190823  1
  Fe  Fe156  1  0.39336043  0.58326205  0.62707514  1
  Fe  Fe157  1  0.85700257  0.74919903  0.50200988  1
  Fe  Fe158  1  0.35753799  0.41669103  0.75198877  1
  Fe  Fe159  1  0.89273374  0.91634034  0.12627862  1
  Fe  Fe160  1  0.89273725  0.91638051  0.87729013  1
  Fe  Fe161  1  0.85739447  0.08362916  0.25111378  1
  Fe  Fe162  1  0.89163049  0.91635684  0.37681260  1
  Fe  Fe163  1  0.35793019  0.75013124  0.50205487  1
  Fe  Fe164  1  0.60868830  0.08379454  0.12279482  1
  Fe  Fe165  1  0.10687441  0.41724675  0.87398434  1
  Fe  Fe166  1  0.10831524  0.41672228  0.62381977  1
  Fe  Fe167  1  0.35765171  0.08295415  0.50142475  1
  Fe  Fe168  1  0.60805513  0.08334061  0.87375210  1
  Fe  Fe169  1  0.14228494  0.24977365  0.99824646  1
  Fe  Fe170  1  0.85694598  0.74933143  0.75140140  1
  Fe  Fe171  1  0.10655365  0.08234792  0.12297018  1
  Fe  Fe172  1  0.89161535  0.58274848  0.87644299  1
  Fe  Fe173  1  0.64230992  0.58385163  0.74870610  1
  Fe  Fe174  1  0.89176619  0.25016064  0.37696251  1
  Fe  Fe175  1  0.85756778  0.74982684  0.00180684  1
  Fe  Fe176  1  0.60855571  0.41647497  0.12278075  1
  Fe  Fe177  1  0.14212115  0.91682559  0.99870216  1
  Fe  Fe178  1  0.85719392  0.41618085  0.25204570  1
  Fe  Fe179  1  0.60732758  0.74950154  0.62337707  1
  Fe  Fe180  1  0.64420762  0.91595519  0.99808381  1
  Fe  Fe181  1  0.35700647  0.08332709  0.00207670  1
  Fe  Fe182  1  0.35682946  0.41603394  0.00180222  1
  Fe  Fe183  1  0.14362345  0.58380497  0.49864155  1
  Fe  Fe184  1  0.14213327  0.91606981  0.74851003  1
  Fe  Fe185  1  0.39195477  0.58385308  0.37693347  1
  Fe  Fe186  1  0.64313826  0.91685364  0.24842241  1
  Fe  Fe187  1  0.85713235  0.08270021  0.00203161  1
  Fe  Fe188  1  0.89262266  0.58424999  0.12712141  1
  Fe  Fe189  1  0.89298268  0.58362449  0.37743879  1
  Fe  Fe190  1  0.10656121  0.75041416  0.12289067  1
  Fe  Fe191  1  0.89263647  0.25096145  0.87720971  1
  P  P192  1  0.05362453  0.24896708  0.10918497  1
  P  P193  1  0.05090739  0.24993108  0.35963964  1
  P  P194  1  0.05268679  0.25070405  0.60986217  1
  P  P195  1  0.05319501  0.25120303  0.86186646  1
  P  P196  1  0.05302586  0.58438652  0.11105313  1
  P  P197  1  0.05378179  0.58393939  0.36072482  1
  P  P198  1  0.05444321  0.58273476  0.60948807  1
  P  P199  1  0.05147035  0.58270891  0.86011173  1
  P  P200  1  0.05235565  0.91635529  0.10917069  1
  P  P201  1  0.05088707  0.91635571  0.36032044  1
  P  P202  1  0.05275858  0.91634829  0.61140539  1
  P  P203  1  0.05370679  0.91635440  0.86075369  1
  P  P204  1  0.55429124  0.25027282  0.10976653  1
  P  P205  1  0.55448579  0.24975668  0.36067357  1
  P  P206  1  0.55448424  0.25107816  0.60972798  1
  P  P207  1  0.55354059  0.24873094  0.86014769  1
  P  P208  1  0.55492529  0.58258609  0.10879123  1
  P  P209  1  0.55268640  0.58415671  0.36082150  1
  P  P210  1  0.55439866  0.58385832  0.61141269  1
  P  P211  1  0.55468194  0.58364676  0.86105020  1
  P  P212  1  0.55635601  0.91734269  0.11013392  1
  P  P213  1  0.55270786  0.91629012  0.35912659  1
  P  P214  1  0.55390370  0.91528000  0.61048426  1
  P  P215  1  0.55524453  0.91741155  0.86141403  1
  P  P216  1  0.44721823  0.08345149  0.13867753  1
  P  P217  1  0.44621511  0.08203384  0.39029416  1
  P  P218  1  0.44595010  0.08324858  0.63935697  1
  P  P219  1  0.44765253  0.08298445  0.89140277  1
  P  P220  1  0.44745073  0.41644826  0.13859920  1
  P  P221  1  0.44656752  0.41787333  0.39007573  1
  P  P222  1  0.44748129  0.41785725  0.64087616  1
  P  P223  1  0.44480535  0.41725973  0.88955877  1
  P  P224  1  0.44582314  0.75001473  0.13839254  1
  P  P225  1  0.44572809  0.75004909  0.39021327  1
  P  P226  1  0.44636573  0.74908777  0.63998921  1
  P  P227  1  0.44496565  0.74971573  0.88986586  1
  P  P228  1  0.94561731  0.08198906  0.13864580  1
  P  P229  1  0.94457352  0.08329044  0.38858145  1
  P  P230  1  0.94560623  0.08300093  0.64130312  1
  P  P231  1  0.94415218  0.08329190  0.88948137  1
  P  P232  1  0.94434298  0.41787108  0.13952484  1
  P  P233  1  0.94462259  0.41681128  0.38872779  1
  P  P234  1  0.94842090  0.41717043  0.64006549  1
  P  P235  1  0.94681113  0.41732553  0.89062763  1
  P  P236  1  0.94610900  0.75052679  0.13838785  1
  P  P237  1  0.94571980  0.74982108  0.39095190  1
  P  P238  1  0.94455056  0.75011900  0.63969541  1
  P  P239  1  0.94408177  0.74921834  0.88896800  1
  P  P240  1  0.19527189  0.08297196  0.23420946  1
  P  P241  1  0.19759180  0.08277278  0.48485804  1
  P  P242  1  0.19626964  0.08177619  0.73514454  1
  P  P243  1  0.19570606  0.08312484  0.98641671  1
  P  P244  1  0.19617097  0.41814228  0.23488186  1
  P  P245  1  0.19534210  0.41778142  0.48645169  1
  P  P246  1  0.19618288  0.41723301  0.73597889  1
  P  P247  1  0.19665095  0.41617297  0.98419873  1
  P  P248  1  0.19520014  0.74888029  0.23436035  1
  P  P249  1  0.19811495  0.74911026  0.48539128  1
  P  P250  1  0.19801754  0.75063686  0.73531423  1
  P  P251  1  0.19580808  0.75046704  0.98611188  1
  P  P252  1  0.69777441  0.08247734  0.23428393  1
  P  P253  1  0.69692178  0.08371860  0.48489163  1
  P  P254  1  0.69755043  0.08314314  0.73656735  1
  P  P255  1  0.69670041  0.08224859  0.98553897  1
  P  P256  1  0.69776424  0.41676959  0.23437624  1
  P  P257  1  0.69452481  0.41732991  0.48632383  1
  P  P258  1  0.69617501  0.41802325  0.73461592  1
  P  P259  1  0.69731160  0.41777102  0.98628902  1
  P  P260  1  0.69714784  0.75077227  0.23523011  1
  P  P261  1  0.69653060  0.74922276  0.48607371  1
  P  P262  1  0.69731488  0.74909771  0.73453898  1
  P  P263  1  0.69860646  0.74996328  0.98514623  1
  P  P264  1  0.30188055  0.24999856  0.01482353  1
  P  P265  1  0.30270568  0.25038080  0.26497013  1
  P  P266  1  0.30320094  0.24911386  0.51541657  1
  P  P267  1  0.30320486  0.25057087  0.76515077  1
  P  P268  1  0.30469403  0.58302545  0.01312555  1
  P  P269  1  0.30248506  0.58328773  0.26521840  1
  P  P270  1  0.30482999  0.58415344  0.51498536  1
  P  P271  1  0.30614106  0.58354829  0.76426209  1
  P  P272  1  0.30206870  0.91685742  0.01514949  1
  P  P273  1  0.30351938  0.91651372  0.26514496  1
  P  P274  1  0.30503557  0.91639472  0.51357516  1
  P  P275  1  0.30198890  0.91565877  0.76557268  1
  P  P276  1  0.80535059  0.25011512  0.01356089  1
  P  P277  1  0.80415068  0.24978423  0.26515643  1
  P  P278  1  0.80267056  0.25036977  0.51428371  1
  P  P279  1  0.80417480  0.25004658  0.76607632  1
  P  P280  1  0.80480757  0.58363097  0.01445826  1
  P  P281  1  0.80550931  0.58269947  0.26475075  1
  P  P282  1  0.80302710  0.58396968  0.51389644  1
  P  P283  1  0.80232800  0.58376992  0.76518659  1
  P  P284  1  0.80480244  0.91621495  0.01400082  1
  P  P285  1  0.80408327  0.91755484  0.26400636  1
  P  P286  1  0.80534266  0.91558535  0.51473157  1
  P  P287  1  0.80583519  0.91616416  0.76442786  1
  O  O288  1  0.05604859  0.24967301  0.18601227  1
  O  O289  1  0.05519787  0.25005760  0.43635299  1
  O  O290  1  0.05563687  0.24993859  0.68674488  1
  O  O291  1  0.05822344  0.25012199  0.93851264  1
  O  O292  1  0.05759798  0.58358901  0.18769276  1
  O  O293  1  0.05917327  0.58406934  0.43734942  1
  O  O294  1  0.05756377  0.58369548  0.68630302  1
  O  O295  1  0.05531899  0.58376141  0.93682373  1
  O  O296  1  0.05551042  0.91634861  0.18591050  1
  O  O297  1  0.05502060  0.91642193  0.43704667  1
  O  O298  1  0.05784246  0.91574886  0.68808809  1
  O  O299  1  0.05903555  0.91641108  0.93742030  1
  O  O300  1  0.55705025  0.25028667  0.18659408  1
  O  O301  1  0.55880427  0.24969808  0.43745064  1
  O  O302  1  0.55734331  0.25000508  0.68656969  1
  O  O303  1  0.55704001  0.24951041  0.93690595  1
  O  O304  1  0.55776664  0.58355509  0.18565304  1
  O  O305  1  0.55769336  0.58416591  0.43752801  1
  O  O306  1  0.55860446  0.58412650  0.68817678  1
  O  O307  1  0.56019543  0.58385102  0.93764658  1
  O  O308  1  0.56032881  0.91656700  0.18693646  1
  O  O309  1  0.55672465  0.91628304  0.43586367  1
  O  O310  1  0.55747491  0.91583054  0.68728357  1
  O  O311  1  0.55994148  0.91628225  0.93814209  1
  O  O312  1  0.44126166  0.08326567  0.06206803  1
  O  O313  1  0.44357840  0.08298702  0.31342635  1
  O  O314  1  0.44133899  0.08294289  0.56264238  1
  O  O315  1  0.44360610  0.08273502  0.81462137  1
  O  O316  1  0.44180097  0.41623380  0.06196729  1
  O  O317  1  0.44377760  0.41746122  0.31323792  1
  O  O318  1  0.44394681  0.41717016  0.56412749  1
  O  O319  1  0.44083821  0.41646450  0.81278334  1
  O  O320  1  0.44095072  0.75035155  0.06165343  1
  O  O321  1  0.44324621  0.74970721  0.31336609  1
  O  O322  1  0.44166962  0.75000489  0.56329178  1
  O  O323  1  0.44121150  0.75078422  0.81304040  1
  O  O324  1  0.94100557  0.08273651  0.06192979  1
  O  O325  1  0.94116329  0.08317148  0.31175716  1
  O  O326  1  0.94298811  0.08370943  0.56441248  1
  O  O327  1  0.94072200  0.08320221  0.81265874  1
  O  O328  1  0.94067659  0.41726503  0.06269330  1
  O  O329  1  0.94098727  0.41660993  0.31193849  1
  O  O330  1  0.94401292  0.41754790  0.56338129  1
  O  O331  1  0.94374967  0.41719924  0.81388515  1
  O  O332  1  0.94165343  0.75033514  0.06167658  1
  O  O333  1  0.94369637  0.74973013  0.31407603  1
  O  O334  1  0.94060613  0.74918650  0.56292937  1
  O  O335  1  0.94035050  0.74896213  0.81217769  1
  O  O336  1  0.19073387  0.08296293  0.06306620  1
  O  O337  1  0.19232515  0.08271431  0.31104300  1
  O  O338  1  0.19337395  0.08276732  0.56155952  1
  O  O339  1  0.19275697  0.08276804  0.81197086  1
  O  O340  1  0.19243554  0.41733626  0.06090946  1
  O  O341  1  0.19320413  0.41758370  0.31171180  1
  O  O342  1  0.19157364  0.41693895  0.56325681  1
  O  O343  1  0.19091554  0.41728140  0.81262498  1
  O  O344  1  0.19062002  0.74973234  0.06275328  1
  O  O345  1  0.19260417  0.74981669  0.31118308  1
  O  O346  1  0.19406692  0.74976670  0.56206150  1
  O  O347  1  0.19379197  0.74978484  0.81202611  1
  O  O348  1  0.69217877  0.08337522  0.06225154  1
  O  O349  1  0.69401350  0.08289848  0.31099667  1
  O  O350  1  0.69417656  0.08317282  0.56174927  1
  O  O351  1  0.69273507  0.08301078  0.81322489  1
  O  O352  1  0.69282764  0.41682284  0.06295247  1
  O  O353  1  0.69363758  0.41699784  0.31114036  1
  O  O354  1  0.69054810  0.41761273  0.56306741  1
  O  O355  1  0.69369193  0.41730531  0.81148318  1
  O  O356  1  0.69519117  0.75007271  0.06181553  1
  O  O357  1  0.69390258  0.75028725  0.31200640  1
  O  O358  1  0.69178681  0.74964771  0.56272132  1
  O  O359  1  0.69378575  0.74982930  0.81127690  1
  O  O360  1  0.30585409  0.25038190  0.18815422  1
  O  O361  1  0.30620453  0.25004993  0.43859257  1
  O  O362  1  0.30657913  0.25022137  0.68839847  1
  O  O363  1  0.30553604  0.24978043  0.93812434  1
  O  O364  1  0.30662299  0.58311231  0.18846484  1
  O  O365  1  0.30891253  0.58347347  0.43822071  1
  O  O366  1  0.30964711  0.58320703  0.68742632  1
  O  O367  1  0.30868489  0.58318772  0.93638564  1
  O  O368  1  0.30680258  0.91657255  0.18835908  1
  O  O369  1  0.30886108  0.91632357  0.43685233  1
  O  O370  1  0.30588105  0.91622960  0.68883418  1
  O  O371  1  0.30576552  0.91692836  0.93847018  1
  O  O372  1  0.80689014  0.24963190  0.18829015  1
  O  O373  1  0.80767434  0.25051826  0.43762111  1
  O  O374  1  0.80626084  0.25081613  0.68917614  1
  O  O375  1  0.80905373  0.25065968  0.93678910  1
  O  O376  1  0.80931302  0.58393468  0.18791200  1
  O  O377  1  0.80818610  0.58334555  0.43727535  1
  O  O378  1  0.80590648  0.58289072  0.68848699  1
  O  O379  1  0.80858190  0.58323348  0.93769090  1
  O  O380  1  0.80865050  0.91664795  0.18729441  1
  O  O381  1  0.80881817  0.91639527  0.43784918  1
  O  O382  1  0.80880638  0.91650271  0.68754679  1
  O  O383  1  0.80899383  0.91627456  0.93725232  1
  O  O384  1  0.23177764  0.25015585  0.03941035  1
  O  O385  1  0.23307497  0.25024931  0.29033873  1
  O  O386  1  0.23360351  0.24961825  0.54086795  1
  O  O387  1  0.23341695  0.24997076  0.79010642  1
  O  O388  1  0.23463516  0.58298004  0.03741327  1
  O  O389  1  0.23238386  0.58391489  0.28956725  1
  O  O390  1  0.23457552  0.58357458  0.53910187  1
  O  O391  1  0.23612469  0.58385075  0.78892758  1
  O  O392  1  0.23194838  0.91674177  0.03972987  1
  O  O393  1  0.23370352  0.91614288  0.29002449  1
  O  O394  1  0.23509125  0.91588265  0.53829416  1
  O  O395  1  0.23203964  0.91600147  0.79040197  1
  O  O396  1  0.73546614  0.24971652  0.03821035  1
  O  O397  1  0.73448795  0.24996060  0.29046707  1
  O  O398  1  0.73242046  0.25021411  0.53808650  1
  O  O399  1  0.73468709  0.25046168  0.79193607  1
  O  O400  1  0.73457017  0.58361035  0.03879547  1
  O  O401  1  0.73548228  0.58342489  0.28909656  1
  O  O402  1  0.73267510  0.58390929  0.53744553  1
  O  O403  1  0.73229045  0.58365358  0.78988857  1
  O  O404  1  0.73446506  0.91656892  0.03786127  1
  O  O405  1  0.73377007  0.91684591  0.28809048  1
  O  O406  1  0.73540885  0.91660335  0.53924342  1
  O  O407  1  0.73595520  0.91566408  0.78926630  1
  O  O408  1  0.26505635  0.08319908  0.20922259  1
  O  O409  1  0.26766937  0.08278882  0.46053475  1
  O  O410  1  0.26601336  0.08220264  0.71030612  1
  O  O411  1  0.26611488  0.08307439  0.96260371  1
  O  O412  1  0.26567141  0.41737436  0.20920955  1
  O  O413  1  0.26530472  0.41763178  0.46207829  1
  O  O414  1  0.26674582  0.41739468  0.71272476  1
  O  O415  1  0.26690217  0.41647464  0.96026737  1
  O  O416  1  0.26487200  0.74959971  0.20902708  1
  O  O417  1  0.26816152  0.74957063  0.46095738  1
  O  O418  1  0.26811243  0.74987469  0.71096585  1
  O  O419  1  0.26630028  0.75032350  0.96277337  1
  O  O420  1  0.76791024  0.08325342  0.20979255  1
  O  O421  1  0.76654921  0.08300842  0.45966980  1
  O  O422  1  0.76791310  0.08331030  0.71284456  1
  O  O423  1  0.76725671  0.08234816  0.96232942  1
  O  O424  1  0.76801480  0.41653893  0.21050613  1
  O  O425  1  0.76450041  0.41720960  0.46189535  1
  O  O426  1  0.76573438  0.41744972  0.70896750  1
  O  O427  1  0.76766518  0.41781266  0.96244203  1
  O  O428  1  0.76691677  0.75044293  0.21026152  1
  O  O429  1  0.76678283  0.74956602  0.46205393  1
  O  O430  1  0.76747101  0.74949697  0.71021941  1
  O  O431  1  0.76860115  0.74975553  0.96036615  1
  O  O432  1  0.01598373  0.08231281  0.16230559  1
  O  O433  1  0.01425811  0.08327087  0.41402004  1
  O  O434  1  0.01511368  0.08316403  0.66694860  1
  O  O435  1  0.01423242  0.08337645  0.91376578  1
  O  O436  1  0.01436174  0.41672631  0.16378634  1
  O  O437  1  0.01456586  0.41735146  0.41323771  1
  O  O438  1  0.01842475  0.41688218  0.66451069  1
  O  O439  1  0.01673582  0.41766726  0.91588282  1
  O  O440  1  0.01623217  0.75025610  0.16272511  1
  O  O441  1  0.01519526  0.75052279  0.41691608  1
  O  O442  1  0.01457933  0.74940616  0.66404263  1
  O  O443  1  0.01414601  0.74982763  0.91329822  1
  O  O444  1  0.51779158  0.08333074  0.16158588  1
  O  O445  1  0.51587996  0.08264166  0.41568141  1
  O  O446  1  0.51609798  0.08327821  0.66324872  1
  O  O447  1  0.51786609  0.08306488  0.91542146  1
  O  O448  1  0.51784967  0.41706357  0.16209683  1
  O  O449  1  0.51618253  0.41775734  0.41543316  1
  O  O450  1  0.51756245  0.41774712  0.66546444  1
  O  O451  1  0.51504453  0.41647965  0.91335192  1
  O  O452  1  0.51595893  0.74986417  0.16208328  1
  O  O453  1  0.51529668  0.74998847  0.41595668  1
  O  O454  1  0.51670351  0.74912759  0.66383074  1
  O  O455  1  0.51512829  0.75005787  0.91393977  1
  O  O456  1  0.48472549  0.24979803  0.08415641  1
  O  O457  1  0.48452574  0.24973680  0.33638990  1
  O  O458  1  0.48475793  0.25055464  0.58455774  1
  O  O459  1  0.48386649  0.24951409  0.83510442  1
  O  O460  1  0.48517077  0.58288098  0.08381275  1
  O  O461  1  0.48239585  0.58408806  0.33700905  1
  O  O462  1  0.48397235  0.58380228  0.58758636  1
  O  O463  1  0.48406681  0.58360308  0.83826601  1
  O  O464  1  0.48617408  0.91689818  0.08614793  1
  O  O465  1  0.48264203  0.91644254  0.33467137  1
  O  O466  1  0.48411069  0.91590256  0.58583397  1
  O  O467  1  0.48517121  0.91685879  0.83736339  1
  O  O468  1  0.98380621  0.24995620  0.08424367  1
  O  O469  1  0.98091190  0.24973631  0.33512373  1
  O  O470  1  0.98306573  0.25083896  0.58444345  1
  O  O471  1  0.98274811  0.25075179  0.83838838  1
  O  O472  1  0.98262639  0.58428195  0.08731802  1
  O  O473  1  0.98322764  0.58364365  0.33764598  1
  O  O474  1  0.98460527  0.58339077  0.58463895  1
  O  O475  1  0.98146709  0.58258118  0.83545464  1
  O  O476  1  0.98232840  0.91661022  0.08426610  1
  O  O477  1  0.98083950  0.91582368  0.33579285  1
  O  O478  1  0.98228890  0.91677682  0.58810591  1
  O  O479  1  0.98293178  0.91607685  0.83839585  1
  O  O480  1  0.08832042  0.31378603  0.07676138  1
  O  O481  1  0.08453309  0.31512689  0.32680927  1
  O  O482  1  0.08712934  0.31576007  0.57799286  1
  O  O483  1  0.08613379  0.31658376  0.82893033  1
  O  O484  1  0.08624608  0.64940842  0.07762555  1
  O  O485  1  0.08673819  0.64909741  0.32718125  1
  O  O486  1  0.08892227  0.64761231  0.57672730  1
  O  O487  1  0.08519296  0.64771169  0.82689638  1
  O  O488  1  0.08651531  0.98132942  0.07645558  1
  O  O489  1  0.08436494  0.98140950  0.32730362  1
  O  O490  1  0.08600253  0.98137254  0.57799366  1
  O  O491  1  0.08649629  0.98149672  0.82713002  1
  O  O492  1  0.58827847  0.31552101  0.07736609  1
  O  O493  1  0.58808305  0.31488227  0.32770407  1
  O  O494  1  0.58819568  0.31667150  0.57791973  1
  O  O495  1  0.58794060  0.31376768  0.82780227  1
  O  O496  1  0.58931281  0.64750670  0.07597496  1
  O  O497  1  0.58613354  0.64912359  0.32747305  1
  O  O498  1  0.58776859  0.64886385  0.57777441  1
  O  O499  1  0.58770680  0.64863224  0.82714371  1
  O  O500  1  0.58993055  0.98253586  0.07742874  1
  O  O501  1  0.58699416  0.98117062  0.32633242  1
  O  O502  1  0.58816154  0.98018390  0.57778870  1
  O  O503  1  0.58853572  0.98279636  0.82866262  1
  O  O504  1  0.41413081  0.01841742  0.17225722  1
  O  O505  1  0.41237532  0.01651632  0.42217369  1
  O  O506  1  0.41268511  0.01816593  0.67289111  1
  O  O507  1  0.41378999  0.01803636  0.92444794  1
  O  O508  1  0.41445940  0.35135022  0.17221386  1
  O  O509  1  0.41246640  0.35271477  0.42253071  1
  O  O510  1  0.41340408  0.35292304  0.67378576  1
  O  O511  1  0.41082274  0.35256078  0.92309679  1
  O  O512  1  0.41244379  0.68484813  0.17145895  1
  O  O513  1  0.41127094  0.68517621  0.42282935  1
  O  O514  1  0.41278899  0.68401603  0.67290684  1
  O  O515  1  0.41140696  0.68437567  0.92228635  1
  O  O516  1  0.91222094  0.01686447  0.17167205  1
  O  O517  1  0.91086166  0.01803011  0.42124343  1
  O  O518  1  0.91116689  0.01786236  0.67321244  1
  O  O519  1  0.91066707  0.01802896  0.92241899  1
  O  O520  1  0.91006999  0.35301652  0.17240339  1
  O  O521  1  0.91125465  0.35156434  0.42177405  1
  O  O522  1  0.91433214  0.35229727  0.67277258  1
  O  O523  1  0.91275040  0.35231743  0.92339418  1
  O  O524  1  0.91238760  0.68575320  0.17181026  1
  O  O525  1  0.91162789  0.68445974  0.42314371  1
  O  O526  1  0.91036098  0.68534535  0.67289382  1
  O  O527  1  0.91075323  0.68402250  0.92213748  1
  O  O528  1  0.16109416  0.01782898  0.20175232  1
  O  O529  1  0.16377151  0.01766597  0.45205875  1
  O  O530  1  0.16246350  0.01639979  0.70307852  1
  O  O531  1  0.16227213  0.01805987  0.95312408  1
  O  O532  1  0.16140863  0.35326749  0.20266959  1
  O  O533  1  0.16152280  0.35293261  0.45305366  1
  O  O534  1  0.16287226  0.35220858  0.70247405  1
  O  O535  1  0.16283714  0.35095784  0.95180970  1
  O  O536  1  0.16126441  0.68356422  0.20221808  1
  O  O537  1  0.16453037  0.68382134  0.45282824  1
  O  O538  1  0.16402530  0.68568891  0.70240708  1
  O  O539  1  0.16281839  0.68545771  0.95209726  1
  O  O540  1  0.66413925  0.01731787  0.20163278  1
  O  O541  1  0.66270742  0.01862086  0.45244825  1
  O  O542  1  0.66447135  0.01808548  0.70296628  1
  O  O543  1  0.66352786  0.01707498  0.95246029  1
  O  O544  1  0.66393973  0.35178493  0.20146363  1
  O  O545  1  0.66104517  0.35208223  0.45344887  1
  O  O546  1  0.66132842  0.35323210  0.70237675  1
  O  O547  1  0.66410780  0.35277664  0.95253323  1
  O  O548  1  0.66313837  0.68567572  0.20262552  1
  O  O549  1  0.66311802  0.68415717  0.45279740  1
  O  O550  1  0.66347153  0.68392979  0.70207641  1
  O  O551  1  0.66463345  0.68488169  0.95259251  1
  O  O552  1  0.33572984  0.31527504  0.04733484  1
  O  O553  1  0.33684329  0.31545615  0.29730859  1
  O  O554  1  0.33748356  0.31424854  0.54792917  1
  O  O555  1  0.33693947  0.31589387  0.79741312  1
  O  O556  1  0.33814870  0.64813234  0.04629244  1
  O  O557  1  0.33674735  0.64822779  0.29788138  1
  O  O558  1  0.33833435  0.64941984  0.54777842  1
  O  O559  1  0.34009130  0.64863987  0.79690818  1
  O  O560  1  0.33589511  0.98200094  0.04785344  1
  O  O561  1  0.33764890  0.98156073  0.29757235  1
  O  O562  1  0.33840502  0.98163348  0.54667104  1
  O  O563  1  0.33607282  0.98060806  0.79847867  1
  O  O564  1  0.83874082  0.31523490  0.04661253  1
  O  O565  1  0.83838397  0.31483649  0.29753332  1
  O  O566  1  0.83582992  0.31542781  0.54789235  1
  O  O567  1  0.83892379  0.31508802  0.79814365  1
  O  O568  1  0.83827787  0.64890964  0.04746317  1
  O  O569  1  0.83965515  0.64743174  0.29803051  1
  O  O570  1  0.83637713  0.64901223  0.54712591  1
  O  O571  1  0.83639360  0.64879836  0.79764186  1
  O  O572  1  0.83841097  0.98112670  0.04735335  1
  O  O573  1  0.83720005  0.98291773  0.29685441  1
  O  O574  1  0.83977369  0.98020240  0.54788894  1
  O  O575  1  0.83945580  0.98116350  0.79757228  1
  O  O576  1  0.41423610  0.14854990  0.17225682  1
  O  O577  1  0.41146838  0.14669482  0.42305519  1
  O  O578  1  0.41254190  0.14840056  0.67238124  1
  O  O579  1  0.41358493  0.14799868  0.92408791  1
  O  O580  1  0.41393897  0.48146926  0.17194534  1
  O  O581  1  0.41244246  0.48298339  0.42233659  1
  O  O582  1  0.41352503  0.48296170  0.67327599  1
  O  O583  1  0.41175353  0.48264074  0.92245028  1
  O  O584  1  0.41248354  0.81499836  0.17173547  1
  O  O585  1  0.41155926  0.81535054  0.42227941  1
  O  O586  1  0.41281228  0.81394862  0.67382211  1
  O  O587  1  0.41109064  0.81450559  0.92334078  1
  O  O588  1  0.91202850  0.14687003  0.17225210  1
  O  O589  1  0.91075199  0.14851597  0.42129491  1
  O  O590  1  0.91102480  0.14799459  0.67355448  1
  O  O591  1  0.91041478  0.14828880  0.92238817  1
  O  O592  1  0.91123676  0.48320403  0.17229776  1
  O  O593  1  0.91088730  0.48199565  0.42162818  1
  O  O594  1  0.91477804  0.48225033  0.67308763  1
  O  O595  1  0.91236965  0.48234641  0.92297029  1
  O  O596  1  0.91289580  0.81587687  0.17140821  1
  O  O597  1  0.91058903  0.81459659  0.42270460  1
  O  O598  1  0.91109706  0.81534887  0.67247857  1
  O  O599  1  0.91013320  0.81422971  0.92195280  1
  O  O600  1  0.08717980  0.18357470  0.07692587  1
  O  O601  1  0.08486822  0.18491536  0.32708158  1
  O  O602  1  0.08644210  0.18536858  0.57732160  1
  O  O603  1  0.08638319  0.18629539  0.82796789  1
  O  O604  1  0.08615944  0.51928348  0.07737274  1
  O  O605  1  0.08711117  0.51907190  0.32690055  1
  O  O606  1  0.08832123  0.51749844  0.57730092  1
  O  O607  1  0.08577983  0.51767374  0.82807032  1
  O  O608  1  0.08628289  0.85124576  0.07645512  1
  O  O609  1  0.08494334  0.85138997  0.32766052  1
  O  O610  1  0.08564723  0.85122368  0.57762020  1
  O  O611  1  0.08680819  0.85143785  0.82690408  1
  O  O612  1  0.58892613  0.18520854  0.07775573  1
  O  O613  1  0.58813176  0.18469786  0.32762604  1
  O  O614  1  0.58914620  0.18637399  0.57691213  1
  O  O615  1  0.58730806  0.18336198  0.82797131  1
  O  O616  1  0.58921563  0.51747238  0.07674380  1
  O  O617  1  0.58623613  0.51920239  0.32743654  1
  O  O618  1  0.58770099  0.51874405  0.57814575  1
  O  O619  1  0.58779356  0.51864355  0.82740513  1
  O  O620  1  0.59016704  0.85247488  0.07658969  1
  O  O621  1  0.58659446  0.85124380  0.32632568  1
  O  O622  1  0.58736190  0.84980648  0.57801876  1
  O  O623  1  0.58891628  0.85247117  0.82800227  1
  O  O624  1  0.33566675  0.18490832  0.04764660  1
  O  O625  1  0.33698834  0.18519000  0.29699313  1
  O  O626  1  0.33730603  0.18383474  0.54726271  1
  O  O627  1  0.33735539  0.18555481  0.79781157  1
  O  O628  1  0.33810192  0.51767133  0.04607540  1
  O  O629  1  0.33615615  0.51828462  0.29829525  1
  O  O630  1  0.33876885  0.51941575  0.54853274  1
  O  O631  1  0.33980710  0.51843306  0.79720746  1
  O  O632  1  0.33596198  0.85175176  0.04776928  1
  O  O633  1  0.33792683  0.85157726  0.29754924  1
  O  O634  1  0.33890522  0.85126301  0.54657711  1
  O  O635  1  0.33594108  0.85050867  0.79793096  1
  O  O636  1  0.83903328  0.18481936  0.04614667  1
  O  O637  1  0.83824251  0.18452405  0.29728413  1
  O  O638  1  0.83615754  0.18532640  0.54743288  1
  O  O639  1  0.83860408  0.18496398  0.79793028  1
  O  O640  1  0.83856810  0.51880925  0.04772014  1
  O  O641  1  0.83876642  0.51727974  0.29726367  1
  O  O642  1  0.83614735  0.51902811  0.54784451  1
  O  O643  1  0.83638621  0.51889133  0.79832690  1
  O  O644  1  0.83801598  0.85104672  0.04731060  1
  O  O645  1  0.83788601  0.85279657  0.29767021  1
  O  O646  1  0.83866065  0.85014528  0.54722123  1
  O  O647  1  0.83989231  0.85099835  0.79680872  1
  O  O648  1  0.16071508  0.14784389  0.20194447  1
  O  O649  1  0.16373345  0.14785413  0.45205301  1
  O  O650  1  0.16214085  0.14687319  0.70255114  1
  O  O651  1  0.16250399  0.14830445  0.95296829  1
  O  O652  1  0.16229942  0.48350313  0.20265884  1
  O  O653  1  0.16184773  0.48318970  0.45393800  1
  O  O654  1  0.16296379  0.48227684  0.70247175  1
  O  O655  1  0.16276630  0.48101682  0.95071506  1
  O  O656  1  0.16033817  0.81365559  0.20184172  1
  O  O657  1  0.16402408  0.81395090  0.45227865  1
  O  O658  1  0.16441324  0.81582382  0.70261644  1
  O  O659  1  0.16260690  0.81566268  0.95305868  1
  O  O660  1  0.66360978  0.14734796  0.20126339  1
  O  O661  1  0.66306785  0.14890159  0.45264720  1
  O  O662  1  0.66417424  0.14820403  0.70335490  1
  O  O663  1  0.66343055  0.14713044  0.95166831  1
  O  O664  1  0.66412765  0.48185110  0.20147388  1
  O  O665  1  0.66117379  0.48263649  0.45312913  1
  O  O666  1  0.66193202  0.48329194  0.70274416  1
  O  O667  1  0.66385057  0.48283572  0.95332180  1
  O  O668  1  0.66329354  0.81587157  0.20280682  1
  O  O669  1  0.66328746  0.81435940  0.45264219  1
  O  O670  1  0.66329907  0.81388581  0.70138374  1
  O  O671  1  0.66492520  0.81505708  0.95223001  1
