# generated using pymatgen
data_Na2MnFe(PO4)2
_symmetry_space_group_name_H-M   'P 1'
_cell_length_a   21.08823034
_cell_length_b   18.94078635
_cell_length_c   20.04644550
_cell_angle_alpha   89.99947650
_cell_angle_beta   89.99434688
_cell_angle_gamma   89.99863963
_symmetry_Int_Tables_number   1
_chemical_formula_structural   Na2MnFe(PO4)2
_chemical_formula_sum   'Na96 Mn48 Fe48 P96 O384'
_cell_volume   8007.10488567
_cell_formula_units_Z   48
loop_
 _symmetry_equiv_pos_site_id
 _symmetry_equiv_pos_as_xyz
  1  'x, y, z'
loop_
 _atom_site_type_symbol
 _atom_site_label
 _atom_site_symmetry_multiplicity
 _atom_site_fract_x
 _atom_site_fract_y
 _atom_site_fract_z
 _atom_site_occupancy
  Na  Na0  1  -0.00017692  0.00085668  -0.00040601  1
  Na  Na1  1  -0.00288178  -0.00073116  0.25015177  1
  Na  Na2  1  -0.00183599  -0.00046310  0.49913453  1
  Na  Na3  1  -0.00100711  -0.00017410  0.75091577  1
  Na  Na4  1  -0.00202660  0.33273635  0.00040129  1
  Na  Na5  1  -0.00166590  0.33394074  0.24973499  1
  Na  Na6  1  -0.00034872  0.33311811  0.50006099  1
  Na  Na7  1  0.00075863  0.33348148  0.74928296  1
  Na  Na8  1  0.00091437  0.66613160  -0.00089007  1
  Na  Na9  1  0.00122491  0.66683389  0.25029986  1
  Na  Na10  1  0.00234846  0.66735042  0.50053577  1
  Na  Na11  1  0.00245293  0.66708000  0.75057348  1
  Na  Na12  1  0.49898457  -0.00009710  0.00013613  1
  Na  Na13  1  0.49817633  -0.00041462  0.24981873  1
  Na  Na14  1  0.49990673  0.00062751  0.49992600  1
  Na  Na15  1  0.49831425  -0.00042434  0.74938598  1
  Na  Na16  1  0.49998439  0.33209562  0.00009969  1
  Na  Na17  1  0.50043532  0.33256980  0.24913593  1
  Na  Na18  1  0.50005012  0.33297021  0.50064519  1
  Na  Na19  1  0.50129922  0.33330665  0.75020629  1
  Na  Na20  1  0.49787517  0.66634959  0.00067175  1
  Na  Na21  1  0.50107352  0.66681759  0.24951338  1
  Na  Na22  1  0.49989763  0.66592772  0.49980653  1
  Na  Na23  1  0.49768543  0.66592018  0.75059344  1
  Na  Na24  1  0.24978008  -0.00026502  0.12419087  1
  Na  Na25  1  0.25272155  0.00127822  0.37529197  1
  Na  Na26  1  0.25017571  0.00061801  0.62552911  1
  Na  Na27  1  0.24740604  -0.00045402  0.87485813  1
  Na  Na28  1  0.25086716  0.33315952  0.12532612  1
  Na  Na29  1  0.25209907  0.33318474  0.37422353  1
  Na  Na30  1  0.25118625  0.33318639  0.62502411  1
  Na  Na31  1  0.24959130  0.33295226  0.87527356  1
  Na  Na32  1  0.25101871  0.66700973  0.12596909  1
  Na  Na33  1  0.25025609  0.66617099  0.37577332  1
  Na  Na34  1  0.24973613  0.66616664  0.62417903  1
  Na  Na35  1  0.24854904  0.66569685  0.87428018  1
  Na  Na36  1  0.75356599  0.00137894  0.12666990  1
  Na  Na37  1  0.75067742  -0.00046944  0.37456905  1
  Na  Na38  1  0.75161555  -0.00004397  0.62440008  1
  Na  Na39  1  0.75344519  0.00100907  0.87460260  1
  Na  Na40  1  0.75113630  0.33327419  0.12568574  1
  Na  Na41  1  0.74892738  0.33344439  0.37550093  1
  Na  Na42  1  0.74786843  0.33287188  0.62399230  1
  Na  Na43  1  0.75056431  0.33309878  0.87506398  1
  Na  Na44  1  0.74916171  0.66654225  0.12548446  1
  Na  Na45  1  0.74623579  0.66526201  0.37365310  1
  Na  Na46  1  0.74948380  0.66717830  0.62496870  1
  Na  Na47  1  0.75113540  0.66725856  0.87638540  1
  Na  Na48  1  -0.00201520  0.16733297  -0.00020146  1
  Na  Na49  1  -0.00305086  0.16789889  0.24966923  1
  Na  Na50  1  -0.00053728  0.16678754  0.49985736  1
  Na  Na51  1  -0.00014569  0.16683733  0.74943816  1
  Na  Na52  1  0.00024294  0.49947295  -0.00016103  1
  Na  Na53  1  -0.00148461  0.50039676  0.24947497  1
  Na  Na54  1  0.00064046  0.49973436  0.50013510  1
  Na  Na55  1  0.00160744  0.49952863  0.75065020  1
  Na  Na56  1  0.00123874  0.83259852  -0.00038412  1
  Na  Na57  1  -0.00103466  0.83416764  0.25055330  1
  Na  Na58  1  0.00116719  0.83294267  0.49975011  1
  Na  Na59  1  0.00032147  0.83392887  0.75071137  1
  Na  Na60  1  0.49970223  0.16747896  0.00035404  1
  Na  Na61  1  0.49988039  0.16671597  0.24963917  1
  Na  Na62  1  0.49817570  0.16745451  0.50036323  1
  Na  Na63  1  0.49992492  0.16703880  0.75030881  1
  Na  Na64  1  0.49806348  0.50108622  0.00050721  1
  Na  Na65  1  0.49953747  0.50041141  0.25009187  1
  Na  Na66  1  0.50065823  0.49960403  0.49977852  1
  Na  Na67  1  0.49922831  0.50028348  0.74963924  1
  Na  Na68  1  0.49847574  0.83355945  -0.00017563  1
  Na  Na69  1  0.50077641  0.83276912  0.24887519  1
  Na  Na70  1  0.50099753  0.83289739  0.50010732  1
  Na  Na71  1  0.49839752  0.83330222  0.75040071  1
  Na  Na72  1  0.25241520  0.16627331  0.12435365  1
  Na  Na73  1  0.25333933  0.16672282  0.37511677  1
  Na  Na74  1  0.25202910  0.16677735  0.62502451  1
  Na  Na75  1  0.24905544  0.16759851  0.87516467  1
  Na  Na76  1  0.25004157  0.50020449  0.12549953  1
  Na  Na77  1  0.25212014  0.49942260  0.37432548  1
  Na  Na78  1  0.25137072  0.49946678  0.62504964  1
  Na  Na79  1  0.24769228  0.50100534  0.87464394  1
  Na  Na80  1  0.24923917  0.83339474  0.12546354  1
  Na  Na81  1  0.24909343  0.83374696  0.37576783  1
  Na  Na82  1  0.24779388  0.83405010  0.62461750  1
  Na  Na83  1  0.24942428  0.83271429  0.87465397  1
  Na  Na84  1  0.75168234  0.16657844  0.12555447  1
  Na  Na85  1  0.74995837  0.16682658  0.37455134  1
  Na  Na86  1  0.75033185  0.16676252  0.62394906  1
  Na  Na87  1  0.75150553  0.16705154  0.87558375  1
  Na  Na88  1  0.75266891  0.49864474  0.12622156  1
  Na  Na89  1  0.74708803  0.50050697  0.37487548  1
  Na  Na90  1  0.74673763  0.50084488  0.62507790  1
  Na  Na91  1  0.75187536  0.49934784  0.87519574  1
  Na  Na92  1  0.74990227  0.83308181  0.12593409  1
  Na  Na93  1  0.75001418  0.83314642  0.37403033  1
  Na  Na94  1  0.75112522  0.83327207  0.62436403  1
  Na  Na95  1  0.75095869  0.83331998  0.87540724  1
  Mn  Mn96  1  0.35773090  0.75012672  0.50217095  1
  Mn  Mn97  1  0.10659271  0.41639729  0.12303365  1
  Mn  Mn98  1  0.35869542  0.41601233  0.25238717  1
  Mn  Mn99  1  0.60796276  0.41711666  0.87360989  1
  Mn  Mn100  1  0.85709426  0.74934068  0.25251869  1
  Mn  Mn101  1  0.60685286  0.75014775  0.87304861  1
  Mn  Mn102  1  0.89284611  0.91677147  0.87785666  1
  Mn  Mn103  1  0.35706358  0.08276053  0.00159196  1
  Mn  Mn104  1  0.60823452  0.08262687  0.12268133  1
  Mn  Mn105  1  0.64167182  0.58355236  0.74875147  1
  Mn  Mn106  1  0.85756825  0.08334365  0.50173656  1
  Mn  Mn107  1  0.64226336  0.91630923  0.49743313  1
  Mn  Mn108  1  0.14224836  0.91778727  0.24826567  1
  Mn  Mn109  1  0.64247721  0.58272178  0.99791761  1
  Mn  Mn110  1  0.60786760  0.08330760  0.62316304  1
  Mn  Mn111  1  0.64271102  0.91711392  0.74835078  1
  Mn  Mn112  1  0.10689844  0.08379268  0.12358510  1
  Mn  Mn113  1  0.35678234  0.75002209  0.75192666  1
  Mn  Mn114  1  0.14364434  0.24991781  0.49717951  1
  Mn  Mn115  1  0.89193013  0.58402546  0.62720759  1
  Mn  Mn116  1  0.14267688  0.58304517  0.24816675  1
  Mn  Mn117  1  0.39165411  0.91621017  0.62700899  1
  Mn  Mn118  1  0.10810531  0.08402550  0.37226782  1
  Mn  Mn119  1  0.60848934  0.08272350  0.87306779  1
  Mn  Mn120  1  0.85773614  0.74902625  0.50174576  1
  Mn  Mn121  1  0.14263020  0.24940114  0.24819077  1
  Mn  Mn122  1  0.64127579  0.24990361  0.49717420  1
  Mn  Mn123  1  0.10779702  0.74995934  0.12273367  1
  Mn  Mn124  1  0.60822595  0.74948895  0.62349555  1
  Mn  Mn125  1  0.89205642  0.24986252  0.62750775  1
  Mn  Mn126  1  0.89174040  0.58360130  0.37764958  1
  Mn  Mn127  1  0.10867080  0.41674773  0.62188479  1
  Mn  Mn128  1  0.85855720  0.74980791  0.00294481  1
  Mn  Mn129  1  0.35745665  0.08349983  0.75314273  1
  Mn  Mn130  1  0.14327200  0.58261685  0.49742908  1
  Mn  Mn131  1  0.64235977  0.91706216  0.24777953  1
  Mn  Mn132  1  0.60808610  0.41693227  0.12221970  1
  Mn  Mn133  1  0.10750535  0.08278128  0.62231372  1
  Mn  Mn134  1  0.85736543  0.41682276  0.75157806  1
  Mn  Mn135  1  0.14143214  0.25012651  0.99790652  1
  Mn  Mn136  1  0.85665706  0.41760498  0.50183677  1
  Mn  Mn137  1  0.35724557  0.41729001  0.00200890  1
  Mn  Mn138  1  0.35837240  0.75085856  0.25298042  1
  Mn  Mn139  1  0.14166312  0.91688978  0.74718096  1
  Mn  Mn140  1  0.89337834  0.58269251  0.87699459  1
  Mn  Mn141  1  0.35785017  0.41661517  0.75274693  1
  Mn  Mn142  1  0.39143334  0.91684802  0.12715126  1
  Mn  Mn143  1  0.64278047  0.91756076  0.99773746  1
  Fe  Fe144  1  0.14296253  0.58259066  0.74769937  1
  Fe  Fe145  1  0.89141505  0.25028288  0.12753607  1
  Fe  Fe146  1  0.10710834  0.41574412  0.87355092  1
  Fe  Fe147  1  0.89302033  0.91598815  0.62641788  1
  Fe  Fe148  1  0.10808374  0.74983665  0.87287234  1
  Fe  Fe149  1  0.85769351  0.08353834  0.75157940  1
  Fe  Fe150  1  0.89299734  0.91640711  0.37699998  1
  Fe  Fe151  1  0.10767790  0.41657040  0.37316526  1
  Fe  Fe152  1  0.64291990  0.24951642  0.74898832  1
  Fe  Fe153  1  0.39329617  0.25020374  0.12642979  1
  Fe  Fe154  1  0.35613027  0.74997960  0.00109424  1
  Fe  Fe155  1  0.39105131  0.58332195  0.87736040  1
  Fe  Fe156  1  0.39144171  0.91674988  0.87703124  1
  Fe  Fe157  1  0.39323261  0.25064539  0.62766703  1
  Fe  Fe158  1  0.85840505  0.74996327  0.75153234  1
  Fe  Fe159  1  0.10690305  0.75041214  0.62314734  1
  Fe  Fe160  1  0.85712083  0.08405566  0.25261748  1
  Fe  Fe161  1  0.85821147  0.08370497  0.00215256  1
  Fe  Fe162  1  0.39299773  0.91644711  0.37699808  1
  Fe  Fe163  1  0.89253842  0.25051084  0.87593738  1
  Fe  Fe164  1  0.89269744  0.58373104  0.12689735  1
  Fe  Fe165  1  0.85825186  0.41650645  0.00159115  1
  Fe  Fe166  1  0.60690798  0.75042342  0.37334788  1
  Fe  Fe167  1  0.14242501  0.91761368  0.49787797  1
  Fe  Fe168  1  0.14189625  0.91635867  0.99845797  1
  Fe  Fe169  1  0.89287457  0.91607118  0.12651169  1
  Fe  Fe170  1  0.64304233  0.24999667  0.24843914  1
  Fe  Fe171  1  0.60650274  0.41624539  0.37295761  1
  Fe  Fe172  1  0.10636973  0.08454868  0.87327553  1
  Fe  Fe173  1  0.85650591  0.41662165  0.25299063  1
  Fe  Fe174  1  0.39384692  0.25004354  0.37656831  1
  Fe  Fe175  1  0.39292971  0.24984350  0.87696849  1
  Fe  Fe176  1  0.64201918  0.58253999  0.24761223  1
  Fe  Fe177  1  0.35841085  0.08317696  0.25178234  1
  Fe  Fe178  1  0.35880981  0.41613033  0.50144265  1
  Fe  Fe179  1  0.64101677  0.58389789  0.49818569  1
  Fe  Fe180  1  0.60652986  0.75018366  0.12261725  1
  Fe  Fe181  1  0.60644912  0.08325238  0.37315154  1
  Fe  Fe182  1  0.35806969  0.08349061  0.50164855  1
  Fe  Fe183  1  0.60653869  0.41679038  0.62367398  1
  Fe  Fe184  1  0.64397620  0.24972210  0.99847418  1
  Fe  Fe185  1  0.14259597  0.25043392  0.74843370  1
  Fe  Fe186  1  0.14247054  0.58359444  0.99868531  1
  Fe  Fe187  1  0.39309466  0.58292975  0.62654878  1
  Fe  Fe188  1  0.39403829  0.58324447  0.37663909  1
  Fe  Fe189  1  0.89244556  0.25050981  0.37665180  1
  Fe  Fe190  1  0.10745537  0.74963117  0.37343518  1
  Fe  Fe191  1  0.39233670  0.58311093  0.12668075  1
  P  P192  1  0.05105084  0.24995587  0.11052569  1
  P  P193  1  0.05227526  0.25088966  0.35989240  1
  P  P194  1  0.05462229  0.24978465  0.61036522  1
  P  P195  1  0.05244597  0.25018347  0.85968721  1
  P  P196  1  0.05268588  0.58305824  0.10965802  1
  P  P197  1  0.05362375  0.58274228  0.36019806  1
  P  P198  1  0.05479825  0.58393849  0.61099545  1
  P  P199  1  0.05620599  0.58270878  0.86091650  1
  P  P200  1  0.05252788  0.91715086  0.10978965  1
  P  P201  1  0.05360566  0.91663627  0.36114023  1
  P  P202  1  0.05278210  0.91632396  0.60931236  1
  P  P203  1  0.05509790  0.91708715  0.86156956  1
  P  P204  1  0.55472838  0.24969848  0.11054159  1
  P  P205  1  0.55284211  0.24971741  0.35949889  1
  P  P206  1  0.55370231  0.25031427  0.61158978  1
  P  P207  1  0.55466376  0.24976033  0.86102198  1
  P  P208  1  0.55323237  0.58379462  0.11101159  1
  P  P209  1  0.55409206  0.58315779  0.36052178  1
  P  P210  1  0.55276824  0.58265105  0.60999603  1
  P  P211  1  0.55102130  0.58343330  0.86066373  1
  P  P212  1  0.55307876  0.91616305  0.10976815  1
  P  P213  1  0.55210173  0.91696810  0.35998092  1
  P  P214  1  0.55329991  0.91657645  0.61008803  1
  P  P215  1  0.55148650  0.91680776  0.86013244  1
  P  P216  1  0.44596118  0.08419644  0.14011505  1
  P  P217  1  0.44616534  0.08333763  0.38909214  1
  P  P218  1  0.44509101  0.08414586  0.63913622  1
  P  P219  1  0.44661816  0.08360454  0.89009458  1
  P  P220  1  0.44656673  0.41648784  0.13957936  1
  P  P221  1  0.44778422  0.41629412  0.39002691  1
  P  P222  1  0.44640390  0.41663950  0.63890310  1
  P  P223  1  0.44644871  0.41627242  0.89010207  1
  P  P224  1  0.44554852  0.74935410  0.13853558  1
  P  P225  1  0.44793529  0.75006735  0.38974492  1
  P  P226  1  0.44651648  0.74889514  0.63998391  1
  P  P227  1  0.44466440  0.74993665  0.89069405  1
  P  P228  1  0.94405979  0.08328203  0.13953387  1
  P  P229  1  0.94524601  0.08397910  0.38856172  1
  P  P230  1  0.94588798  0.08224436  0.64030160  1
  P  P231  1  0.94564134  0.08471742  0.88908587  1
  P  P232  1  0.94365532  0.41700427  0.13954366  1
  P  P233  1  0.94638830  0.41634092  0.38909760  1
  P  P234  1  0.94685440  0.41713714  0.63986885  1
  P  P235  1  0.94722158  0.41565240  0.88995992  1
  P  P236  1  0.94677233  0.74970290  0.14014170  1
  P  P237  1  0.94784947  0.75009490  0.38998966  1
  P  P238  1  0.94755073  0.75063541  0.64041505  1
  P  P239  1  0.94748400  0.74962710  0.88881761  1
  P  P240  1  0.19874130  0.08373487  0.23469765  1
  P  P241  1  0.19835301  0.08329334  0.48488621  1
  P  P242  1  0.19499474  0.08493157  0.73606893  1
  P  P243  1  0.19503267  0.08297189  0.98459191  1
  P  P244  1  0.19585304  0.41619736  0.23584749  1
  P  P245  1  0.19879436  0.41631955  0.48389593  1
  P  P246  1  0.19540909  0.41610949  0.73618603  1
  P  P247  1  0.19557905  0.41732674  0.98482319  1
  P  P248  1  0.19570729  0.75015870  0.23643371  1
  P  P249  1  0.19473000  0.75075167  0.48565507  1
  P  P250  1  0.19440628  0.74898364  0.73497391  1
  P  P251  1  0.19663112  0.74958717  0.98475677  1
  P  P252  1  0.69644891  0.08425070  0.23664596  1
  P  P253  1  0.69567980  0.08313620  0.48368139  1
  P  P254  1  0.69845779  0.08404808  0.73512766  1
  P  P255  1  0.69893408  0.08392459  0.98543347  1
  P  P256  1  0.69563783  0.41603829  0.23655973  1
  P  P257  1  0.69354079  0.41765253  0.48538131  1
  P  P258  1  0.69546563  0.41574269  0.73472072  1
  P  P259  1  0.69865529  0.41593039  0.98549660  1
  P  P260  1  0.69375800  0.74934764  0.23546173  1
  P  P261  1  0.69584504  0.74941821  0.48387171  1
  P  P262  1  0.69838931  0.75035529  0.73553966  1
  P  P263  1  0.69577076  0.75018577  0.98621715  1
  P  P264  1  0.30472938  0.25017960  0.01446534  1
  P  P265  1  0.30596127  0.24904940  0.26433188  1
  P  P266  1  0.30666481  0.25037674  0.51423963  1
  P  P267  1  0.30391577  0.25037291  0.76495514  1
  P  P268  1  0.30321253  0.58423324  0.01457501  1
  P  P269  1  0.30585870  0.58332105  0.26500987  1
  P  P270  1  0.30623529  0.58219664  0.51409317  1
  P  P271  1  0.30364161  0.58313415  0.76417812  1
  P  P272  1  0.30236632  0.91565243  0.01353731  1
  P  P273  1  0.30413980  0.91748854  0.26600054  1
  P  P274  1  0.30329513  0.91724948  0.51386033  1
  P  P275  1  0.30316452  0.91664666  0.76569104  1
  P  P276  1  0.80479096  0.25024298  0.01433062  1
  P  P277  1  0.80401625  0.25052373  0.26480411  1
  P  P278  1  0.80399283  0.25047181  0.51364823  1
  P  P279  1  0.80282778  0.24965789  0.76517814  1
  P  P280  1  0.80447801  0.58251480  0.01596875  1
  P  P281  1  0.80278449  0.58259358  0.26404683  1
  P  P282  1  0.80084322  0.58335760  0.51496409  1
  P  P283  1  0.80326599  0.58425329  0.76528737  1
  P  P284  1  0.80442297  0.91734566  0.01609924  1
  P  P285  1  0.80550569  0.91692858  0.26454857  1
  P  P286  1  0.80533854  0.91609771  0.51416218  1
  P  P287  1  0.80552306  0.91634751  0.76371608  1
  O  O288  1  0.05575496  0.24998321  0.18710626  1
  O  O289  1  0.05657279  0.25006383  0.43657402  1
  O  O290  1  0.05903245  0.25000089  0.68706940  1
  O  O291  1  0.05546302  0.25008847  0.93643700  1
  O  O292  1  0.05681569  0.58306478  0.18633678  1
  O  O293  1  0.05693661  0.58253709  0.43696320  1
  O  O294  1  0.05877346  0.58268471  0.68773686  1
  O  O295  1  0.05954370  0.58309721  0.93773438  1
  O  O296  1  0.05614881  0.91728593  0.18653623  1
  O  O297  1  0.05862568  0.91775495  0.43778811  1
  O  O298  1  0.05627645  0.91747426  0.68608388  1
  O  O299  1  0.05868345  0.91665230  0.93833875  1
  O  O300  1  0.55967704  0.24967532  0.18720627  1
  O  O301  1  0.55572480  0.24957942  0.43630198  1
  O  O302  1  0.55862069  0.24933722  0.68820416  1
  O  O303  1  0.56011818  0.24960707  0.93771177  1
  O  O304  1  0.55817886  0.58269544  0.18768866  1
  O  O305  1  0.55783079  0.58327447  0.43726285  1
  O  O306  1  0.55616638  0.58352861  0.68672555  1
  O  O307  1  0.55560104  0.58333410  0.93730588  1
  O  O308  1  0.55649170  0.91711356  0.18651287  1
  O  O309  1  0.55574638  0.91710244  0.43665238  1
  O  O310  1  0.55660350  0.91675132  0.68686009  1
  O  O311  1  0.55604179  0.91718082  0.93678067  1
  O  O312  1  0.44267421  0.08341461  0.06337984  1
  O  O313  1  0.44218804  0.08315312  0.31239110  1
  O  O314  1  0.44125011  0.08337911  0.56232595  1
  O  O315  1  0.44379988  0.08357040  0.81331525  1
  O  O316  1  0.44337291  0.41653423  0.06286470  1
  O  O317  1  0.44457046  0.41621046  0.31336251  1
  O  O318  1  0.44262867  0.41637335  0.56222437  1
  O  O319  1  0.44401508  0.41629054  0.81330335  1
  O  O320  1  0.44028580  0.75002897  0.06196885  1
  O  O321  1  0.44474275  0.75023144  0.31304528  1
  O  O322  1  0.44374459  0.74979345  0.56322268  1
  O  O323  1  0.44196854  0.74983358  0.81390459  1
  O  O324  1  0.94111009  0.08367623  0.06262515  1
  O  O325  1  0.94112635  0.08403719  0.31176933  1
  O  O326  1  0.94294538  0.08348779  0.56350446  1
  O  O327  1  0.94109889  0.08396815  0.81241063  1
  O  O328  1  0.94050608  0.41667084  0.06268105  1
  O  O329  1  0.94112808  0.41720311  0.31241400  1
  O  O330  1  0.94292311  0.41718785  0.56312426  1
  O  O331  1  0.94346083  0.41649963  0.81330179  1
  O  O332  1  0.94455826  0.74941113  0.06331626  1
  O  O333  1  0.94355914  0.74935376  0.31334376  1
  O  O334  1  0.94384396  0.74952880  0.56371690  1
  O  O335  1  0.94252046  0.74977043  0.81220811  1
  O  O336  1  0.19237361  0.08373802  0.06140331  1
  O  O337  1  0.19462269  0.08419019  0.31139147  1
  O  O338  1  0.19411090  0.08367772  0.56154901  1
  O  O339  1  0.19033721  0.08461677  0.81276418  1
  O  O340  1  0.19266728  0.41640374  0.06163829  1
  O  O341  1  0.19137381  0.41613909  0.31257692  1
  O  O342  1  0.19467007  0.41642681  0.56065189  1
  O  O343  1  0.19118220  0.41583067  0.81288218  1
  O  O344  1  0.19369351  0.74971209  0.06157216  1
  O  O345  1  0.19108738  0.74976735  0.31317445  1
  O  O346  1  0.19070123  0.75026332  0.56242775  1
  O  O347  1  0.19084532  0.74980840  0.81180783  1
  O  O348  1  0.69499723  0.08321639  0.06211399  1
  O  O349  1  0.69076023  0.08326620  0.31320605  1
  O  O350  1  0.69268294  0.08319865  0.56049106  1
  O  O351  1  0.69488415  0.08330060  0.81183844  1
  O  O352  1  0.69478782  0.41659154  0.06218762  1
  O  O353  1  0.69040326  0.41625926  0.31321250  1
  O  O354  1  0.68946042  0.41666775  0.56214439  1
  O  O355  1  0.69312084  0.41664344  0.81155231  1
  O  O356  1  0.69088233  0.75012111  0.06294948  1
  O  O357  1  0.68935560  0.75030257  0.31225663  1
  O  O358  1  0.69327651  0.75039877  0.56068655  1
  O  O359  1  0.69407075  0.75027508  0.81223309  1
  O  O360  1  0.30977114  0.25019494  0.18757280  1
  O  O361  1  0.31087344  0.25057319  0.43742330  1
  O  O362  1  0.30902872  0.25050235  0.68825416  1
  O  O363  1  0.30901406  0.25025586  0.93771763  1
  O  O364  1  0.30979171  0.58331037  0.18816409  1
  O  O365  1  0.31080549  0.58305537  0.43732174  1
  O  O366  1  0.30889479  0.58295831  0.68752506  1
  O  O367  1  0.30749117  0.58314125  0.93780423  1
  O  O368  1  0.30666683  0.91623580  0.18913350  1
  O  O369  1  0.30885162  0.91637325  0.43724744  1
  O  O370  1  0.30649494  0.91672956  0.68888212  1
  O  O371  1  0.30713277  0.91659374  0.93690508  1
  O  O372  1  0.80809969  0.25037683  0.18803487  1
  O  O373  1  0.80848888  0.25061438  0.43693652  1
  O  O374  1  0.80604847  0.25030378  0.68842013  1
  O  O375  1  0.80916160  0.25050301  0.93764284  1
  O  O376  1  0.80817706  0.58365784  0.18752641  1
  O  O377  1  0.80509323  0.58321783  0.43825582  1
  O  O378  1  0.80585479  0.58380447  0.68849916  1
  O  O379  1  0.80794537  0.58337039  0.93917943  1
  O  O380  1  0.80952989  0.91593253  0.18783834  1
  O  O381  1  0.80977320  0.91590657  0.43736258  1
  O  O382  1  0.80903368  0.91604206  0.68694718  1
  O  O383  1  0.80739529  0.91645729  0.93921382  1
  O  O384  1  0.23456723  0.24996502  0.03839794  1
  O  O385  1  0.23602870  0.24983723  0.28890561  1
  O  O386  1  0.23654735  0.25005253  0.53832214  1
  O  O387  1  0.23350042  0.25038688  0.78826884  1
  O  O388  1  0.23292258  0.58358929  0.03863023  1
  O  O389  1  0.23580258  0.58301236  0.28901123  1
  O  O390  1  0.23604139  0.58279849  0.53780176  1
  O  O391  1  0.23316879  0.58299058  0.78727918  1
  O  O392  1  0.23210331  0.91632704  0.03761814  1
  O  O393  1  0.23452889  0.91747231  0.29130783  1
  O  O394  1  0.23289562  0.91731955  0.53744167  1
  O  O395  1  0.23324499  0.91644938  0.78990765  1
  O  O396  1  0.73447393  0.24988787  0.03855644  1
  O  O397  1  0.73368653  0.25026575  0.28873956  1
  O  O398  1  0.73382924  0.24997294  0.53733771  1
  O  O399  1  0.73288896  0.25009326  0.79011231  1
  O  O400  1  0.73466593  0.58276284  0.04082590  1
  O  O401  1  0.73221976  0.58262433  0.28710173  1
  O  O402  1  0.73077507  0.58391433  0.53918339  1
  O  O403  1  0.73377169  0.58349077  0.79116683  1
  O  O404  1  0.73487209  0.91724985  0.04155825  1
  O  O405  1  0.73529266  0.91641035  0.28842544  1
  O  O406  1  0.73521370  0.91663436  0.53786724  1
  O  O407  1  0.73578976  0.91686512  0.78903458  1
  O  O408  1  0.26869155  0.08308236  0.21016891  1
  O  O409  1  0.26861164  0.08391097  0.46096684  1
  O  O410  1  0.26507055  0.08387970  0.71214193  1
  O  O411  1  0.26472853  0.08353338  0.95934911  1
  O  O412  1  0.26593626  0.41633672  0.21201868  1
  O  O413  1  0.26904181  0.41630938  0.46002007  1
  O  O414  1  0.26541112  0.41632633  0.71183554  1
  O  O415  1  0.26525429  0.41692280  0.95961433  1
  O  O416  1  0.26574870  0.75028468  0.21255273  1
  O  O417  1  0.26488446  0.74986508  0.46160690  1
  O  O418  1  0.26432153  0.75007602  0.71040454  1
  O  O419  1  0.26648058  0.74937422  0.95949737  1
  O  O420  1  0.76703922  0.08429027  0.21376558  1
  O  O421  1  0.76546518  0.08310783  0.45896776  1
  O  O422  1  0.76837326  0.08377178  0.71014649  1
  O  O423  1  0.76905864  0.08394519  0.96110121  1
  O  O424  1  0.76607474  0.41604988  0.21323749  1
  O  O425  1  0.76354943  0.41701072  0.46108437  1
  O  O426  1  0.76498784  0.41650701  0.70898496  1
  O  O427  1  0.76868200  0.41622351  0.96089962  1
  O  O428  1  0.76407466  0.74985109  0.21206541  1
  O  O429  1  0.76541494  0.74921180  0.45824536  1
  O  O430  1  0.76836024  0.75019782  0.71087900  1
  O  O431  1  0.76599417  0.75019052  0.96270697  1
  O  O432  1  0.01386808  0.08352506  0.16468510  1
  O  O433  1  0.01516756  0.08360169  0.41310753  1
  O  O434  1  0.01559203  0.08293296  0.66532762  1
  O  O435  1  0.01597591  0.08418316  0.91284292  1
  O  O436  1  0.01366616  0.41707142  0.16401370  1
  O  O437  1  0.01672525  0.41641044  0.41279730  1
  O  O438  1  0.01669307  0.41689048  0.66427018  1
  O  O439  1  0.01729361  0.41595301  0.91447584  1
  O  O440  1  0.01624372  0.75022263  0.16592796  1
  O  O441  1  0.01797623  0.74984931  0.41419577  1
  O  O442  1  0.01764046  0.75059621  0.66488225  1
  O  O443  1  0.01791538  0.74931398  0.91223453  1
  O  O444  1  0.51574760  0.08322133  0.16493534  1
  O  O445  1  0.51646400  0.08382197  0.41333560  1
  O  O446  1  0.51496662  0.08364542  0.66373162  1
  O  O447  1  0.51614872  0.08372291  0.91577560  1
  O  O448  1  0.51620134  0.41654903  0.16479417  1
  O  O449  1  0.51787777  0.41619610  0.41468195  1
  O  O450  1  0.51645881  0.41684134  0.66358481  1
  O  O451  1  0.51588057  0.41659070  0.91612412  1
  O  O452  1  0.51589726  0.74957956  0.16216878  1
  O  O453  1  0.51792591  0.74971879  0.41462102  1
  O  O454  1  0.51597011  0.74928414  0.66573796  1
  O  O455  1  0.51433709  0.74979182  0.91604201  1
  O  O456  1  0.48420829  0.24991544  0.08735543  1
  O  O457  1  0.48273535  0.24976502  0.33492784  1
  O  O458  1  0.48343489  0.25032112  0.58774625  1
  O  O459  1  0.48416118  0.24986867  0.83782660  1
  O  O460  1  0.48279315  0.58356143  0.08759813  1
  O  O461  1  0.48372341  0.58328622  0.33643386  1
  O  O462  1  0.48280205  0.58276812  0.58523140  1
  O  O463  1  0.48082293  0.58337815  0.83666901  1
  O  O464  1  0.48322812  0.91667464  0.08516209  1
  O  O465  1  0.48206857  0.91662974  0.33520798  1
  O  O466  1  0.48361622  0.91652483  0.58503383  1
  O  O467  1  0.48127425  0.91658842  0.83617202  1
  O  O468  1  0.98076020  0.25007750  0.08688684  1
  O  O469  1  0.98217033  0.25075199  0.33559467  1
  O  O470  1  0.98451078  0.24980818  0.58654423  1
  O  O471  1  0.98245708  0.25027933  0.83467846  1
  O  O472  1  0.98255843  0.58294276  0.08550828  1
  O  O473  1  0.98390955  0.58326703  0.33509978  1
  O  O474  1  0.98492867  0.58374632  0.58631743  1
  O  O475  1  0.98621456  0.58289552  0.83634159  1
  O  O476  1  0.98252140  0.91661585  0.08521276  1
  O  O477  1  0.98317782  0.91678398  0.33763407  1
  O  O478  1  0.98274512  0.91621943  0.58483571  1
  O  O479  1  0.98515304  0.91716197  0.83703791  1
  O  O480  1  0.08463431  0.31488190  0.07735816  1
  O  O481  1  0.08602394  0.31598764  0.32732723  1
  O  O482  1  0.08820643  0.31470731  0.57705828  1
  O  O483  1  0.08669904  0.31517823  0.82722368  1
  O  O484  1  0.08660433  0.64807484  0.07685074  1
  O  O485  1  0.08795437  0.64786882  0.32807064  1
  O  O486  1  0.08844656  0.64933090  0.57881040  1
  O  O487  1  0.09015026  0.64756016  0.82788005  1
  O  O488  1  0.08627314  0.98221800  0.07712278  1
  O  O489  1  0.08660051  0.98162462  0.32719580  1
  O  O490  1  0.08662363  0.98120653  0.57597115  1
  O  O491  1  0.08840031  0.98241709  0.82881854  1
  O  O492  1  0.58808049  0.31463999  0.07703175  1
  O  O493  1  0.58677119  0.31480780  0.32699723  1
  O  O494  1  0.58687722  0.31556042  0.57855983  1
  O  O495  1  0.58792197  0.31482248  0.82769492  1
  O  O496  1  0.58637239  0.64889922  0.07795393  1
  O  O497  1  0.58765388  0.64803774  0.32734565  1
  O  O498  1  0.58683693  0.64752725  0.57699563  1
  O  O499  1  0.58464855  0.64841712  0.82759546  1
  O  O500  1  0.58712348  0.98119365  0.07706401  1
  O  O501  1  0.58572279  0.98212700  0.32705954  1
  O  O502  1  0.58731853  0.98158419  0.57753829  1
  O  O503  1  0.58519225  0.98186460  0.82714785  1
  O  O504  1  0.41116260  0.01958349  0.17283220  1
  O  O505  1  0.41279521  0.01827343  0.42247274  1
  O  O506  1  0.41101388  0.01929496  0.67202827  1
  O  O507  1  0.41225326  0.01846638  0.92225120  1
  O  O508  1  0.41266474  0.35125476  0.17195033  1
  O  O509  1  0.41396375  0.35125069  0.42277510  1
  O  O510  1  0.41297259  0.35164551  0.67227456  1
  O  O511  1  0.41237722  0.35099849  0.92208726  1
  O  O512  1  0.41244800  0.68429978  0.17191388  1
  O  O513  1  0.41391918  0.68504062  0.42215130  1
  O  O514  1  0.41237941  0.68354396  0.67175971  1
  O  O515  1  0.41024382  0.68489879  0.92299151  1
  O  O516  1  0.91030307  0.01800598  0.17187054  1
  O  O517  1  0.91143578  0.01886871  0.42121683  1
  O  O518  1  0.91223072  0.01674262  0.67218144  1
  O  O519  1  0.91200743  0.01996084  0.92282034  1
  O  O520  1  0.90989349  0.35196348  0.17253732  1
  O  O521  1  0.91293550  0.35120157  0.42198312  1
  O  O522  1  0.91290374  0.35207457  0.67247640  1
  O  O523  1  0.91335285  0.35047270  0.92238451  1
  O  O524  1  0.91272381  0.68445503  0.17245998  1
  O  O525  1  0.91426272  0.68505711  0.42321751  1
  O  O526  1  0.91363019  0.68583433  0.67372425  1
  O  O527  1  0.91404686  0.68475454  0.92217299  1
  O  O528  1  0.16443171  0.01876860  0.20236825  1
  O  O529  1  0.16482214  0.01825752  0.45197088  1
  O  O530  1  0.16130890  0.01987667  0.70288219  1
  O  O531  1  0.16098577  0.01780351  0.95258617  1
  O  O532  1  0.16240634  0.35120047  0.20257677  1
  O  O533  1  0.16494200  0.35136928  0.45105409  1
  O  O534  1  0.16213164  0.35094779  0.70294967  1
  O  O535  1  0.16110014  0.35246871  0.95211939  1
  O  O536  1  0.16242430  0.68515257  0.20299718  1
  O  O537  1  0.16090378  0.68585945  0.45242265  1
  O  O538  1  0.16128904  0.68355841  0.70241040  1
  O  O539  1  0.16251546  0.68450158  0.95240950  1
  O  O540  1  0.66381235  0.01918468  0.20252654  1
  O  O541  1  0.66145330  0.01822582  0.45113607  1
  O  O542  1  0.66443185  0.01913053  0.70229874  1
  O  O543  1  0.66538070  0.01894346  0.95213447  1
  O  O544  1  0.66276781  0.35076630  0.20326332  1
  O  O545  1  0.65958097  0.35286148  0.45190261  1
  O  O546  1  0.66146148  0.35033816  0.70288927  1
  O  O547  1  0.66486853  0.35082155  0.95312324  1
  O  O548  1  0.66057717  0.68404187  0.20261343  1
  O  O549  1  0.66108768  0.68440922  0.45218392  1
  O  O550  1  0.66434358  0.68525490  0.70296391  1
  O  O551  1  0.66251004  0.68501489  0.95303835  1
  O  O552  1  0.33826970  0.31514794  0.04773296  1
  O  O553  1  0.34024895  0.31358890  0.29784046  1
  O  O554  1  0.33992478  0.31564351  0.54746324  1
  O  O555  1  0.33737099  0.31523400  0.79841319  1
  O  O556  1  0.33645378  0.64951835  0.04737579  1
  O  O557  1  0.33938128  0.64827928  0.29821930  1
  O  O558  1  0.33981114  0.64706262  0.54762357  1
  O  O559  1  0.33655023  0.64823229  0.79773766  1
  O  O560  1  0.33604646  0.98047415  0.04697397  1
  O  O561  1  0.33862479  0.98269093  0.29754792  1
  O  O562  1  0.33662731  0.98231627  0.54693892  1
  O  O563  1  0.33706576  0.98154799  0.79857911  1
  O  O564  1  0.83797604  0.31531372  0.04779573  1
  O  O565  1  0.83732466  0.31569869  0.29797296  1
  O  O566  1  0.83702990  0.31552576  0.54705439  1
  O  O567  1  0.83710786  0.31452839  0.79800032  1
  O  O568  1  0.83871153  0.64742314  0.04888324  1
  O  O569  1  0.83565090  0.64759942  0.29806545  1
  O  O570  1  0.83507009  0.64825392  0.54754339  1
  O  O571  1  0.83747511  0.64935349  0.79739854  1
  O  O572  1  0.83883186  0.98251060  0.04773065  1
  O  O573  1  0.83876088  0.98226259  0.29728991  1
  O  O574  1  0.83919746  0.98093395  0.54722482  1
  O  O575  1  0.83955921  0.98158698  0.79611761  1
  O  O576  1  0.41246825  0.14961526  0.17243173  1
  O  O577  1  0.41253571  0.14843502  0.42203868  1
  O  O578  1  0.41170904  0.14948433  0.67182390  1
  O  O579  1  0.41231938  0.14875535  0.92212736  1
  O  O580  1  0.41235975  0.48146538  0.17200310  1
  O  O581  1  0.41397784  0.48134870  0.42272776  1
  O  O582  1  0.41265583  0.48175934  0.67166683  1
  O  O583  1  0.41174056  0.48129007  0.92201882  1
  O  O584  1  0.41241256  0.81445701  0.17217137  1
  O  O585  1  0.41413641  0.81512920  0.42251386  1
  O  O586  1  0.41188863  0.81370752  0.67235489  1
  O  O587  1  0.41043838  0.81509588  0.92300773  1
  O  O588  1  0.90980660  0.14823240  0.17224971  1
  O  O589  1  0.91187376  0.14927109  0.42141551  1
  O  O590  1  0.91122979  0.14688056  0.67320225  1
  O  O591  1  0.91246706  0.15000529  0.92197235  1
  O  O592  1  0.90989037  0.48214216  0.17230360  1
  O  O593  1  0.91307533  0.48138575  0.42269862  1
  O  O594  1  0.91314520  0.48222054  0.67262237  1
  O  O595  1  0.91318635  0.48042199  0.92318301  1
  O  O596  1  0.91221829  0.81474236  0.17197898  1
  O  O597  1  0.91427828  0.81520751  0.42258952  1
  O  O598  1  0.91378061  0.81590393  0.67276454  1
  O  O599  1  0.91441934  0.81467523  0.92239920  1
  O  O600  1  0.08448522  0.18495241  0.07742988  1
  O  O601  1  0.08589522  0.18579442  0.32674117  1
  O  O602  1  0.08794813  0.18466142  0.57718213  1
  O  O603  1  0.08651179  0.18519418  0.82702680  1
  O  O604  1  0.08669623  0.51819231  0.07682943  1
  O  O605  1  0.08733509  0.51748353  0.32761985  1
  O  O606  1  0.08877301  0.51930086  0.57739426  1
  O  O607  1  0.08968114  0.51732561  0.82829537  1
  O  O608  1  0.08695418  0.85229974  0.07722483  1
  O  O609  1  0.08669522  0.85134107  0.32828845  1
  O  O610  1  0.08704402  0.85127383  0.57729474  1
  O  O611  1  0.08856967  0.85198985  0.82853006  1
  O  O612  1  0.58792152  0.18466401  0.07707748  1
  O  O613  1  0.58684381  0.18481436  0.32676477  1
  O  O614  1  0.58691142  0.18549016  0.57765131  1
  O  O615  1  0.58793579  0.18483411  0.82727288  1
  O  O616  1  0.58640226  0.51880701  0.07729571  1
  O  O617  1  0.58727306  0.51784913  0.32735850  1
  O  O618  1  0.58665286  0.51755000  0.57759686  1
  O  O619  1  0.58475623  0.51838012  0.82790557  1
  O  O620  1  0.58670596  0.85089595  0.07755280  1
  O  O621  1  0.58612577  0.85195433  0.32747453  1
  O  O622  1  0.58742632  0.85144630  0.57785899  1
  O  O623  1  0.58523576  0.85173690  0.82738543  1
  O  O624  1  0.33860667  0.18526808  0.04739167  1
  O  O625  1  0.33930202  0.18360142  0.29684215  1
  O  O626  1  0.34038113  0.18536882  0.54720201  1
  O  O627  1  0.33730398  0.18547833  0.79846911  1
  O  O628  1  0.33717959  0.51954583  0.04808513  1
  O  O629  1  0.33986185  0.51840174  0.29784407  1
  O  O630  1  0.33933555  0.51684389  0.54702795  1
  O  O631  1  0.33689415  0.51835430  0.79808166  1
  O  O632  1  0.33529483  0.85034850  0.04668523  1
  O  O633  1  0.33847989  0.85271569  0.29897073  1
  O  O634  1  0.33614921  0.85202526  0.54753968  1
  O  O635  1  0.33719575  0.85166921  0.79815414  1
  O  O636  1  0.83837108  0.18523364  0.04753021  1
  O  O637  1  0.83786439  0.18570601  0.29792642  1
  O  O638  1  0.83756176  0.18544160  0.54664471  1
  O  O639  1  0.83692319  0.18463279  0.79759523  1
  O  O640  1  0.83845742  0.51730224  0.04799579  1
  O  O641  1  0.83577298  0.51744248  0.29748211  1
  O  O642  1  0.83432233  0.51834765  0.54798815  1
  O  O643  1  0.83788297  0.51915943  0.79728132  1
  O  O644  1  0.83888500  0.85240733  0.04860321  1
  O  O645  1  0.83928497  0.85211696  0.29804486  1
  O  O646  1  0.83864906  0.85100570  0.54741316  1
  O  O647  1  0.83920538  0.85127708  0.79680520  1
  O  O648  1  0.16506344  0.14875139  0.20168494  1
  O  O649  1  0.16476066  0.14826921  0.45164481  1
  O  O650  1  0.16223587  0.15024941  0.70283942  1
  O  O651  1  0.16052144  0.14788223  0.95204340  1
  O  O652  1  0.16241407  0.48128775  0.20277084  1
  O  O653  1  0.16490559  0.48129635  0.45109101  1
  O  O654  1  0.16204820  0.48136166  0.70310641  1
  O  O655  1  0.16164248  0.48253426  0.95281287  1
  O  O656  1  0.16225193  0.81531999  0.20350835  1
  O  O657  1  0.16148352  0.81602234  0.45277024  1
  O  O658  1  0.16001250  0.81371026  0.70201197  1
  O  O659  1  0.16242813  0.81455379  0.95222087  1
  O  O660  1  0.66358326  0.14940056  0.20325367  1
  O  O661  1  0.66149614  0.14815181  0.45119477  1
  O  O662  1  0.66456820  0.14930198  0.70286642  1
  O  O663  1  0.66510361  0.14896437  0.95291614  1
  O  O664  1  0.66253284  0.48101469  0.20280224  1
  O  O665  1  0.66023177  0.48300457  0.45276960  1
  O  O666  1  0.66043453  0.48048281  0.70250646  1
  O  O667  1  0.66471016  0.48087900  0.95257250  1
  O  O668  1  0.66013187  0.81421992  0.20203227  1
  O  O669  1  0.66163311  0.81442282  0.45114659  1
  O  O670  1  0.66465841  0.81533350  0.70262562  1
  O  O671  1  0.66257357  0.81528137  0.95290454  1
