# generated using pymatgen
data_Na2MnFe(PO4)2
_symmetry_space_group_name_H-M   'P 1'
_cell_length_a   21.08413927
_cell_length_b   18.93665549
_cell_length_c   20.04306202
_cell_angle_alpha   89.99956529
_cell_angle_beta   90.00476616
_cell_angle_gamma   90.00398691
_symmetry_Int_Tables_number   1
_chemical_formula_structural   Na2MnFe(PO4)2
_chemical_formula_sum   'Na96 Mn48 Fe48 P96 O384'
_cell_volume   8002.45466037
_cell_formula_units_Z   48
loop_
 _symmetry_equiv_pos_site_id
 _symmetry_equiv_pos_as_xyz
  1  'x, y, z'
loop_
 _atom_site_type_symbol
 _atom_site_label
 _atom_site_symmetry_multiplicity
 _atom_site_fract_x
 _atom_site_fract_y
 _atom_site_fract_z
 _atom_site_occupancy
  Na  Na0  1  -0.00093709  -0.00012857  0.00017567  1
  Na  Na1  1  -0.00024758  -0.00059285  0.24978401  1
  Na  Na2  1  0.00268653  0.00068182  0.49993274  1
  Na  Na3  1  -0.00056297  -0.00065188  0.75122749  1
  Na  Na4  1  -0.00018481  0.33314729  0.00067227  1
  Na  Na5  1  0.00007492  0.33359775  0.24900392  1
  Na  Na6  1  -0.00109235  0.33295450  0.49991265  1
  Na  Na7  1  0.00083336  0.33378431  0.74969531  1
  Na  Na8  1  -0.00032809  0.66700327  -0.00050131  1
  Na  Na9  1  0.00184299  0.66716678  0.24964565  1
  Na  Na10  1  0.00231723  0.66747109  0.49940775  1
  Na  Na11  1  -0.00076681  0.66647622  0.75117941  1
  Na  Na12  1  0.50014572  -0.00015954  -0.00035185  1
  Na  Na13  1  0.49772805  -0.00081043  0.24992984  1
  Na  Na14  1  0.49918119  0.00048898  0.49957646  1
  Na  Na15  1  0.49901179  -0.00071176  0.75017417  1
  Na  Na16  1  0.50071074  0.33346550  0.00126106  1
  Na  Na17  1  0.49952354  0.33373731  0.24916856  1
  Na  Na18  1  0.49937545  0.33370515  0.50015886  1
  Na  Na19  1  0.50170337  0.33418775  0.74983473  1
  Na  Na20  1  0.49913847  0.66617055  0.00026964  1
  Na  Na21  1  0.50138765  0.66721455  0.24991332  1
  Na  Na22  1  0.50096289  0.66651265  0.50041592  1
  Na  Na23  1  0.50090104  0.66680920  0.74899385  1
  Na  Na24  1  0.25165381  -0.00046479  0.12534769  1
  Na  Na25  1  0.25193138  0.00027642  0.37388315  1
  Na  Na26  1  0.25068454  -0.00061701  0.62515576  1
  Na  Na27  1  0.25075602  -0.00054822  0.87479131  1
  Na  Na28  1  0.25017378  0.33303956  0.12395609  1
  Na  Na29  1  0.25126079  0.33399437  0.37512570  1
  Na  Na30  1  0.24964205  0.33273275  0.62517535  1
  Na  Na31  1  0.25069347  0.33378719  0.87554311  1
  Na  Na32  1  0.24903239  0.66674813  0.12525210  1
  Na  Na33  1  0.24895514  0.66670407  0.37445413  1
  Na  Na34  1  0.24846119  0.66672415  0.62575103  1
  Na  Na35  1  0.24850562  0.66675862  0.87546663  1
  Na  Na36  1  0.75036977  0.00034239  0.12661658  1
  Na  Na37  1  0.74880892  -0.00014446  0.37434333  1
  Na  Na38  1  0.74867695  -0.00041023  0.62449543  1
  Na  Na39  1  0.75032937  0.00027088  0.87556375  1
  Na  Na40  1  0.74876360  0.33289223  0.12482377  1
  Na  Na41  1  0.75096167  0.33454590  0.37588018  1
  Na  Na42  1  0.74883491  0.33369419  0.62554760  1
  Na  Na43  1  0.74794810  0.33284462  0.87467832  1
  Na  Na44  1  0.74958585  0.66617300  0.12399710  1
  Na  Na45  1  0.74807667  0.66543480  0.37366889  1
  Na  Na46  1  0.75061848  0.66646467  0.62509353  1
  Na  Na47  1  0.75161190  0.66737818  0.87577491  1
  Na  Na48  1  0.00002971  0.16740170  0.00056009  1
  Na  Na49  1  0.00257580  0.16556528  0.24836062  1
  Na  Na50  1  0.00141476  0.16678820  0.50051051  1
  Na  Na51  1  0.00124059  0.16666040  0.75067377  1
  Na  Na52  1  -0.00314197  0.50094823  0.00044120  1
  Na  Na53  1  -0.00196634  0.50033444  0.25035316  1
  Na  Na54  1  -0.00112793  0.50017611  0.49892737  1
  Na  Na55  1  -0.00283884  0.50105854  0.75060687  1
  Na  Na56  1  0.00036249  0.83290276  -0.00079268  1
  Na  Na57  1  0.00231599  0.83289026  0.24997040  1
  Na  Na58  1  0.00299027  0.83284024  0.49954798  1
  Na  Na59  1  0.00096095  0.83284674  0.75094125  1
  Na  Na60  1  0.50098707  0.16727391  0.00047070  1
  Na  Na61  1  0.50285739  0.16506819  0.24965043  1
  Na  Na62  1  0.50064123  0.16633694  0.49988146  1
  Na  Na63  1  0.50147264  0.16646088  0.74979640  1
  Na  Na64  1  0.49931333  0.50067040  0.00070758  1
  Na  Na65  1  0.49843044  0.50075456  0.25027170  1
  Na  Na66  1  0.50120773  0.50011469  0.49952784  1
  Na  Na67  1  0.50361257  0.49892827  0.74905333  1
  Na  Na68  1  0.49856421  0.83347999  -0.00014759  1
  Na  Na69  1  0.49828450  0.83314841  0.24936644  1
  Na  Na70  1  0.49636173  0.83430103  0.50048554  1
  Na  Na71  1  0.49725683  0.83376113  0.75044396  1
  Na  Na72  1  0.24944271  0.16729679  0.12404859  1
  Na  Na73  1  0.25027790  0.16660784  0.37494322  1
  Na  Na74  1  0.25078180  0.16657515  0.62489219  1
  Na  Na75  1  0.24944418  0.16766415  0.87579834  1
  Na  Na76  1  0.25280037  0.49919646  0.12515043  1
  Na  Na77  1  0.25081508  0.50018014  0.37426871  1
  Na  Na78  1  0.25002687  0.49987779  0.62535794  1
  Na  Na79  1  0.25025089  0.50024855  0.87522635  1
  Na  Na80  1  0.25027363  0.83285687  0.12501083  1
  Na  Na81  1  0.24993110  0.83369565  0.37459653  1
  Na  Na82  1  0.24988846  0.83307739  0.62538319  1
  Na  Na83  1  0.24959406  0.83277348  0.87489403  1
  Na  Na84  1  0.74716180  0.16668132  0.12562875  1
  Na  Na85  1  0.74652595  0.16713076  0.37518183  1
  Na  Na86  1  0.74739570  0.16660210  0.62381219  1
  Na  Na87  1  0.74812749  0.16629166  0.87572598  1
  Na  Na88  1  0.75303662  0.49928479  0.12396510  1
  Na  Na89  1  0.75077231  0.50038890  0.37495502  1
  Na  Na90  1  0.74953536  0.50056487  0.62648770  1
  Na  Na91  1  0.75036388  0.50018215  0.87429216  1
  Na  Na92  1  0.74952082  0.83347838  0.12558685  1
  Na  Na93  1  0.75006443  0.83322132  0.37412334  1
  Na  Na94  1  0.75152403  0.83262765  0.62493918  1
  Na  Na95  1  0.75134414  0.83267252  0.87588516  1
  Mn  Mn96  1  0.85700790  0.08321658  0.75160882  1
  Mn  Mn97  1  0.14239231  0.91758101  0.74795009  1
  Mn  Mn98  1  0.39232971  0.24964131  0.37674192  1
  Mn  Mn99  1  0.64113656  0.91530326  0.49758945  1
  Mn  Mn100  1  0.10790098  0.41614587  0.37270602  1
  Mn  Mn101  1  0.85772919  0.74966085  0.25184030  1
  Mn  Mn102  1  0.89236716  0.24893261  0.37637860  1
  Mn  Mn103  1  0.89190839  0.24974471  0.62769907  1
  Mn  Mn104  1  0.60810755  0.75051810  0.62261131  1
  Mn  Mn105  1  0.60772298  0.74957679  0.87301802  1
  Mn  Mn106  1  0.89292097  0.91626839  0.62666519  1
  Mn  Mn107  1  0.89231050  0.58399596  0.37720499  1
  Mn  Mn108  1  0.60799806  0.41643640  0.37238576  1
  Mn  Mn109  1  0.35785880  0.74976644  0.25205643  1
  Mn  Mn110  1  0.10756549  0.41724609  0.87357369  1
  Mn  Mn111  1  0.35718534  0.74919299  0.75232980  1
  Mn  Mn112  1  0.85779706  0.08353332  0.50179814  1
  Mn  Mn113  1  0.39227154  0.58393573  0.37781143  1
  Mn  Mn114  1  0.10874435  0.08285156  0.62264921  1
  Mn  Mn115  1  0.10764321  0.41761514  0.12253826  1
  Mn  Mn116  1  0.10810477  0.08249957  0.12215929  1
  Mn  Mn117  1  0.85716486  0.08424248  0.25283081  1
  Mn  Mn118  1  0.89179017  0.91671418  0.87797078  1
  Mn  Mn119  1  0.39241903  0.58299087  0.87718174  1
  Mn  Mn120  1  0.14265447  0.24993413  0.49716076  1
  Mn  Mn121  1  0.60722259  0.75082569  0.37310467  1
  Mn  Mn122  1  0.10768899  0.08328565  0.87343187  1
  Mn  Mn123  1  0.39251705  0.58350523  0.62686885  1
  Mn  Mn124  1  0.64186375  0.25063162  0.49718879  1
  Mn  Mn125  1  0.64171132  0.91603769  0.74772896  1
  Mn  Mn126  1  0.60765054  0.41718354  0.12269390  1
  Mn  Mn127  1  0.14317445  0.91765266  0.24708933  1
  Mn  Mn128  1  0.64115839  0.91618221  0.24727224  1
  Mn  Mn129  1  0.35842080  0.08411970  0.75258651  1
  Mn  Mn130  1  0.85886951  0.74961748  0.50197268  1
  Mn  Mn131  1  0.14083658  0.58230530  0.74765246  1
  Mn  Mn132  1  0.85670746  0.41614673  0.75234421  1
  Mn  Mn133  1  0.89169539  0.24978190  0.12750776  1
  Mn  Mn134  1  0.64279997  0.58341313  0.99768967  1
  Mn  Mn135  1  0.35789156  0.08309014  0.00254701  1
  Mn  Mn136  1  0.14242615  0.58202391  0.24696515  1
  Mn  Mn137  1  0.89332536  0.91709304  0.37729995  1
  Mn  Mn138  1  0.39266893  0.24978525  0.12751659  1
  Mn  Mn139  1  0.60768772  0.08332630  0.87288698  1
  Mn  Mn140  1  0.39273301  0.25008200  0.62746054  1
  Mn  Mn141  1  0.35870193  0.41674189  0.75247875  1
  Mn  Mn142  1  0.89138979  0.25015982  0.87709779  1
  Mn  Mn143  1  0.10745586  0.41771186  0.62258428  1
  Fe  Fe144  1  0.14401220  0.91658570  0.49831744  1
  Fe  Fe145  1  0.85672822  0.41584895  0.00151359  1
  Fe  Fe146  1  0.14291843  0.91624870  0.99863684  1
  Fe  Fe147  1  0.64158282  0.25011353  0.74810745  1
  Fe  Fe148  1  0.64370259  0.58383291  0.74837012  1
  Fe  Fe149  1  0.35793562  0.41739187  0.00115353  1
  Fe  Fe150  1  0.14336263  0.25021771  0.24849246  1
  Fe  Fe151  1  0.10730025  0.74965695  0.62339241  1
  Fe  Fe152  1  0.35619923  0.74944330  0.50175069  1
  Fe  Fe153  1  0.85678982  0.41624441  0.25133421  1
  Fe  Fe154  1  0.64268854  0.58278185  0.24762948  1
  Fe  Fe155  1  0.85813001  0.75022732  0.75135922  1
  Fe  Fe156  1  0.39283942  0.91634388  0.12570911  1
  Fe  Fe157  1  0.35747484  0.41722609  0.50177394  1
  Fe  Fe158  1  0.60667987  0.08282570  0.62299024  1
  Fe  Fe159  1  0.35797145  0.08444963  0.25147532  1
  Fe  Fe160  1  0.35758219  0.08334500  0.50161382  1
  Fe  Fe161  1  0.85718247  0.41688436  0.50194630  1
  Fe  Fe162  1  0.64274521  0.91645394  0.99894391  1
  Fe  Fe163  1  0.89294312  0.58433122  0.12665366  1
  Fe  Fe164  1  0.35638831  0.74906220  0.00158186  1
  Fe  Fe165  1  0.89261658  0.58401305  0.62627707  1
  Fe  Fe166  1  0.64221943  0.25116096  0.24840785  1
  Fe  Fe167  1  0.10645031  0.74965673  0.87395475  1
  Fe  Fe168  1  0.64349032  0.58354288  0.49860967  1
  Fe  Fe169  1  0.60670010  0.75052521  0.12291773  1
  Fe  Fe170  1  0.39333875  0.25029011  0.87669744  1
  Fe  Fe171  1  0.39225493  0.91659945  0.87757254  1
  Fe  Fe172  1  0.14254327  0.58324465  0.49873021  1
  Fe  Fe173  1  0.39205394  0.91645147  0.37722624  1
  Fe  Fe174  1  0.60696064  0.08185003  0.12337868  1
  Fe  Fe175  1  0.60614481  0.08270485  0.37343800  1
  Fe  Fe176  1  0.10861729  0.75037256  0.37337758  1
  Fe  Fe177  1  0.14308393  0.25024194  0.74897961  1
  Fe  Fe178  1  0.10723054  0.75002648  0.12261557  1
  Fe  Fe179  1  0.85650301  0.08333079  0.00215921  1
  Fe  Fe180  1  0.60764634  0.41709113  0.87425336  1
  Fe  Fe181  1  0.10916144  0.08338372  0.37291228  1
  Fe  Fe182  1  0.39238908  0.58416734  0.12635765  1
  Fe  Fe183  1  0.64261595  0.24975681  0.99808993  1
  Fe  Fe184  1  0.39205266  0.91680871  0.62629367  1
  Fe  Fe185  1  0.14308662  0.25048771  0.99786217  1
  Fe  Fe186  1  0.89280090  0.91613583  0.12632401  1
  Fe  Fe187  1  0.89209649  0.58323433  0.87718687  1
  Fe  Fe188  1  0.85757389  0.75083216  0.00293977  1
  Fe  Fe189  1  0.35740259  0.41604378  0.25170107  1
  Fe  Fe190  1  0.60780831  0.41670504  0.62244720  1
  Fe  Fe191  1  0.14258603  0.58299423  0.99899101  1
  P  P192  1  0.05541651  0.25025628  0.11037014  1
  P  P193  1  0.05433873  0.24928229  0.35865753  1
  P  P194  1  0.05465834  0.25042570  0.61096338  1
  P  P195  1  0.05490599  0.25047366  0.86071834  1
  P  P196  1  0.05258265  0.58384215  0.10929925  1
  P  P197  1  0.05517977  0.58365365  0.36080124  1
  P  P198  1  0.05219356  0.58406925  0.60935249  1
  P  P199  1  0.05292608  0.58373281  0.86192282  1
  P  P200  1  0.05305378  0.91595675  0.10919067  1
  P  P201  1  0.05622317  0.91713238  0.36098476  1
  P  P202  1  0.05469827  0.91563280  0.60948732  1
  P  P203  1  0.05462793  0.91593337  0.86179513  1
  P  P204  1  0.55550359  0.24936192  0.11082395  1
  P  P205  1  0.55361608  0.24962412  0.35920254  1
  P  P206  1  0.55476492  0.25007644  0.61093340  1
  P  P207  1  0.55420590  0.25106098  0.86101592  1
  P  P208  1  0.55337617  0.58396358  0.11103872  1
  P  P209  1  0.55523297  0.58339763  0.36031604  1
  P  P210  1  0.55581099  0.58295060  0.61034679  1
  P  P211  1  0.55423664  0.58270678  0.85941815  1
  P  P212  1  0.55242455  0.91633280  0.10942521  1
  P  P213  1  0.55107464  0.91688929  0.35985084  1
  P  P214  1  0.55155774  0.91698298  0.60998927  1
  P  P215  1  0.55289814  0.91618043  0.86138748  1
  P  P216  1  0.44720455  0.08267707  0.14005898  1
  P  P217  1  0.44557722  0.08297120  0.38915024  1
  P  P218  1  0.44632472  0.08277382  0.63873572  1
  P  P219  1  0.44668333  0.08389192  0.89017836  1
  P  P220  1  0.44456273  0.41778173  0.13930861  1
  P  P221  1  0.44513800  0.41666534  0.38962143  1
  P  P222  1  0.44715237  0.41718353  0.63880978  1
  P  P223  1  0.44805660  0.41604270  0.89065693  1
  P  P224  1  0.44598361  0.74973698  0.13826479  1
  P  P225  1  0.44560439  0.75042550  0.39091249  1
  P  P226  1  0.44508028  0.75035480  0.63873248  1
  P  P227  1  0.44565905  0.74994312  0.89076237  1
  P  P228  1  0.94506288  0.08240117  0.13887210  1
  P  P229  1  0.94910221  0.08359220  0.38985651  1
  P  P230  1  0.94743139  0.08302528  0.64043835  1
  P  P231  1  0.94547157  0.08384058  0.89120718  1
  P  P232  1  0.94437044  0.41733426  0.13930235  1
  P  P233  1  0.94459676  0.41615299  0.38920579  1
  P  P234  1  0.94500010  0.41778669  0.63893742  1
  P  P235  1  0.94544475  0.41683679  0.89075784  1
  P  P236  1  0.94677471  0.75041446  0.13871024  1
  P  P237  1  0.94881848  0.75036436  0.38959496  1
  P  P238  1  0.94786103  0.74928447  0.64045254  1
  P  P239  1  0.94511620  0.74945194  0.88972546  1
  P  P240  1  0.19755267  0.08431096  0.23554523  1
  P  P241  1  0.19820716  0.08219067  0.48448295  1
  P  P242  1  0.19715662  0.08445253  0.73537843  1
  P  P243  1  0.19690799  0.08266531  0.98523931  1
  P  P244  1  0.19800153  0.41562679  0.23469611  1
  P  P245  1  0.19795102  0.41760329  0.48505629  1
  P  P246  1  0.19674257  0.41569779  0.73524588  1
  P  P247  1  0.19797038  0.41750452  0.98545330  1
  P  P248  1  0.19486776  0.75011593  0.23496869  1
  P  P249  1  0.19597873  0.74999143  0.48599106  1
  P  P250  1  0.19409200  0.74988311  0.73585619  1
  P  P251  1  0.19524015  0.74969323  0.98605342  1
  P  P252  1  0.69373049  0.08381172  0.23597004  1
  P  P253  1  0.69410130  0.08254428  0.48496499  1
  P  P254  1  0.69508546  0.08364123  0.73427781  1
  P  P255  1  0.69582475  0.08230991  0.98707030  1
  P  P256  1  0.69750421  0.41734006  0.23483708  1
  P  P257  1  0.69675829  0.41805886  0.48617789  1
  P  P258  1  0.69396621  0.41699377  0.73617700  1
  P  P259  1  0.69715260  0.41638708  0.98466737  1
  P  P260  1  0.69537763  0.74901975  0.23393965  1
  P  P261  1  0.69732463  0.74901899  0.48455230  1
  P  P262  1  0.69817906  0.74925318  0.73541207  1
  P  P263  1  0.69666417  0.75098200  0.98664718  1
  P  P264  1  0.30418069  0.25089267  0.01360330  1
  P  P265  1  0.30277330  0.24999311  0.26453461  1
  P  P266  1  0.30401128  0.25006774  0.51483319  1
  P  P267  1  0.30344753  0.25031057  0.76609085  1
  P  P268  1  0.30282088  0.58385391  0.01526271  1
  P  P269  1  0.30481927  0.58293556  0.26370903  1
  P  P270  1  0.30194299  0.58375949  0.51498575  1
  P  P271  1  0.30266274  0.58325412  0.76534525  1
  P  P272  1  0.30384230  0.91514645  0.01428059  1
  P  P273  1  0.30613135  0.91727950  0.26384983  1
  P  P274  1  0.30416897  0.91632965  0.51409745  1
  P  P275  1  0.30536715  0.91651174  0.76476797  1
  P  P276  1  0.80169820  0.24969399  0.01491476  1
  P  P277  1  0.80138790  0.25063948  0.26506393  1
  P  P278  1  0.80322968  0.25053878  0.51486453  1
  P  P279  1  0.80084474  0.24953291  0.76494013  1
  P  P280  1  0.80564267  0.58340802  0.01401612  1
  P  P281  1  0.80368692  0.58289257  0.26328383  1
  P  P282  1  0.80322469  0.58282846  0.51552220  1
  P  P283  1  0.80460753  0.58427413  0.76442274  1
  P  P284  1  0.80273640  0.91680835  0.01616208  1
  P  P285  1  0.80432845  0.91641622  0.26405674  1
  P  P286  1  0.80305973  0.91670184  0.51472761  1
  P  P287  1  0.80326111  0.91604048  0.76505617  1
  O  O288  1  0.06017064  0.25031950  0.18708304  1
  O  O289  1  0.05715437  0.25031336  0.43553329  1
  O  O290  1  0.05914604  0.25040789  0.68770004  1
  O  O291  1  0.05968873  0.25062471  0.93754150  1
  O  O292  1  0.05643120  0.58259655  0.18603052  1
  O  O293  1  0.05948032  0.58281097  0.43754905  1
  O  O294  1  0.05516681  0.58280885  0.68615907  1
  O  O295  1  0.05815970  0.58283283  0.93850296  1
  O  O296  1  0.05704268  0.91693042  0.18591498  1
  O  O297  1  0.06046739  0.91728384  0.43771538  1
  O  O298  1  0.05692936  0.91688464  0.68632757  1
  O  O299  1  0.05898224  0.91671175  0.93848776  1
  O  O300  1  0.55931300  0.25079989  0.18759125  1
  O  O301  1  0.55625720  0.25097244  0.43604260  1
  O  O302  1  0.55807461  0.25029216  0.68777111  1
  O  O303  1  0.55900302  0.25026732  0.93779894  1
  O  O304  1  0.55814852  0.58295490  0.18769870  1
  O  O305  1  0.55978141  0.58313775  0.43705062  1
  O  O306  1  0.56004917  0.58391097  0.68709390  1
  O  O307  1  0.55706335  0.58366137  0.93627224  1
  O  O308  1  0.55546498  0.91611050  0.18615820  1
  O  O309  1  0.55480354  0.91626232  0.43651265  1
  O  O310  1  0.55530820  0.91595123  0.68672401  1
  O  O311  1  0.55842097  0.91601474  0.93797304  1
  O  O312  1  0.44352303  0.08388891  0.06335261  1
  O  O313  1  0.44127796  0.08413663  0.31242866  1
  O  O314  1  0.44150247  0.08356621  0.56202131  1
  O  O315  1  0.44423930  0.08398327  0.81337181  1
  O  O316  1  0.44048383  0.41705456  0.06250079  1
  O  O317  1  0.44068272  0.41651906  0.31282702  1
  O  O318  1  0.44143708  0.41755378  0.56216790  1
  O  O319  1  0.44491669  0.41661107  0.81388322  1
  O  O320  1  0.44108715  0.74923259  0.06167168  1
  O  O321  1  0.44313250  0.74921215  0.31406961  1
  O  O322  1  0.44043067  0.74921019  0.56203982  1
  O  O323  1  0.44283162  0.74906270  0.81395418  1
  O  O324  1  0.94019509  0.08367241  0.06217468  1
  O  O325  1  0.94435406  0.08375643  0.31314030  1
  O  O326  1  0.94408749  0.08341071  0.56366092  1
  O  O327  1  0.94231633  0.08377953  0.81442122  1
  O  O328  1  0.94005435  0.41579916  0.06256352  1
  O  O329  1  0.94013203  0.41623843  0.31238917  1
  O  O330  1  0.94106116  0.41683837  0.56214546  1
  O  O331  1  0.94240209  0.41592218  0.81392674  1
  O  O332  1  0.94194772  0.75055196  0.06201225  1
  O  O333  1  0.94441040  0.75008646  0.31292876  1
  O  O334  1  0.94474041  0.74998139  0.56369297  1
  O  O335  1  0.94087426  0.75026163  0.81300599  1
  O  O336  1  0.19444566  0.08232742  0.06207614  1
  O  O337  1  0.19314024  0.08333235  0.31222220  1
  O  O338  1  0.19454955  0.08263954  0.56120438  1
  O  O339  1  0.19386143  0.08344003  0.81210624  1
  O  O340  1  0.19430067  0.41750435  0.06209424  1
  O  O341  1  0.19411933  0.41665984  0.31134493  1
  O  O342  1  0.19390741  0.41709178  0.56172556  1
  O  O343  1  0.19346877  0.41690353  0.81197438  1
  O  O344  1  0.19095183  0.75002498  0.06284194  1
  O  O345  1  0.19107282  0.75026372  0.31179628  1
  O  O346  1  0.19175819  0.74985900  0.56271560  1
  O  O347  1  0.18980715  0.74963118  0.81263464  1
  O  O348  1  0.69125932  0.08208502  0.06373861  1
  O  O349  1  0.68935151  0.08239267  0.31273796  1
  O  O350  1  0.68973438  0.08218574  0.56174984  1
  O  O351  1  0.69251425  0.08279981  0.81119119  1
  O  O352  1  0.69364661  0.41736115  0.06136436  1
  O  O353  1  0.69431979  0.41754973  0.31156777  1
  O  O354  1  0.69216836  0.41718909  0.56286322  1
  O  O355  1  0.69055455  0.41686603  0.81297681  1
  O  O356  1  0.69107759  0.75033794  0.06322276  1
  O  O357  1  0.69243190  0.75022754  0.31071659  1
  O  O358  1  0.69423351  0.75027762  0.56131722  1
  O  O359  1  0.69432538  0.74990501  0.81211424  1
  O  O360  1  0.30603029  0.24963861  0.18779347  1
  O  O361  1  0.30687498  0.24990338  0.43808910  1
  O  O362  1  0.30740469  0.25006916  0.68935128  1
  O  O363  1  0.30930842  0.25036469  0.93700926  1
  O  O364  1  0.30888591  0.58417792  0.18697616  1
  O  O365  1  0.30555577  0.58396200  0.43827226  1
  O  O366  1  0.30651643  0.58348245  0.68863392  1
  O  O367  1  0.30616082  0.58397882  0.93856394  1
  O  O368  1  0.31021494  0.91623290  0.18702857  1
  O  O369  1  0.30817293  0.91651270  0.43730410  1
  O  O370  1  0.30934394  0.91654070  0.68793372  1
  O  O371  1  0.30836234  0.91610056  0.93754974  1
  O  O372  1  0.80512156  0.24946234  0.18837569  1
  O  O373  1  0.80636680  0.24959188  0.43809054  1
  O  O374  1  0.80502535  0.24964004  0.68827819  1
  O  O375  1  0.80507501  0.24956041  0.93824101  1
  O  O376  1  0.80872288  0.58411290  0.18663964  1
  O  O377  1  0.80657768  0.58372266  0.43872263  1
  O  O378  1  0.80900608  0.58397760  0.68773913  1
  O  O379  1  0.80882280  0.58370043  0.93714918  1
  O  O380  1  0.80907203  0.91619125  0.18737545  1
  O  O381  1  0.80665909  0.91695627  0.43792224  1
  O  O382  1  0.80656482  0.91648369  0.68832090  1
  O  O383  1  0.80605464  0.91663198  0.93939091  1
  O  O384  1  0.23369631  0.25040572  0.03703076  1
  O  O385  1  0.23305374  0.25032276  0.28996506  1
  O  O386  1  0.23433921  0.24978592  0.54009518  1
  O  O387  1  0.23339405  0.25069233  0.79039759  1
  O  O388  1  0.23275601  0.58344822  0.04010855  1
  O  O389  1  0.23482879  0.58316898  0.28791034  1
  O  O390  1  0.23193624  0.58345830  0.53990607  1
  O  O391  1  0.23285214  0.58318064  0.78993627  1
  O  O392  1  0.23350649  0.91563355  0.03818823  1
  O  O393  1  0.23600021  0.91678445  0.28765272  1
  O  O394  1  0.23388426  0.91606429  0.53832600  1
  O  O395  1  0.23527469  0.91649567  0.78866644  1
  O  O396  1  0.73158172  0.24970796  0.03959396  1
  O  O397  1  0.73139682  0.25087762  0.28978773  1
  O  O398  1  0.73341908  0.25050107  0.53966061  1
  O  O399  1  0.73073089  0.24986981  0.78920192  1
  O  O400  1  0.73559904  0.58305704  0.03846408  1
  O  O401  1  0.73336595  0.58307380  0.28694642  1
  O  O402  1  0.73330666  0.58326102  0.54037106  1
  O  O403  1  0.73424388  0.58344725  0.78831057  1
  O  O404  1  0.73269743  0.91665596  0.04093290  1
  O  O405  1  0.73404894  0.91647365  0.28756092  1
  O  O406  1  0.73333142  0.91606705  0.53965036  1
  O  O407  1  0.73359098  0.91635578  0.79040188  1
  O  O408  1  0.26777024  0.08374071  0.21135766  1
  O  O409  1  0.26842187  0.08313438  0.46022409  1
  O  O410  1  0.26680283  0.08372057  0.71018049  1
  O  O411  1  0.26647862  0.08319599  0.95969126  1
  O  O412  1  0.26803896  0.41594430  0.21017068  1
  O  O413  1  0.26806860  0.41731436  0.46061926  1
  O  O414  1  0.26643048  0.41604642  0.71010164  1
  O  O415  1  0.26806675  0.41754842  0.96073654  1
  O  O416  1  0.26501442  0.75000455  0.21121182  1
  O  O417  1  0.26624812  0.75026186  0.46162514  1
  O  O418  1  0.26421879  0.74981559  0.71204434  1
  O  O419  1  0.26559258  0.74954454  0.96212988  1
  O  O420  1  0.76392765  0.08355582  0.21225228  1
  O  O421  1  0.76417418  0.08329502  0.46089174  1
  O  O422  1  0.76465883  0.08316967  0.70882650  1
  O  O423  1  0.76605762  0.08294535  0.96288815  1
  O  O424  1  0.76734118  0.41670756  0.20962700  1
  O  O425  1  0.76695898  0.41761493  0.46216012  1
  O  O426  1  0.76400585  0.41697420  0.71178659  1
  O  O427  1  0.76721123  0.41661919  0.96005902  1
  O  O428  1  0.76517769  0.74939795  0.20907763  1
  O  O429  1  0.76682124  0.74913249  0.45887260  1
  O  O430  1  0.76820522  0.74944222  0.71077639  1
  O  O431  1  0.76721292  0.75043310  0.96361173  1
  O  O432  1  0.01535388  0.08243436  0.16236606  1
  O  O433  1  0.01928616  0.08377445  0.41385011  1
  O  O434  1  0.01711515  0.08276317  0.66556656  1
  O  O435  1  0.01530401  0.08373774  0.91596887  1
  O  O436  1  0.01455586  0.41702239  0.16322529  1
  O  O437  1  0.01478421  0.41633137  0.41294897  1
  O  O438  1  0.01485944  0.41767094  0.66364937  1
  O  O439  1  0.01512778  0.41688150  0.91594409  1
  O  O440  1  0.01715322  0.74994200  0.16242334  1
  O  O441  1  0.01899280  0.75029670  0.41358430  1
  O  O442  1  0.01774715  0.74956524  0.66553765  1
  O  O443  1  0.01554758  0.74990278  0.91337628  1
  O  O444  1  0.51732654  0.08218324  0.16433752  1
  O  O445  1  0.51590824  0.08335093  0.41302157  1
  O  O446  1  0.51653208  0.08275187  0.66279837  1
  O  O447  1  0.51626321  0.08353991  0.91576499  1
  O  O448  1  0.51472754  0.41713540  0.16323547  1
  O  O449  1  0.51533233  0.41675237  0.41323841  1
  O  O450  1  0.51762409  0.41682755  0.66180794  1
  O  O451  1  0.51798734  0.41704705  0.91573963  1
  O  O452  1  0.51626430  0.75027740  0.16231002  1
  O  O453  1  0.51521319  0.75043205  0.41628907  1
  O  O454  1  0.51512713  0.75019910  0.66294214  1
  O  O455  1  0.51543279  0.74968244  0.91577398  1
  O  O456  1  0.48534532  0.25016339  0.08683246  1
  O  O457  1  0.48404859  0.24964014  0.33373760  1
  O  O458  1  0.48500605  0.25022068  0.58584700  1
  O  O459  1  0.48391103  0.25025082  0.83704089  1
  O  O460  1  0.48305405  0.58366418  0.08721317  1
  O  O461  1  0.48500239  0.58367573  0.33678462  1
  O  O462  1  0.48569397  0.58335287  0.58627425  1
  O  O463  1  0.48459593  0.58296084  0.83406883  1
  O  O464  1  0.48227703  0.91663001  0.08480928  1
  O  O465  1  0.48105487  0.91631154  0.33524354  1
  O  O466  1  0.48156584  0.91707639  0.58530034  1
  O  O467  1  0.48241296  0.91630129  0.83818036  1
  O  O468  1  0.98501924  0.25019348  0.08717306  1
  O  O469  1  0.98472852  0.24936916  0.33319358  1
  O  O470  1  0.98463352  0.25015259  0.58684253  1
  O  O471  1  0.98471336  0.25016038  0.83705663  1
  O  O472  1  0.98239519  0.58408243  0.08526875  1
  O  O473  1  0.98512843  0.58359454  0.33657969  1
  O  O474  1  0.98234123  0.58409136  0.58420183  1
  O  O475  1  0.98252800  0.58367082  0.83833971  1
  O  O476  1  0.98291221  0.91635835  0.08494521  1
  O  O477  1  0.98630225  0.91661970  0.33637301  1
  O  O478  1  0.98521222  0.91633592  0.58369731  1
  O  O479  1  0.98456882  0.91613742  0.83770737  1
  O  O480  1  0.08874359  0.31529121  0.07691179  1
  O  O481  1  0.08864629  0.31431517  0.32607344  1
  O  O482  1  0.08788592  0.31556134  0.57757096  1
  O  O483  1  0.08825743  0.31556743  0.82751203  1
  O  O484  1  0.08672756  0.64876085  0.07686636  1
  O  O485  1  0.08882178  0.64881292  0.32823129  1
  O  O486  1  0.08668304  0.64924367  0.57760905  1
  O  O487  1  0.08608936  0.64892140  0.82882932  1
  O  O488  1  0.08732753  0.98066896  0.07612188  1
  O  O489  1  0.08942469  0.98247822  0.32773271  1
  O  O490  1  0.08993179  0.98002004  0.57680333  1
  O  O491  1  0.08809929  0.98089452  0.82832336  1
  O  O492  1  0.58952050  0.31399310  0.07725675  1
  O  O493  1  0.58795531  0.31454243  0.32641927  1
  O  O494  1  0.58863165  0.31514953  0.57804789  1
  O  O495  1  0.58722444  0.31643369  0.82818379  1
  O  O496  1  0.58665690  0.64906294  0.07785706  1
  O  O497  1  0.58884081  0.64835178  0.32717916  1
  O  O498  1  0.58966160  0.64777784  0.57696939  1
  O  O499  1  0.58875212  0.64757992  0.82676427  1
  O  O500  1  0.58650441  0.98137488  0.07692321  1
  O  O501  1  0.58461955  0.98202356  0.32717578  1
  O  O502  1  0.58544478  0.98198242  0.57754828  1
  O  O503  1  0.58598172  0.98129886  0.82799738  1
  O  O504  1  0.41280943  0.01775410  0.17203596  1
  O  O505  1  0.41226921  0.01768661  0.42199572  1
  O  O506  1  0.41273614  0.01771953  0.67154770  1
  O  O507  1  0.41226691  0.01878595  0.92222510  1
  O  O508  1  0.41083318  0.35277000  0.17259447  1
  O  O509  1  0.41165221  0.35165818  0.42279114  1
  O  O510  1  0.41408810  0.35211733  0.67236274  1
  O  O511  1  0.41434456  0.35084523  0.92318272  1
  O  O512  1  0.41298525  0.68475592  0.17216833  1
  O  O513  1  0.41129047  0.68561937  0.42382765  1
  O  O514  1  0.41168584  0.68539808  0.67234747  1
  O  O515  1  0.41136500  0.68502343  0.92349026  1
  O  O516  1  0.91189372  0.01706915  0.17160211  1
  O  O517  1  0.91551778  0.01851179  0.42278866  1
  O  O518  1  0.91330886  0.01780990  0.67257932  1
  O  O519  1  0.91119660  0.01883313  0.92370345  1
  O  O520  1  0.91054073  0.35259218  0.17299023  1
  O  O521  1  0.91114609  0.35111962  0.42235237  1
  O  O522  1  0.91117575  0.35297423  0.67241766  1
  O  O523  1  0.91121135  0.35189435  0.92356674  1
  O  O524  1  0.91337174  0.68527983  0.17193319  1
  O  O525  1  0.91516706  0.68534420  0.42262333  1
  O  O526  1  0.91374594  0.68410585  0.67271378  1
  O  O527  1  0.91186241  0.68438514  0.92281376  1
  O  O528  1  0.16395316  0.01942117  0.20196746  1
  O  O529  1  0.16496084  0.01694082  0.45160823  1
  O  O530  1  0.16296182  0.01953097  0.70260625  1
  O  O531  1  0.16308344  0.01738926  0.95295826  1
  O  O532  1  0.16425413  0.35053925  0.20227163  1
  O  O533  1  0.16422713  0.35249822  0.45211954  1
  O  O534  1  0.16281442  0.35043474  0.70318280  1
  O  O535  1  0.16411461  0.35249076  0.95277043  1
  O  O536  1  0.16102500  0.68521370  0.20194874  1
  O  O537  1  0.16252014  0.68491367  0.45276296  1
  O  O538  1  0.16033916  0.68501278  0.70255111  1
  O  O539  1  0.16165717  0.68445045  0.95321193  1
  O  O540  1  0.66012318  0.01895350  0.20212920  1
  O  O541  1  0.66059422  0.01751493  0.45161094  1
  O  O542  1  0.66040591  0.01876618  0.70186108  1
  O  O543  1  0.66285013  0.01706019  0.95365344  1
  O  O544  1  0.66304209  0.35239889  0.20266482  1
  O  O545  1  0.66310449  0.35325040  0.45257277  1
  O  O546  1  0.66022363  0.35199820  0.70309051  1
  O  O547  1  0.66307657  0.35125329  0.95247527  1
  O  O548  1  0.66134705  0.68380645  0.20180343  1
  O  O549  1  0.66310606  0.68368141  0.45293397  1
  O  O550  1  0.66434169  0.68414777  0.70292851  1
  O  O551  1  0.66355276  0.68599812  0.95285683  1
  O  O552  1  0.33721704  0.31604321  0.04682321  1
  O  O553  1  0.33711206  0.31497093  0.29678303  1
  O  O554  1  0.33788989  0.31537468  0.54714809  1
  O  O555  1  0.33781799  0.31516326  0.79873051  1
  O  O556  1  0.33650438  0.64905686  0.04822476  1
  O  O557  1  0.33824318  0.64785540  0.29726376  1
  O  O558  1  0.33548655  0.64895453  0.54778884  1
  O  O559  1  0.33646197  0.64818980  0.79824062  1
  O  O560  1  0.33769720  0.97991231  0.04778132  1
  O  O561  1  0.33941143  0.98264055  0.29648309  1
  O  O562  1  0.33760222  0.98149521  0.54722584  1
  O  O563  1  0.33912599  0.98145635  0.79786914  1
  O  O564  1  0.83544226  0.31494524  0.04740969  1
  O  O565  1  0.83552133  0.31575084  0.29700870  1
  O  O566  1  0.83706269  0.31582059  0.54708396  1
  O  O567  1  0.83471791  0.31453145  0.79780332  1
  O  O568  1  0.83919459  0.64853714  0.04718643  1
  O  O569  1  0.83695820  0.64777969  0.29723726  1
  O  O570  1  0.83755896  0.64773046  0.54827357  1
  O  O571  1  0.83786311  0.64937342  0.79765047  1
  O  O572  1  0.83674301  0.98183231  0.04867629  1
  O  O573  1  0.83768815  0.98150914  0.29728176  1
  O  O574  1  0.83675982  0.98184959  0.54738749  1
  O  O575  1  0.83739888  0.98105636  0.79770121  1
  O  O576  1  0.41381015  0.14780380  0.17348760  1
  O  O577  1  0.41209446  0.14770684  0.42295916  1
  O  O578  1  0.41333532  0.14791394  0.67239023  1
  O  O579  1  0.41291143  0.14917129  0.92246838  1
  O  O580  1  0.41121617  0.48294707  0.17211904  1
  O  O581  1  0.41160779  0.48165097  0.42296711  1
  O  O582  1  0.41434598  0.48217630  0.67272286  1
  O  O583  1  0.41334863  0.48081674  0.92322226  1
  O  O584  1  0.41248054  0.81489814  0.17117753  1
  O  O585  1  0.41105774  0.81558637  0.42246028  1
  O  O586  1  0.41157349  0.81566495  0.67124006  1
  O  O587  1  0.41132471  0.81497003  0.92292699  1
  O  O588  1  0.91196753  0.14749833  0.17265808  1
  O  O589  1  0.91523931  0.14853929  0.42277387  1
  O  O590  1  0.91339549  0.14803348  0.67316153  1
  O  O591  1  0.91129672  0.14881114  0.92378583  1
  O  O592  1  0.91113571  0.48286426  0.17174795  1
  O  O593  1  0.91090919  0.48117990  0.42233534  1
  O  O594  1  0.91140965  0.48320418  0.67123966  1
  O  O595  1  0.91104860  0.48191490  0.92259575  1
  O  O596  1  0.91384320  0.81561113  0.17207834  1
  O  O597  1  0.91533004  0.81531405  0.42265969  1
  O  O598  1  0.91360904  0.81416500  0.67332209  1
  O  O599  1  0.91154720  0.81426851  0.92345285  1
  O  O600  1  0.08891769  0.18526558  0.07709211  1
  O  O601  1  0.08898172  0.18421396  0.32686121  1
  O  O602  1  0.08845412  0.18543403  0.57789438  1
  O  O603  1  0.08874855  0.18556539  0.82763125  1
  O  O604  1  0.08617725  0.51887517  0.07592556  1
  O  O605  1  0.08839440  0.51848194  0.32731566  1
  O  O606  1  0.08642331  0.51935582  0.57616925  1
  O  O607  1  0.08583619  0.51876625  0.82788954  1
  O  O608  1  0.08683868  0.85080290  0.07666667  1
  O  O609  1  0.09006323  0.85208632  0.32820245  1
  O  O610  1  0.08867494  0.85003461  0.57791790  1
  O  O611  1  0.08799730  0.85067676  0.82911973  1
  O  O612  1  0.58847115  0.18373733  0.07836787  1
  O  O613  1  0.58795840  0.18440939  0.32775846  1
  O  O614  1  0.58826057  0.18471608  0.57852555  1
  O  O615  1  0.58807621  0.18628384  0.82756019  1
  O  O616  1  0.58677263  0.51905313  0.07737667  1
  O  O617  1  0.58856252  0.51836187  0.32671598  1
  O  O618  1  0.58918427  0.51769858  0.57738853  1
  O  O619  1  0.58853777  0.51749827  0.82777232  1
  O  O620  1  0.58631443  0.85139485  0.07649911  1
  O  O621  1  0.58512426  0.85203172  0.32689913  1
  O  O622  1  0.58523690  0.85191595  0.57688699  1
  O  O623  1  0.58585490  0.85116129  0.82756872  1
  O  O624  1  0.33738454  0.18592588  0.04742568  1
  O  O625  1  0.33667809  0.18487551  0.29711986  1
  O  O626  1  0.33817151  0.18490759  0.54712700  1
  O  O627  1  0.33724110  0.18529804  0.79901080  1
  O  O628  1  0.33745488  0.51905680  0.04757472  1
  O  O629  1  0.33828789  0.51759156  0.29614967  1
  O  O630  1  0.33619157  0.51878459  0.54748941  1
  O  O631  1  0.33676175  0.51817011  0.79777364  1
  O  O632  1  0.33708694  0.84989749  0.04723422  1
  O  O633  1  0.33972305  0.85246165  0.29747815  1
  O  O634  1  0.33768303  0.85130740  0.54725541  1
  O  O635  1  0.33888491  0.85152266  0.79793852  1
  O  O636  1  0.83546296  0.18481590  0.04805895  1
  O  O637  1  0.83496555  0.18560533  0.29833916  1
  O  O638  1  0.83706544  0.18544265  0.54763045  1
  O  O639  1  0.83442553  0.18451295  0.79782081  1
  O  O640  1  0.83953797  0.51832727  0.04648015  1
  O  O641  1  0.83694643  0.51765652  0.29617538  1
  O  O642  1  0.83712163  0.51777436  0.54800665  1
  O  O643  1  0.83833247  0.51933806  0.79775680  1
  O  O644  1  0.83701238  0.85179202  0.04877356  1
  O  O645  1  0.83764784  0.85128448  0.29722384  1
  O  O646  1  0.83747768  0.85163124  0.54686531  1
  O  O647  1  0.83732231  0.85085161  0.79732698  1
  O  O648  1  0.16411724  0.14946549  0.20284944  1
  O  O649  1  0.16383134  0.14696071  0.45163348  1
  O  O650  1  0.16353964  0.14990265  0.70330360  1
  O  O651  1  0.16242589  0.14781163  0.95350722  1
  O  O652  1  0.16420755  0.48058266  0.20145072  1
  O  O653  1  0.16420795  0.48263504  0.45235806  1
  O  O654  1  0.16243111  0.48060559  0.70243405  1
  O  O655  1  0.16414382  0.48269411  0.95282748  1
  O  O656  1  0.16138803  0.81509337  0.20169353  1
  O  O657  1  0.16260210  0.81510365  0.45268727  1
  O  O658  1  0.16079111  0.81494055  0.70261627  1
  O  O659  1  0.16184500  0.81467204  0.95264573  1
  O  O660  1  0.66035609  0.14910745  0.20344291  1
  O  O661  1  0.65987988  0.14747014  0.45229829  1
  O  O662  1  0.66084853  0.14888559  0.70249653  1
  O  O663  1  0.66209262  0.14731672  0.95401051  1
  O  O664  1  0.66386761  0.48242236  0.20181020  1
  O  O665  1  0.66360864  0.48325353  0.45311747  1
  O  O666  1  0.66055692  0.48226097  0.70329566  1
  O  O667  1  0.66312176  0.48123518  0.95162255  1
  O  O668  1  0.66086715  0.81389902  0.20121830  1
  O  O669  1  0.66288530  0.81389380  0.45179983  1
  O  O670  1  0.66420137  0.81415347  0.70234603  1
  O  O671  1  0.66381895  0.81621128  0.95324851  1
