# generated using pymatgen
data_Na2MnFe(PO4)2
_symmetry_space_group_name_H-M   'P 1'
_cell_length_a   21.08148732
_cell_length_b   18.93305176
_cell_length_c   20.04081580
_cell_angle_alpha   90.00031626
_cell_angle_beta   89.99584655
_cell_angle_gamma   89.99889339
_symmetry_Int_Tables_number   1
_chemical_formula_structural   Na2MnFe(PO4)2
_chemical_formula_sum   'Na96 Mn48 Fe48 P96 O384'
_cell_volume   7999.02888291
_cell_formula_units_Z   48
loop_
 _symmetry_equiv_pos_site_id
 _symmetry_equiv_pos_as_xyz
  1  'x, y, z'
loop_
 _atom_site_type_symbol
 _atom_site_label
 _atom_site_symmetry_multiplicity
 _atom_site_fract_x
 _atom_site_fract_y
 _atom_site_fract_z
 _atom_site_occupancy
  Na  Na0  1  0.00075134  0.00008554  -0.00033544  1
  Na  Na1  1  0.00257865  0.00018548  0.25023458  1
  Na  Na2  1  0.00062972  0.00004197  0.49974307  1
  Na  Na3  1  -0.00115477  -0.00065791  0.75072592  1
  Na  Na4  1  -0.00008798  0.33310649  -0.00025959  1
  Na  Na5  1  0.00091908  0.33336045  0.25056539  1
  Na  Na6  1  0.00167460  0.33354866  0.50073233  1
  Na  Na7  1  0.00004570  0.33255543  0.74871767  1
  Na  Na8  1  -0.00229509  0.66618773  -0.00029737  1
  Na  Na9  1  -0.00010121  0.66661925  0.24851416  1
  Na  Na10  1  -0.00060891  0.66714769  0.50036468  1
  Na  Na11  1  -0.00236659  0.66666171  0.75063572  1
  Na  Na12  1  0.49952502  -0.00031682  -0.00066058  1
  Na  Na13  1  0.50023614  -0.00001350  0.24929148  1
  Na  Na14  1  0.49807027  -0.00034661  0.50044067  1
  Na  Na15  1  0.49669320  -0.00113760  0.75052483  1
  Na  Na16  1  0.50106837  0.33397539  -0.00032914  1
  Na  Na17  1  0.49836062  0.33225284  0.24989409  1
  Na  Na18  1  0.49927373  0.33282571  0.50052739  1
  Na  Na19  1  0.50068188  0.33316821  0.75024817  1
  Na  Na20  1  0.49834026  0.66579295  0.00082773  1
  Na  Na21  1  0.49979880  0.66687286  0.24932975  1
  Na  Na22  1  0.49992492  0.66625452  0.50037239  1
  Na  Na23  1  0.50216129  0.66787153  0.74972911  1
  Na  Na24  1  0.25073183  -0.00074491  0.12542943  1
  Na  Na25  1  0.24913836  -0.00077015  0.37528323  1
  Na  Na26  1  0.25107654  0.00004690  0.62460863  1
  Na  Na27  1  0.25279617  -0.00002893  0.87436818  1
  Na  Na28  1  0.25190413  0.33421634  0.12641636  1
  Na  Na29  1  0.24862287  0.33240971  0.37411866  1
  Na  Na30  1  0.24909962  0.33251034  0.62395447  1
  Na  Na31  1  0.24861395  0.33210126  0.87474098  1
  Na  Na32  1  0.25094690  0.66670300  0.12570589  1
  Na  Na33  1  0.24936412  0.66635133  0.37527500  1
  Na  Na34  1  0.24974993  0.66649807  0.62427156  1
  Na  Na35  1  0.25178348  0.66674399  0.87564673  1
  Na  Na36  1  0.74702894  -0.00099044  0.12397666  1
  Na  Na37  1  0.74957107  0.00009928  0.37583920  1
  Na  Na38  1  0.75212603  0.00096699  0.62488042  1
  Na  Na39  1  0.75029446  0.00011325  0.87486789  1
  Na  Na40  1  0.74788014  0.33304337  0.12525441  1
  Na  Na41  1  0.74955443  0.33328152  0.37458817  1
  Na  Na42  1  0.75186766  0.33423008  0.62613693  1
  Na  Na43  1  0.74894717  0.33269000  0.87475969  1
  Na  Na44  1  0.75118805  0.66712479  0.12468605  1
  Na  Na45  1  0.75154069  0.66708224  0.37560215  1
  Na  Na46  1  0.75055720  0.66719378  0.62458389  1
  Na  Na47  1  0.75029625  0.66721144  0.87537319  1
  Na  Na48  1  -0.00137835  0.16697465  -0.00082691  1
  Na  Na49  1  0.00038654  0.16648926  0.25087243  1
  Na  Na50  1  0.00196384  0.16563370  0.50056762  1
  Na  Na51  1  0.00038511  0.16593353  0.74921727  1
  Na  Na52  1  -0.00077308  0.50086030  -0.00001845  1
  Na  Na53  1  0.00057148  0.50038170  0.24938473  1
  Na  Na54  1  -0.00098233  0.50076310  0.50026052  1
  Na  Na55  1  -0.00065935  0.50012767  0.75013434  1
  Na  Na56  1  -0.00052546  0.83386996  -0.00038233  1
  Na  Na57  1  0.00275267  0.83254755  0.24924802  1
  Na  Na58  1  0.00022686  0.83357043  0.49983031  1
  Na  Na59  1  -0.00274965  0.83456046  0.75083025  1
  Na  Na60  1  0.49890086  0.16630833  -0.00141387  1
  Na  Na61  1  0.49913602  0.16599601  0.24985982  1
  Na  Na62  1  0.49673643  0.16710313  0.50019906  1
  Na  Na63  1  0.49845312  0.16630940  0.75057093  1
  Na  Na64  1  0.49974732  0.50112483  0.00048874  1
  Na  Na65  1  0.50130149  0.49979804  0.24978449  1
  Na  Na66  1  0.50091153  0.50040586  0.50120842  1
  Na  Na67  1  0.50099845  0.50054750  0.74919967  1
  Na  Na68  1  0.49952158  0.83356186  0.00080433  1
  Na  Na69  1  0.49901702  0.83396323  0.24917280  1
  Na  Na70  1  0.49958160  0.83406009  0.49975532  1
  Na  Na71  1  0.49990578  0.83374912  0.75054904  1
  Na  Na72  1  0.25193942  0.16586075  0.12642585  1
  Na  Na73  1  0.25089129  0.16620137  0.37515513  1
  Na  Na74  1  0.24886250  0.16707233  0.62388791  1
  Na  Na75  1  0.25171787  0.16553554  0.87460712  1
  Na  Na76  1  0.25003470  0.50112901  0.12547531  1
  Na  Na77  1  0.24896066  0.50087470  0.37487617  1
  Na  Na78  1  0.25015779  0.50046233  0.62450947  1
  Na  Na79  1  0.25128782  0.50029241  0.87551754  1
  Na  Na80  1  0.25117366  0.83316208  0.12578499  1
  Na  Na81  1  0.24808133  0.83423360  0.37457942  1
  Na  Na82  1  0.24961797  0.83412701  0.62465975  1
  Na  Na83  1  0.25155863  0.83341045  0.87430195  1
  Na  Na84  1  0.74697795  0.16716598  0.12426998  1
  Na  Na85  1  0.75067912  0.16535876  0.37549541  1
  Na  Na86  1  0.75120006  0.16608464  0.62490237  1
  Na  Na87  1  0.75031114  0.16565191  0.87562676  1
  Na  Na88  1  0.75041083  0.50034289  0.12530920  1
  Na  Na89  1  0.75030099  0.50030178  0.37428429  1
  Na  Na90  1  0.74959642  0.50058923  0.62472169  1
  Na  Na91  1  0.74911848  0.50065957  0.87548921  1
  Na  Na92  1  0.74790377  0.83416430  0.12454113  1
  Na  Na93  1  0.75043532  0.83334968  0.37590802  1
  Na  Na94  1  0.75256151  0.83293572  0.62625828  1
  Na  Na95  1  0.75128007  0.83287638  0.87363188  1
  Mn  Mn96  1  0.35808755  0.41734450  0.25322927  1
  Mn  Mn97  1  0.39303189  0.58370305  0.62756643  1
  Mn  Mn98  1  0.89275560  0.25020277  0.37762941  1
  Mn  Mn99  1  0.60717589  0.41599344  0.12273499  1
  Mn  Mn100  1  0.60709278  0.08352806  0.37374431  1
  Mn  Mn101  1  0.35904600  0.75001660  0.75225680  1
  Mn  Mn102  1  0.35802067  0.41637462  0.75246501  1
  Mn  Mn103  1  0.89106334  0.25007182  0.12722748  1
  Mn  Mn104  1  0.10735337  0.74998559  0.87325519  1
  Mn  Mn105  1  0.35769076  0.41632158  0.50152519  1
  Mn  Mn106  1  0.89282754  0.91663166  0.37652555  1
  Mn  Mn107  1  0.14162859  0.58349887  0.49712635  1
  Mn  Mn108  1  0.85765389  0.41665233  0.75314820  1
  Mn  Mn109  1  0.14262663  0.24994423  0.24750498  1
  Mn  Mn110  1  0.64269630  0.91687035  0.74762903  1
  Mn  Mn111  1  0.10808222  0.74977548  0.12155043  1
  Mn  Mn112  1  0.35739627  0.74991431  0.25292900  1
  Mn  Mn113  1  0.89197524  0.91681321  0.12728388  1
  Mn  Mn114  1  0.10811334  0.08352219  0.87292573  1
  Mn  Mn115  1  0.10811499  0.41667928  0.62258276  1
  Mn  Mn116  1  0.35818852  0.41664919  0.00215637  1
  Mn  Mn117  1  0.14276379  0.24950650  0.99762017  1
  Mn  Mn118  1  0.64205739  0.58382136  0.99778485  1
  Mn  Mn119  1  0.89318500  0.24920524  0.62683621  1
  Mn  Mn120  1  0.39182895  0.25080163  0.87764494  1
  Mn  Mn121  1  0.85768105  0.75092366  0.25203541  1
  Mn  Mn122  1  0.64080171  0.24956896  0.24809554  1
  Mn  Mn123  1  0.35814935  0.08284903  0.25255515  1
  Mn  Mn124  1  0.10710467  0.75064142  0.62347971  1
  Mn  Mn125  1  0.60716227  0.75019746  0.12263898  1
  Mn  Mn126  1  0.64212040  0.24997320  0.49842266  1
  Mn  Mn127  1  0.85686620  0.08286728  0.25156950  1
  Mn  Mn128  1  0.64271578  0.91705500  0.49878455  1
  Mn  Mn129  1  0.14217195  0.58324758  0.74865948  1
  Mn  Mn130  1  0.85756710  0.41640828  0.25262847  1
  Mn  Mn131  1  0.89160674  0.58390807  0.62768264  1
  Mn  Mn132  1  0.60669948  0.08291876  0.87199318  1
  Mn  Mn133  1  0.60797024  0.74997201  0.37300910  1
  Mn  Mn134  1  0.10851394  0.08370667  0.12213254  1
  Mn  Mn135  1  0.85699385  0.41678793  0.00221036  1
  Mn  Mn136  1  0.10794225  0.41647323  0.12225371  1
  Mn  Mn137  1  0.14261563  0.91683413  0.74803952  1
  Mn  Mn138  1  0.64248501  0.24955309  0.74734697  1
  Mn  Mn139  1  0.85675937  0.08297005  0.00273679  1
  Mn  Mn140  1  0.64310579  0.58332403  0.49720230  1
  Mn  Mn141  1  0.35753086  0.75046022  0.50200869  1
  Mn  Mn142  1  0.60816199  0.41572658  0.62226341  1
  Mn  Mn143  1  0.10766475  0.41658333  0.87283835  1
  Fe  Fe144  1  0.10707459  0.41743605  0.37333219  1
  Fe  Fe145  1  0.14244236  0.24952316  0.74838600  1
  Fe  Fe146  1  0.39225199  0.58307704  0.12755889  1
  Fe  Fe147  1  0.60627809  0.08322302  0.12326758  1
  Fe  Fe148  1  0.14332472  0.24950443  0.49756197  1
  Fe  Fe149  1  0.85797209  0.08329977  0.75161704  1
  Fe  Fe150  1  0.89230742  0.91709619  0.87774280  1
  Fe  Fe151  1  0.85668863  0.75022021  0.75247903  1
  Fe  Fe152  1  0.85862035  0.08343168  0.50210199  1
  Fe  Fe153  1  0.35687418  0.08377920  0.75060488  1
  Fe  Fe154  1  0.39241792  0.91663807  0.62617752  1
  Fe  Fe155  1  0.14238846  0.91704006  0.49829505  1
  Fe  Fe156  1  0.89164443  0.58306095  0.87739945  1
  Fe  Fe157  1  0.39302412  0.91683874  0.12664320  1
  Fe  Fe158  1  0.60826099  0.75130335  0.62336873  1
  Fe  Fe159  1  0.60723927  0.74969596  0.87373157  1
  Fe  Fe160  1  0.14318053  0.91617646  0.24787544  1
  Fe  Fe161  1  0.85797730  0.41633510  0.50084800  1
  Fe  Fe162  1  0.60656807  0.08292006  0.62361498  1
  Fe  Fe163  1  0.89312317  0.91719840  0.62628714  1
  Fe  Fe164  1  0.14422351  0.91621793  0.99841139  1
  Fe  Fe165  1  0.39183434  0.24958891  0.62692098  1
  Fe  Fe166  1  0.35788670  0.75000714  0.00125492  1
  Fe  Fe167  1  0.39204628  0.91639372  0.37683321  1
  Fe  Fe168  1  0.10780780  0.08316612  0.37360227  1
  Fe  Fe169  1  0.64278975  0.58408894  0.24883918  1
  Fe  Fe170  1  0.64283836  0.58382619  0.74933243  1
  Fe  Fe171  1  0.14225534  0.58377908  0.24809553  1
  Fe  Fe172  1  0.89309059  0.58336153  0.37572748  1
  Fe  Fe173  1  0.10782004  0.08236886  0.62333396  1
  Fe  Fe174  1  0.85851268  0.75037584  0.50189209  1
  Fe  Fe175  1  0.39301130  0.58317954  0.37634626  1
  Fe  Fe176  1  0.64119415  0.91617133  0.24867127  1
  Fe  Fe177  1  0.39340087  0.58376025  0.87638196  1
  Fe  Fe178  1  0.64146446  0.24969946  0.99768019  1
  Fe  Fe179  1  0.35655457  0.08296782  0.50200841  1
  Fe  Fe180  1  0.64188497  0.91632853  0.99753927  1
  Fe  Fe181  1  0.10698421  0.74959331  0.37342305  1
  Fe  Fe182  1  0.89254404  0.24993477  0.87669689  1
  Fe  Fe183  1  0.60740521  0.41757359  0.87335100  1
  Fe  Fe184  1  0.85654278  0.75054985  0.00131001  1
  Fe  Fe185  1  0.39236791  0.25040161  0.37717331  1
  Fe  Fe186  1  0.39279975  0.91526093  0.87765301  1
  Fe  Fe187  1  0.39308314  0.24996149  0.12600771  1
  Fe  Fe188  1  0.89298604  0.58312993  0.12693163  1
  Fe  Fe189  1  0.60749428  0.41671352  0.37404010  1
  Fe  Fe190  1  0.14325450  0.58407360  0.99808266  1
  Fe  Fe191  1  0.35766293  0.08266601  0.00217561  1
  P  P192  1  0.05285790  0.24979414  0.10945009  1
  P  P193  1  0.05526713  0.24980155  0.36161184  1
  P  P194  1  0.05621187  0.24852654  0.61044058  1
  P  P195  1  0.05268510  0.24971305  0.85908098  1
  P  P196  1  0.05405259  0.58344325  0.10974194  1
  P  P197  1  0.05251736  0.58383812  0.35938335  1
  P  P198  1  0.05300204  0.58385715  0.61022804  1
  P  P199  1  0.05252085  0.58379006  0.86138512  1
  P  P200  1  0.05536479  0.91665583  0.10966108  1
  P  P201  1  0.05562428  0.91660253  0.36063642  1
  P  P202  1  0.05302747  0.91741127  0.60986683  1
  P  P203  1  0.05357034  0.91655919  0.86146109  1
  P  P204  1  0.55230927  0.24872571  0.10927062  1
  P  P205  1  0.55155112  0.25028186  0.36074576  1
  P  P206  1  0.55174147  0.24809495  0.61034570  1
  P  P207  1  0.55413582  0.25057411  0.86071224  1
  P  P208  1  0.55304138  0.58358360  0.11139408  1
  P  P209  1  0.55303087  0.58295215  0.35968717  1
  P  P210  1  0.55585949  0.58466053  0.61131714  1
  P  P211  1  0.55306538  0.58402913  0.85991347  1
  P  P212  1  0.55377605  0.91729488  0.11032858  1
  P  P213  1  0.55213364  0.91692271  0.35993017  1
  P  P214  1  0.55234091  0.91735337  0.61057137  1
  P  P215  1  0.55319582  0.91548239  0.86115854  1
  P  P216  1  0.44608286  0.08294711  0.13831434  1
  P  P217  1  0.44531903  0.08274377  0.39074937  1
  P  P218  1  0.44513709  0.08311896  0.63924615  1
  P  P219  1  0.44380767  0.08231362  0.88898683  1
  P  P220  1  0.44613972  0.41665840  0.14000538  1
  P  P221  1  0.44819329  0.41728816  0.39018224  1
  P  P222  1  0.44663473  0.41570523  0.63996062  1
  P  P223  1  0.44818305  0.41800451  0.88977622  1
  P  P224  1  0.44454775  0.75028666  0.13870070  1
  P  P225  1  0.44663402  0.74991433  0.38984684  1
  P  P226  1  0.44834772  0.75106854  0.63968301  1
  P  P227  1  0.44757405  0.74966470  0.89065372  1
  P  P228  1  0.94693673  0.08306030  0.14034976  1
  P  P229  1  0.94762747  0.08306654  0.39028703  1
  P  P230  1  0.94666426  0.08232836  0.63940632  1
  P  P231  1  0.94515511  0.08346611  0.88891995  1
  P  P232  1  0.94629809  0.41734398  0.14002003  1
  P  P233  1  0.94769188  0.41741159  0.39027597  1
  P  P234  1  0.94558110  0.41647853  0.63905338  1
  P  P235  1  0.94629038  0.41605274  0.89000442  1
  P  P236  1  0.94529561  0.74970362  0.13832511  1
  P  P237  1  0.94739604  0.74964802  0.38979555  1
  P  P238  1  0.94450456  0.75147165  0.63997176  1
  P  P239  1  0.94397320  0.75029737  0.88960609  1
  P  P240  1  0.19573852  0.08233500  0.23634565  1
  P  P241  1  0.19588062  0.08288719  0.48587198  1
  P  P242  1  0.19716080  0.08342422  0.73427616  1
  P  P243  1  0.19878047  0.08205341  0.98497664  1
  P  P244  1  0.19527911  0.41798945  0.23624363  1
  P  P245  1  0.19604591  0.41592506  0.48392844  1
  P  P246  1  0.19687275  0.41612915  0.73487665  1
  P  P247  1  0.19713881  0.41769904  0.98514097  1
  P  P248  1  0.19481445  0.74964426  0.23632436  1
  P  P249  1  0.19550462  0.75114302  0.48448592  1
  P  P250  1  0.19729581  0.75001678  0.73506180  1
  P  P251  1  0.19836577  0.75013264  0.98511555  1
  P  P252  1  0.69483987  0.08219890  0.23439949  1
  P  P253  1  0.69708374  0.08332471  0.48674744  1
  P  P254  1  0.69736806  0.08297511  0.73429052  1
  P  P255  1  0.69395516  0.08289113  0.98591295  1
  P  P256  1  0.69475547  0.41774766  0.23629538  1
  P  P257  1  0.69780560  0.41633563  0.48426176  1
  P  P258  1  0.69542774  0.41776590  0.73631555  1
  P  P259  1  0.69527590  0.41628195  0.98446946  1
  P  P260  1  0.69612279  0.74981459  0.23520316  1
  P  P261  1  0.69759558  0.75078006  0.48641443  1
  P  P262  1  0.69600605  0.74954827  0.73597774  1
  P  P263  1  0.69656890  0.75084259  0.98422900  1
  P  P264  1  0.30391578  0.24907638  0.01597710  1
  P  P265  1  0.30569373  0.24993706  0.26475896  1
  P  P266  1  0.30417998  0.24923111  0.51390776  1
  P  P267  1  0.30311724  0.24909976  0.76354855  1
  P  P268  1  0.30466419  0.58430118  0.01461906  1
  P  P269  1  0.30360752  0.58357086  0.26514188  1
  P  P270  1  0.30459661  0.58334647  0.51379159  1
  P  P271  1  0.30429081  0.58348032  0.76590884  1
  P  P272  1  0.30474722  0.91600410  0.01444553  1
  P  P273  1  0.30399316  0.91651043  0.26473561  1
  P  P274  1  0.30363601  0.91724724  0.51406545  1
  P  P275  1  0.30586375  0.91750531  0.76407226  1
  P  P276  1  0.80204848  0.25004241  0.01394410  1
  P  P277  1  0.80234133  0.24944621  0.26539380  1
  P  P278  1  0.80385012  0.25031350  0.51503099  1
  P  P279  1  0.80428098  0.24862414  0.76561434  1
  P  P280  1  0.80480411  0.58435691  0.01467941  1
  P  P281  1  0.80401322  0.58376803  0.26447478  1
  P  P282  1  0.80560811  0.58305917  0.51328535  1
  P  P283  1  0.80261614  0.58429480  0.76570447  1
  P  P284  1  0.80261880  0.91587279  0.01374498  1
  P  P285  1  0.80103356  0.91683597  0.26505846  1
  P  P286  1  0.80490350  0.91683966  0.51558503  1
  P  P287  1  0.80564567  0.91729948  0.76415301  1
  O  O288  1  0.05673232  0.24956524  0.18622230  1
  O  O289  1  0.05899255  0.24952850  0.43842460  1
  O  O290  1  0.05986340  0.24928338  0.68726641  1
  O  O291  1  0.05682694  0.24941192  0.93580892  1
  O  O292  1  0.05886752  0.58379616  0.18643536  1
  O  O293  1  0.05568244  0.58391450  0.43615395  1
  O  O294  1  0.05620847  0.58373282  0.68701516  1
  O  O295  1  0.05826510  0.58416715  0.93798986  1
  O  O296  1  0.05987404  0.91643350  0.18645190  1
  O  O297  1  0.05890361  0.91678844  0.43747170  1
  O  O298  1  0.05642548  0.91697757  0.68662406  1
  O  O299  1  0.05967339  0.91651976  0.93801854  1
  O  O300  1  0.55538581  0.24924048  0.18607134  1
  O  O301  1  0.55548035  0.24971221  0.43741269  1
  O  O302  1  0.55585818  0.24856602  0.68704034  1
  O  O303  1  0.55804547  0.24976225  0.93750246  1
  O  O304  1  0.55828578  0.58402375  0.18796088  1
  O  O305  1  0.55683505  0.58370918  0.43647292  1
  O  O306  1  0.55977181  0.58426114  0.68806656  1
  O  O307  1  0.55608195  0.58398036  0.93668964  1
  O  O308  1  0.55807553  0.91637606  0.18706893  1
  O  O309  1  0.55652082  0.91687501  0.43659881  1
  O  O310  1  0.55601923  0.91734547  0.68728381  1
  O  O311  1  0.55782385  0.91614812  0.93783338  1
  O  O312  1  0.44195245  0.08261337  0.06161702  1
  O  O313  1  0.44330358  0.08242934  0.31380297  1
  O  O314  1  0.44067662  0.08323548  0.56253570  1
  O  O315  1  0.43998735  0.08332801  0.81221719  1
  O  O316  1  0.44362248  0.41719299  0.06322103  1
  O  O317  1  0.44473810  0.41721515  0.31345958  1
  O  O318  1  0.44327285  0.41627958  0.56321219  1
  O  O319  1  0.44454893  0.41701285  0.81308773  1
  O  O320  1  0.44103965  0.75008032  0.06194595  1
  O  O321  1  0.44369342  0.75011463  0.31304321  1
  O  O322  1  0.44417604  0.75041643  0.56303782  1
  O  O323  1  0.44462278  0.75003175  0.81391569  1
  O  O324  1  0.94299438  0.08279737  0.06353676  1
  O  O325  1  0.94328573  0.08302556  0.31363276  1
  O  O326  1  0.94211244  0.08324232  0.56267360  1
  O  O327  1  0.94172656  0.08312769  0.81213782  1
  O  O328  1  0.94290460  0.41664443  0.06326560  1
  O  O329  1  0.94394743  0.41656120  0.31354636  1
  O  O330  1  0.94147379  0.41646521  0.56230622  1
  O  O331  1  0.94379858  0.41618324  0.81315688  1
  O  O332  1  0.94076687  0.75082151  0.06164428  1
  O  O333  1  0.94391693  0.75047583  0.31302697  1
  O  O334  1  0.94123756  0.75049066  0.56310204  1
  O  O335  1  0.94019007  0.75019306  0.81275759  1
  O  O336  1  0.19512251  0.08274997  0.06169740  1
  O  O337  1  0.19181196  0.08318591  0.31307672  1
  O  O338  1  0.19173890  0.08249713  0.56257928  1
  O  O339  1  0.19383938  0.08259708  0.81102939  1
  O  O340  1  0.19446190  0.41734544  0.06196263  1
  O  O341  1  0.19063326  0.41749983  0.31296501  1
  O  O342  1  0.19345401  0.41693830  0.56075731  1
  O  O343  1  0.19386416  0.41671369  0.81170156  1
  O  O344  1  0.19486478  0.75005932  0.06184628  1
  O  O345  1  0.19069691  0.74927327  0.31303467  1
  O  O346  1  0.19266269  0.75039560  0.56128939  1
  O  O347  1  0.19377947  0.75007229  0.81183803  1
  O  O348  1  0.68972067  0.08307225  0.06265195  1
  O  O349  1  0.69238636  0.08299026  0.31127787  1
  O  O350  1  0.69138451  0.08333464  0.56330963  1
  O  O351  1  0.69273017  0.08272220  0.81099011  1
  O  O352  1  0.69243360  0.41701222  0.06134939  1
  O  O353  1  0.69047993  0.41686862  0.31307049  1
  O  O354  1  0.69393063  0.41626536  0.56105573  1
  O  O355  1  0.69103025  0.41713641  0.81306599  1
  O  O356  1  0.69267821  0.75026330  0.06095569  1
  O  O357  1  0.69369696  0.74962790  0.31203461  1
  O  O358  1  0.69250042  0.75111496  0.56309622  1
  O  O359  1  0.69101773  0.75027984  0.81263881  1
  O  O360  1  0.31035668  0.24994690  0.18802759  1
  O  O361  1  0.30902467  0.25035396  0.43716554  1
  O  O362  1  0.30762037  0.24994437  0.68682395  1
  O  O363  1  0.30635541  0.25007697  0.93908401  1
  O  O364  1  0.30876689  0.58328318  0.18842073  1
  O  O365  1  0.30938463  0.58330453  0.43705607  1
  O  O366  1  0.30739208  0.58364527  0.68907285  1
  O  O367  1  0.30979725  0.58347757  0.93794277  1
  O  O368  1  0.30915082  0.91673623  0.18808060  1
  O  O369  1  0.30816334  0.91631120  0.43736245  1
  O  O370  1  0.30961833  0.91613722  0.68724441  1
  O  O371  1  0.30897004  0.91574635  0.93765493  1
  O  O372  1  0.80519191  0.24976760  0.18856139  1
  O  O373  1  0.80642748  0.24987816  0.43823251  1
  O  O374  1  0.80774825  0.24941107  0.68884150  1
  O  O375  1  0.80760607  0.24993496  0.93736177  1
  O  O376  1  0.80865709  0.58352643  0.18777074  1
  O  O377  1  0.80966294  0.58328936  0.43651108  1
  O  O378  1  0.80596818  0.58354603  0.68892406  1
  O  O379  1  0.80860051  0.58319966  0.93785978  1
  O  O380  1  0.80500972  0.91682570  0.18835867  1
  O  O381  1  0.80738250  0.91689884  0.43876030  1
  O  O382  1  0.80951865  0.91756486  0.68742478  1
  O  O383  1  0.80766104  0.91675174  0.93707208  1
  O  O384  1  0.23443962  0.24986330  0.04181036  1
  O  O385  1  0.23549737  0.24959213  0.28819403  1
  O  O386  1  0.23366474  0.24955265  0.53706231  1
  O  O387  1  0.23291860  0.24872491  0.78779061  1
  O  O388  1  0.23420943  0.58406314  0.03818724  1
  O  O389  1  0.23312790  0.58382646  0.28821826  1
  O  O390  1  0.23438485  0.58356947  0.53737914  1
  O  O391  1  0.23459251  0.58356556  0.79097248  1
  O  O392  1  0.23446899  0.91612443  0.03861703  1
  O  O393  1  0.23354079  0.91627052  0.28786454  1
  O  O394  1  0.23325934  0.91718362  0.53779995  1
  O  O395  1  0.23582503  0.91672653  0.78839658  1
  O  O396  1  0.73154769  0.25005337  0.03724985  1
  O  O397  1  0.73266452  0.24922274  0.29058865  1
  O  O398  1  0.73440065  0.25026185  0.54109705  1
  O  O399  1  0.73436349  0.24885939  0.79013573  1
  O  O400  1  0.73469429  0.58371270  0.03880049  1
  O  O401  1  0.73373079  0.58389323  0.28839730  1
  O  O402  1  0.73565509  0.58351208  0.53786442  1
  O  O403  1  0.73257790  0.58408417  0.79038536  1
  O  O404  1  0.73216582  0.91625664  0.03708875  1
  O  O405  1  0.73108026  0.91643094  0.28984544  1
  O  O406  1  0.73529697  0.91694349  0.54126376  1
  O  O407  1  0.73548008  0.91684399  0.78833487  1
  O  O408  1  0.26580265  0.08251212  0.21208281  1
  O  O409  1  0.26622017  0.08282576  0.46180978  1
  O  O410  1  0.26714667  0.08343650  0.70945764  1
  O  O411  1  0.26879075  0.08227216  0.96035684  1
  O  O412  1  0.26542323  0.41770335  0.21246193  1
  O  O413  1  0.26569490  0.41633218  0.45855055  1
  O  O414  1  0.26640534  0.41652505  0.70924403  1
  O  O415  1  0.26675441  0.41662453  0.95965469  1
  O  O416  1  0.26483723  0.74990927  0.21210334  1
  O  O417  1  0.26520815  0.75053585  0.45926662  1
  O  O418  1  0.26700892  0.75026628  0.71001565  1
  O  O419  1  0.26840170  0.75017721  0.96038789  1
  O  O420  1  0.76434364  0.08306459  0.20856618  1
  O  O421  1  0.76761337  0.08297647  0.46359042  1
  O  O422  1  0.76776748  0.08324811  0.71094426  1
  O  O423  1  0.76402459  0.08257908  0.96181525  1
  O  O424  1  0.76471398  0.41701732  0.21187783  1
  O  O425  1  0.76784160  0.41649384  0.45979015  1
  O  O426  1  0.76549924  0.41727768  0.71222446  1
  O  O427  1  0.76499895  0.41671160  0.95943926  1
  O  O428  1  0.76554978  0.75048211  0.20930854  1
  O  O429  1  0.76799864  0.75056057  0.46285362  1
  O  O430  1  0.76659119  0.75039885  0.71280093  1
  O  O431  1  0.76665978  0.75032085  0.95994891  1
  O  O432  1  0.01673337  0.08313363  0.16489543  1
  O  O433  1  0.01793004  0.08289710  0.41414285  1
  O  O434  1  0.01702861  0.08262838  0.66313265  1
  O  O435  1  0.01508275  0.08341472  0.91367730  1
  O  O436  1  0.01600324  0.41698880  0.16499568  1
  O  O437  1  0.01784664  0.41729655  0.41470826  1
  O  O438  1  0.01557670  0.41634184  0.66328350  1
  O  O439  1  0.01578634  0.41669877  0.91580177  1
  O  O440  1  0.01539293  0.74969283  0.16217889  1
  O  O441  1  0.01749283  0.75015289  0.41436781  1
  O  O442  1  0.01432630  0.75072237  0.66490183  1
  O  O443  1  0.01402336  0.75026946  0.91398451  1
  O  O444  1  0.51613962  0.08281105  0.16292347  1
  O  O445  1  0.51489737  0.08316026  0.41639268  1
  O  O446  1  0.51532246  0.08273601  0.66373750  1
  O  O447  1  0.51393330  0.08282998  0.91292251  1
  O  O448  1  0.51571794  0.41619354  0.16550676  1
  O  O449  1  0.51809153  0.41703127  0.41546596  1
  O  O450  1  0.51646264  0.41604123  0.66472218  1
  O  O451  1  0.51808372  0.41789191  0.91474560  1
  O  O452  1  0.51445248  0.75046886  0.16332038  1
  O  O453  1  0.51626110  0.74996346  0.41528541  1
  O  O454  1  0.51839474  0.75128187  0.66425894  1
  O  O455  1  0.51746728  0.74957197  0.91586851  1
  O  O456  1  0.48231778  0.24985570  0.08437611  1
  O  O457  1  0.48145221  0.24947488  0.33617911  1
  O  O458  1  0.48162580  0.24909438  0.58606613  1
  O  O459  1  0.48406321  0.24997128  0.83653437  1
  O  O460  1  0.48259080  0.58351607  0.08803735  1
  O  O461  1  0.48290829  0.58354216  0.33519897  1
  O  O462  1  0.48584121  0.58368800  0.58701344  1
  O  O463  1  0.48313963  0.58428455  0.83476215  1
  O  O464  1  0.48336360  0.91663275  0.08667533  1
  O  O465  1  0.48190454  0.91697418  0.33581871  1
  O  O466  1  0.48230400  0.91713359  0.58586476  1
  O  O467  1  0.48279966  0.91587617  0.83761688  1
  O  O468  1  0.98307476  0.24998283  0.08478122  1
  O  O469  1  0.98533608  0.24991713  0.33689498  1
  O  O470  1  0.98614763  0.24923974  0.58627854  1
  O  O471  1  0.98260748  0.24941168  0.83477872  1
  O  O472  1  0.98356633  0.58354234  0.08652372  1
  O  O473  1  0.98244276  0.58360651  0.33450330  1
  O  O474  1  0.98326817  0.58400390  0.58543439  1
  O  O475  1  0.98197179  0.58360667  0.83825492  1
  O  O476  1  0.98515131  0.91674741  0.08608672  1
  O  O477  1  0.98568173  0.91638844  0.33568354  1
  O  O478  1  0.98303743  0.91707776  0.58514650  1
  O  O479  1  0.98295425  0.91669133  0.83885035  1
  O  O480  1  0.08693589  0.31486803  0.07705118  1
  O  O481  1  0.08885252  0.31504937  0.32889577  1
  O  O482  1  0.09035235  0.31319510  0.57718585  1
  O  O483  1  0.08654839  0.31485225  0.82642961  1
  O  O484  1  0.08745437  0.64830803  0.07594784  1
  O  O485  1  0.08631094  0.64898598  0.32665685  1
  O  O486  1  0.08700198  0.64892669  0.57775456  1
  O  O487  1  0.08543145  0.64882449  0.82760006  1
  O  O488  1  0.08917900  0.98152643  0.07645108  1
  O  O489  1  0.08941668  0.98177527  0.32791440  1
  O  O490  1  0.08710000  0.98241074  0.57717256  1
  O  O491  1  0.08655736  0.98159215  0.82765169  1
  O  O492  1  0.58703290  0.31345615  0.07677072  1
  O  O493  1  0.58497270  0.31547980  0.32801367  1
  O  O494  1  0.58605746  0.31294551  0.57755006  1
  O  O495  1  0.58743305  0.31595462  0.82822014  1
  O  O496  1  0.58612671  0.64851230  0.07752111  1
  O  O497  1  0.58724647  0.64781234  0.32671070  1
  O  O498  1  0.58890398  0.65009728  0.57839848  1
  O  O499  1  0.58735550  0.64917508  0.82761441  1
  O  O500  1  0.58681778  0.98247730  0.07717781  1
  O  O501  1  0.58593797  0.98193441  0.32707945  1
  O  O502  1  0.58590291  0.98260043  0.57779882  1
  O  O503  1  0.58649525  0.98032439  0.82732965  1
  O  O504  1  0.41249976  0.01790448  0.17161368  1
  O  O505  1  0.41108255  0.01758988  0.42293313  1
  O  O506  1  0.41126695  0.01810513  0.67210414  1
  O  O507  1  0.41067106  0.01685370  0.92180731  1
  O  O508  1  0.41182972  0.35146727  0.17180269  1
  O  O509  1  0.41394767  0.35219918  0.42252408  1
  O  O510  1  0.41283038  0.35039868  0.67230710  1
  O  O511  1  0.41415910  0.35299450  0.92260011  1
  O  O512  1  0.41088502  0.68525968  0.17173155  1
  O  O513  1  0.41257453  0.68472201  0.42201567  1
  O  O514  1  0.41486109  0.68595952  0.67282456  1
  O  O515  1  0.41324266  0.68462451  0.92292269  1
  O  O516  1  0.91318713  0.01785084  0.17305899  1
  O  O517  1  0.91384241  0.01803551  0.42319200  1
  O  O518  1  0.91326572  0.01722577  0.67244975  1
  O  O519  1  0.91135876  0.01844650  0.92206904  1
  O  O520  1  0.91205333  0.35250000  0.17284867  1
  O  O521  1  0.91383776  0.35250641  0.42351999  1
  O  O522  1  0.91199525  0.35139647  0.67198910  1
  O  O523  1  0.91251051  0.35049428  0.92203524  1
  O  O524  1  0.91185972  0.68435698  0.17099839  1
  O  O525  1  0.91359777  0.68449337  0.42224020  1
  O  O526  1  0.90996402  0.68689090  0.67314308  1
  O  O527  1  0.91009500  0.68529948  0.92246422  1
  O  O528  1  0.16243137  0.01705417  0.20357289  1
  O  O529  1  0.16222960  0.01798524  0.45254600  1
  O  O530  1  0.16327337  0.01834124  0.70130064  1
  O  O531  1  0.16503781  0.01696156  0.95229326  1
  O  O532  1  0.16200207  0.35283419  0.20291928  1
  O  O533  1  0.16201043  0.35060860  0.45210507  1
  O  O534  1  0.16288728  0.35079588  0.70292542  1
  O  O535  1  0.16246057  0.35278496  0.95300765  1
  O  O536  1  0.16151778  0.68451110  0.20295971  1
  O  O537  1  0.16087879  0.68639246  0.45169659  1
  O  O538  1  0.16322155  0.68497595  0.70265577  1
  O  O539  1  0.16436228  0.68502989  0.95253400  1
  O  O540  1  0.66078015  0.01679186  0.20253556  1
  O  O541  1  0.66374599  0.01838226  0.45319532  1
  O  O542  1  0.66386172  0.01789605  0.70113419  1
  O  O543  1  0.66046923  0.01771353  0.95278916  1
  O  O544  1  0.66081484  0.35276267  0.20324923  1
  O  O545  1  0.66360368  0.35133900  0.45173421  1
  O  O546  1  0.66197217  0.35263461  0.70295704  1
  O  O547  1  0.66098726  0.35132053  0.95227003  1
  O  O548  1  0.66223139  0.68449634  0.20280334  1
  O  O549  1  0.66430114  0.68580343  0.45296387  1
  O  O550  1  0.66325072  0.68431621  0.70267448  1
  O  O551  1  0.66254876  0.68581083  0.95144774  1
  O  O552  1  0.33894388  0.31380636  0.04821144  1
  O  O553  1  0.33892850  0.31499842  0.29829504  1
  O  O554  1  0.33764983  0.31391653  0.54780480  1
  O  O555  1  0.33633236  0.31405804  0.79737912  1
  O  O556  1  0.33782284  0.64953501  0.04777027  1
  O  O557  1  0.33708866  0.64846590  0.29849923  1
  O  O558  1  0.33802189  0.64840330  0.54709602  1
  O  O559  1  0.33872601  0.64840651  0.79837384  1
  O  O560  1  0.33827542  0.98114518  0.04759474  1
  O  O561  1  0.33720057  0.98143837  0.29842706  1
  O  O562  1  0.33715300  0.98236903  0.54705102  1
  O  O563  1  0.33896757  0.98310899  0.79631132  1
  O  O564  1  0.83504501  0.31515731  0.04753771  1
  O  O565  1  0.83653965  0.31452430  0.29775107  1
  O  O566  1  0.83810936  0.31561951  0.54683951  1
  O  O567  1  0.83832027  0.31357061  0.79860468  1
  O  O568  1  0.83805008  0.64987074  0.04707138  1
  O  O569  1  0.83766966  0.64876782  0.29762875  1
  O  O570  1  0.83925798  0.64816748  0.54632099  1
  O  O571  1  0.83655715  0.64944028  0.79800760  1
  O  O572  1  0.83594238  0.98065889  0.04763263  1
  O  O573  1  0.83487143  0.98186566  0.29782227  1
  O  O574  1  0.83946095  0.98183750  0.54784440  1
  O  O575  1  0.83898147  0.98242197  0.79746610  1
  O  O576  1  0.41267267  0.14813828  0.17121751  1
  O  O577  1  0.41055187  0.14768254  0.42264344  1
  O  O578  1  0.41160004  0.14825746  0.67250499  1
  O  O579  1  0.40989952  0.14703963  0.92244303  1
  O  O580  1  0.41220134  0.48179722  0.17265949  1
  O  O581  1  0.41441836  0.48251214  0.42263237  1
  O  O582  1  0.41272892  0.48082799  0.67252165  1
  O  O583  1  0.41432836  0.48319219  0.92209949  1
  O  O584  1  0.41089760  0.81555753  0.17135457  1
  O  O585  1  0.41246085  0.81512036  0.42208300  1
  O  O586  1  0.41430256  0.81605745  0.67220512  1
  O  O587  1  0.41327126  0.81460097  0.92336206  1
  O  O588  1  0.91289159  0.14815805  0.17271975  1
  O  O589  1  0.91400627  0.14800050  0.42362305  1
  O  O590  1  0.91296654  0.14712877  0.67296093  1
  O  O591  1  0.91141132  0.14875488  0.92151403  1
  O  O592  1  0.91255074  0.48282878  0.17216162  1
  O  O593  1  0.91372335  0.48256105  0.42251734  1
  O  O594  1  0.91202044  0.48151220  0.67223838  1
  O  O595  1  0.91152136  0.48094884  0.92202596  1
  O  O596  1  0.91204462  0.81462621  0.17219210  1
  O  O597  1  0.91327111  0.81451638  0.42278957  1
  O  O598  1  0.91103855  0.81694669  0.67221830  1
  O  O599  1  0.91027971  0.81549065  0.92254932  1
  O  O600  1  0.08675228  0.18475799  0.07656216  1
  O  O601  1  0.08884526  0.18457197  0.32874787  1
  O  O602  1  0.08950245  0.18309320  0.57784767  1
  O  O603  1  0.08696760  0.18484289  0.82624745  1
  O  O604  1  0.08745599  0.51846436  0.07644341  1
  O  O605  1  0.08670584  0.51885517  0.32685133  1
  O  O606  1  0.08698659  0.51887054  0.57750659  1
  O  O607  1  0.08568566  0.51868379  0.82798147  1
  O  O608  1  0.08892685  0.85167072  0.07624376  1
  O  O609  1  0.08949336  0.85150320  0.32785324  1
  O  O610  1  0.08721188  0.85257378  0.57700318  1
  O  O611  1  0.08631703  0.85150312  0.82753925  1
  O  O612  1  0.58574773  0.18343236  0.07672191  1
  O  O613  1  0.58541304  0.18522647  0.32792199  1
  O  O614  1  0.58495740  0.18276930  0.57751706  1
  O  O615  1  0.58770940  0.18559393  0.82740528  1
  O  O616  1  0.58624930  0.51853979  0.07805739  1
  O  O617  1  0.58684894  0.51774688  0.32739385  1
  O  O618  1  0.58978474  0.51969460  0.57826536  1
  O  O619  1  0.58722650  0.51908925  0.82726081  1
  O  O620  1  0.58755555  0.85249896  0.07675445  1
  O  O621  1  0.58589590  0.85191312  0.32682405  1
  O  O622  1  0.58649566  0.85245073  0.57783998  1
  O  O623  1  0.58639086  0.85024754  0.82821267  1
  O  O624  1  0.33793928  0.18358951  0.04769537  1
  O  O625  1  0.33930133  0.18498709  0.29800203  1
  O  O626  1  0.33710766  0.18384483  0.54700975  1
  O  O627  1  0.33688499  0.18405060  0.79618493  1
  O  O628  1  0.33804138  0.51932253  0.04839613  1
  O  O629  1  0.33697735  0.51873094  0.29886107  1
  O  O630  1  0.33783124  0.51822027  0.54699846  1
  O  O631  1  0.33857795  0.51852773  0.79840885  1
  O  O632  1  0.33821002  0.85099588  0.04767550  1
  O  O633  1  0.33731839  0.85163459  0.29836521  1
  O  O634  1  0.33719058  0.85247928  0.54785327  1
  O  O635  1  0.34017390  0.85302890  0.79776280  1
  O  O636  1  0.83508708  0.18497134  0.04759896  1
  O  O637  1  0.83672736  0.18446628  0.29753920  1
  O  O638  1  0.83839591  0.18525514  0.54722439  1
  O  O639  1  0.83818256  0.18340074  0.79787501  1
  O  O640  1  0.83886473  0.51969891  0.04810529  1
  O  O641  1  0.83760187  0.51885898  0.29791365  1
  O  O642  1  0.83863863  0.51756488  0.54616563  1
  O  O643  1  0.83676969  0.51947963  0.79870095  1
  O  O644  1  0.83558783  0.85059226  0.04692463  1
  O  O645  1  0.83536569  0.85197753  0.29772170  1
  O  O646  1  0.83924331  0.85174482  0.54776448  1
  O  O647  1  0.83937771  0.85220179  0.79710538  1
  O  O648  1  0.16236263  0.14731361  0.20286820  1
  O  O649  1  0.16255986  0.14806232  0.45262920  1
  O  O650  1  0.16287711  0.14828069  0.70191591  1
  O  O651  1  0.16492302  0.14716272  0.95215149  1
  O  O652  1  0.16200368  0.48325256  0.20328785  1
  O  O653  1  0.16139019  0.48078791  0.45142561  1
  O  O654  1  0.16251216  0.48119424  0.70254307  1
  O  O655  1  0.16349440  0.48317417  0.95294966  1
  O  O656  1  0.16135784  0.81484739  0.20335047  1
  O  O657  1  0.16159681  0.81650882  0.45250887  1
  O  O658  1  0.16313233  0.81515068  0.70270416  1
  O  O659  1  0.16452151  0.81522482  0.95243124  1
  O  O660  1  0.65975789  0.14689675  0.20200850  1
  O  O661  1  0.66409599  0.14839416  0.45302522  1
  O  O662  1  0.66341576  0.14779869  0.70125085  1
  O  O663  1  0.66067656  0.14806197  0.95272213  1
  O  O664  1  0.66166992  0.48326503  0.20359055  1
  O  O665  1  0.66370185  0.48128168  0.45153640  1
  O  O666  1  0.66232443  0.48309576  0.70355764  1
  O  O667  1  0.66099937  0.48140480  0.95205930  1
  O  O668  1  0.66128186  0.81478835  0.20333587  1
  O  O669  1  0.66429531  0.81578588  0.45305045  1
  O  O670  1  0.66259131  0.81446728  0.70212088  1
  O  O671  1  0.66273200  0.81576952  0.95130112  1
