# generated using pymatgen
data_Na2MnFe(PO4)2
_symmetry_space_group_name_H-M   'P 1'
_cell_length_a   21.08448197
_cell_length_b   18.93631053
_cell_length_c   20.04368489
_cell_angle_alpha   89.99960962
_cell_angle_beta   90.00077493
_cell_angle_gamma   90.00021531
_symmetry_Int_Tables_number   1
_chemical_formula_structural   Na2MnFe(PO4)2
_chemical_formula_sum   'Na96 Mn48 Fe48 P96 O384'
_cell_volume   8002.68768815
_cell_formula_units_Z   48
loop_
 _symmetry_equiv_pos_site_id
 _symmetry_equiv_pos_as_xyz
  1  'x, y, z'
loop_
 _atom_site_type_symbol
 _atom_site_label
 _atom_site_symmetry_multiplicity
 _atom_site_fract_x
 _atom_site_fract_y
 _atom_site_fract_z
 _atom_site_occupancy
  Na  Na0  1  -0.00066842  0.00023103  0.00008159  1
  Na  Na1  1  -0.00259284  -0.00140219  0.25083635  1
  Na  Na2  1  0.00092050  0.00055331  0.49891306  1
  Na  Na3  1  -0.00184237  -0.00092286  0.74974830  1
  Na  Na4  1  0.00052277  0.33312903  -0.00042312  1
  Na  Na5  1  0.00282004  0.33392238  0.25072382  1
  Na  Na6  1  0.00137825  0.33358742  0.49970725  1
  Na  Na7  1  -0.00035490  0.33301984  0.75066236  1
  Na  Na8  1  -0.00120111  0.66669778  0.00067566  1
  Na  Na9  1  -0.00163851  0.66605440  0.24964695  1
  Na  Na10  1  -0.00031454  0.66705840  0.49986173  1
  Na  Na11  1  -0.00138090  0.66673967  0.74982602  1
  Na  Na12  1  0.50200008  0.00070441  -0.00104309  1
  Na  Na13  1  0.49854225  -0.00049232  0.25057014  1
  Na  Na14  1  0.49780308  -0.00033676  0.50062423  1
  Na  Na15  1  0.50014751  0.00029560  0.75001732  1
  Na  Na16  1  0.49822735  0.33265984  0.00102538  1
  Na  Na17  1  0.50108109  0.33395899  0.24993287  1
  Na  Na18  1  0.50071034  0.33397538  0.49873053  1
  Na  Na19  1  0.49966360  0.33387085  0.75040721  1
  Na  Na20  1  0.50207108  0.66724221  0.00058553  1
  Na  Na21  1  0.50096248  0.66693561  0.25011092  1
  Na  Na22  1  0.50031893  0.66761708  0.49998407  1
  Na  Na23  1  0.49790830  0.66557694  0.74938951  1
  Na  Na24  1  0.25136087  0.00022855  0.12499991  1
  Na  Na25  1  0.25246457  0.00067803  0.37601833  1
  Na  Na26  1  0.25028856  -0.00053905  0.62412540  1
  Na  Na27  1  0.25119892  0.00037175  0.87452764  1
  Na  Na28  1  0.24913004  0.33352823  0.12477879  1
  Na  Na29  1  0.24635855  0.33292940  0.37566072  1
  Na  Na30  1  0.24759619  0.33287696  0.62466370  1
  Na  Na31  1  0.25091535  0.33388560  0.87554843  1
  Na  Na32  1  0.25057372  0.66691090  0.12505534  1
  Na  Na33  1  0.24942320  0.66689995  0.37446831  1
  Na  Na34  1  0.25054815  0.66715812  0.62506817  1
  Na  Na35  1  0.25073270  0.66669527  0.87520317  1
  Na  Na36  1  0.74881327  -0.00035428  0.12490508  1
  Na  Na37  1  0.75150902  0.00040189  0.37564255  1
  Na  Na38  1  0.75144666  0.00022735  0.62469748  1
  Na  Na39  1  0.74857898  -0.00064508  0.87399309  1
  Na  Na40  1  0.74860078  0.33282396  0.12509186  1
  Na  Na41  1  0.75062848  0.33309206  0.37493471  1
  Na  Na42  1  0.75234314  0.33405228  0.62510155  1
  Na  Na43  1  0.75100165  0.33379651  0.87484859  1
  Na  Na44  1  0.75081776  0.66735790  0.12546983  1
  Na  Na45  1  0.75007273  0.66645835  0.37526986  1
  Na  Na46  1  0.75105762  0.66707382  0.62496252  1
  Na  Na47  1  0.74994196  0.66638921  0.87441279  1
  Na  Na48  1  0.00012812  0.16652182  0.00010084  1
  Na  Na49  1  -0.00023644  0.16773202  0.25047177  1
  Na  Na50  1  0.00048137  0.16627794  0.49890503  1
  Na  Na51  1  -0.00072810  0.16667173  0.75110052  1
  Na  Na52  1  0.00148676  0.49944762  -0.00069000  1
  Na  Na53  1  0.00080662  0.50003117  0.25059195  1
  Na  Na54  1  0.00148080  0.49942065  0.50033110  1
  Na  Na55  1  -0.00063605  0.50033732  0.74998751  1
  Na  Na56  1  -0.00302808  0.83381376  0.00086323  1
  Na  Na57  1  -0.00125299  0.83274278  0.25006909  1
  Na  Na58  1  -0.00099868  0.83400288  0.49923474  1
  Na  Na59  1  -0.00184505  0.83380621  0.74911953  1
  Na  Na60  1  0.50101203  0.16625539  0.00057084  1
  Na  Na61  1  0.50099421  0.16607147  0.25045981  1
  Na  Na62  1  0.50001743  0.16607617  0.49972012  1
  Na  Na63  1  0.49732890  0.16757983  0.74880307  1
  Na  Na64  1  0.50002306  0.50008558  0.00105825  1
  Na  Na65  1  0.50121958  0.49968929  0.24971387  1
  Na  Na66  1  0.50077128  0.49962903  0.49857917  1
  Na  Na67  1  0.49955271  0.50005555  0.75110646  1
  Na  Na68  1  0.50160110  0.83293323  -0.00095144  1
  Na  Na69  1  0.49908332  0.83357929  0.25055896  1
  Na  Na70  1  0.49722786  0.83413666  0.50086021  1
  Na  Na71  1  0.50095107  0.83276899  0.74985477  1
  Na  Na72  1  0.24983107  0.16723254  0.12407323  1
  Na  Na73  1  0.24960911  0.16636734  0.37598440  1
  Na  Na74  1  0.25017916  0.16598000  0.62491358  1
  Na  Na75  1  0.24980230  0.16683051  0.87501020  1
  Na  Na76  1  0.24932788  0.50003008  0.12523858  1
  Na  Na77  1  0.24903754  0.49925836  0.37531011  1
  Na  Na78  1  0.24687733  0.50116214  0.62454929  1
  Na  Na79  1  0.25172823  0.49930164  0.87563069  1
  Na  Na80  1  0.25123347  0.83282154  0.12563862  1
  Na  Na81  1  0.25050008  0.83327282  0.37474871  1
  Na  Na82  1  0.25198208  0.83259984  0.62424073  1
  Na  Na83  1  0.25085267  0.83323396  0.87479256  1
  Na  Na84  1  0.75129798  0.16592884  0.12592168  1
  Na  Na85  1  0.74894935  0.16736544  0.37463654  1
  Na  Na86  1  0.75139146  0.16601322  0.62532422  1
  Na  Na87  1  0.75050906  0.16685603  0.87419060  1
  Na  Na88  1  0.74640223  0.50188045  0.12427239  1
  Na  Na89  1  0.75170877  0.49912601  0.37554180  1
  Na  Na90  1  0.75147820  0.49981398  0.62424857  1
  Na  Na91  1  0.75093650  0.49905206  0.87531543  1
  Na  Na92  1  0.75012251  0.83282516  0.12554860  1
  Na  Na93  1  0.75253727  0.83236773  0.37554809  1
  Na  Na94  1  0.75149282  0.83340455  0.62528781  1
  Na  Na95  1  0.74869573  0.83396686  0.87351335  1
  Mn  Mn96  1  0.39195620  0.24989727  0.37688850  1
  Mn  Mn97  1  0.60701785  0.74955640  0.62238967  1
  Mn  Mn98  1  0.14212198  0.58333140  0.24761427  1
  Mn  Mn99  1  0.10777145  0.41725426  0.87280559  1
  Mn  Mn100  1  0.64235799  0.91649884  0.24893184  1
  Mn  Mn101  1  0.39145454  0.58286337  0.62649327  1
  Mn  Mn102  1  0.39279885  0.58354282  0.12740517  1
  Mn  Mn103  1  0.64220485  0.24981069  0.99735855  1
  Mn  Mn104  1  0.85757870  0.74988936  0.75258710  1
  Mn  Mn105  1  0.85834511  0.08334211  0.50248832  1
  Mn  Mn106  1  0.85709577  0.08297555  0.00249061  1
  Mn  Mn107  1  0.10684538  0.75056313  0.87335899  1
  Mn  Mn108  1  0.85784740  0.41675367  0.25145620  1
  Mn  Mn109  1  0.64231762  0.25003570  0.74748335  1
  Mn  Mn110  1  0.39350452  0.91666906  0.87698217  1
  Mn  Mn111  1  0.64231145  0.91649220  0.49808074  1
  Mn  Mn112  1  0.10767457  0.08326642  0.12353796  1
  Mn  Mn113  1  0.89294966  0.58299560  0.62733837  1
  Mn  Mn114  1  0.14283929  0.91730725  0.24801174  1
  Mn  Mn115  1  0.89079620  0.91750106  0.12754396  1
  Mn  Mn116  1  0.89204810  0.24991326  0.87778774  1
  Mn  Mn117  1  0.35831766  0.08364759  0.00189636  1
  Mn  Mn118  1  0.14212597  0.91645786  0.74782397  1
  Mn  Mn119  1  0.60707828  0.41631935  0.87281144  1
  Mn  Mn120  1  0.39239291  0.58375183  0.37716056  1
  Mn  Mn121  1  0.10799699  0.75070455  0.62239367  1
  Mn  Mn122  1  0.39191076  0.25001517  0.12813214  1
  Mn  Mn123  1  0.60833301  0.08342515  0.12321431  1
  Mn  Mn124  1  0.60714701  0.08396216  0.62279907  1
  Mn  Mn125  1  0.64301064  0.58345674  0.49776277  1
  Mn  Mn126  1  0.60868513  0.74981396  0.12296149  1
  Mn  Mn127  1  0.64218398  0.58288907  0.74782710  1
  Mn  Mn128  1  0.39138548  0.25070732  0.62665563  1
  Mn  Mn129  1  0.35784499  0.41663896  0.75163667  1
  Mn  Mn130  1  0.89282971  0.25062961  0.37707345  1
  Mn  Mn131  1  0.35652390  0.41685909  0.50237740  1
  Mn  Mn132  1  0.10823527  0.08271135  0.37195712  1
  Mn  Mn133  1  0.14228883  0.58399844  0.74875110  1
  Mn  Mn134  1  0.89196218  0.58193045  0.12709117  1
  Mn  Mn135  1  0.35853027  0.74956625  0.00202484  1
  Mn  Mn136  1  0.14232198  0.24953079  0.74760210  1
  Mn  Mn137  1  0.64287604  0.24999014  0.49831648  1
  Mn  Mn138  1  0.10730560  0.74975585  0.12294456  1
  Mn  Mn139  1  0.85761999  0.41717796  0.00341362  1
  Mn  Mn140  1  0.60875287  0.41666844  0.37220499  1
  Mn  Mn141  1  0.39268300  0.91661668  0.12674028  1
  Mn  Mn142  1  0.10747432  0.08217555  0.87266381  1
  Mn  Mn143  1  0.14158792  0.91630554  0.99761364  1
  Fe  Fe144  1  0.64308242  0.25033600  0.24828029  1
  Fe  Fe145  1  0.85796105  0.41646177  0.75140029  1
  Fe  Fe146  1  0.89344154  0.25040104  0.12676245  1
  Fe  Fe147  1  0.35773048  0.75012762  0.75229975  1
  Fe  Fe148  1  0.89336455  0.91774491  0.62624590  1
  Fe  Fe149  1  0.14300646  0.24940611  0.24793626  1
  Fe  Fe150  1  0.60838597  0.41665592  0.62353166  1
  Fe  Fe151  1  0.64335536  0.91703380  0.74756853  1
  Fe  Fe152  1  0.39198945  0.91664842  0.62747712  1
  Fe  Fe153  1  0.85704086  0.08328293  0.25192951  1
  Fe  Fe154  1  0.35671527  0.74980715  0.50087493  1
  Fe  Fe155  1  0.35789679  0.08383565  0.25203029  1
  Fe  Fe156  1  0.10734438  0.08336421  0.62386830  1
  Fe  Fe157  1  0.85595816  0.74998484  0.00094189  1
  Fe  Fe158  1  0.64339040  0.58319925  0.24899803  1
  Fe  Fe159  1  0.10807959  0.41656593  0.12314212  1
  Fe  Fe160  1  0.14294755  0.25012000  0.99834391  1
  Fe  Fe161  1  0.85869813  0.41664856  0.50217115  1
  Fe  Fe162  1  0.60741695  0.75087800  0.37379674  1
  Fe  Fe163  1  0.35687802  0.41685836  0.00216746  1
  Fe  Fe164  1  0.14293462  0.58358292  0.99787118  1
  Fe  Fe165  1  0.35788185  0.74990632  0.25273807  1
  Fe  Fe166  1  0.14166030  0.24931418  0.49886971  1
  Fe  Fe167  1  0.60743081  0.08364658  0.87233436  1
  Fe  Fe168  1  0.85780647  0.74963781  0.50143898  1
  Fe  Fe169  1  0.89356257  0.24924326  0.62622037  1
  Fe  Fe170  1  0.85769604  0.08346175  0.75156821  1
  Fe  Fe171  1  0.89126116  0.91614194  0.87692486  1
  Fe  Fe172  1  0.35667558  0.41642515  0.25169802  1
  Fe  Fe173  1  0.60764293  0.74999545  0.87280904  1
  Fe  Fe174  1  0.35671708  0.08327090  0.50194022  1
  Fe  Fe175  1  0.64256943  0.91617106  0.99776907  1
  Fe  Fe176  1  0.60675441  0.08263083  0.37364896  1
  Fe  Fe177  1  0.39245478  0.25030224  0.87672030  1
  Fe  Fe178  1  0.89276828  0.58343466  0.37658113  1
  Fe  Fe179  1  0.60692168  0.41638988  0.12338275  1
  Fe  Fe180  1  0.35708921  0.08308378  0.75187944  1
  Fe  Fe181  1  0.39239405  0.91652329  0.37675546  1
  Fe  Fe182  1  0.64268821  0.58388425  0.99745354  1
  Fe  Fe183  1  0.89282601  0.91602894  0.37710504  1
  Fe  Fe184  1  0.14184111  0.58439183  0.49781407  1
  Fe  Fe185  1  0.85728208  0.74998585  0.25255383  1
  Fe  Fe186  1  0.89215448  0.58390406  0.87746001  1
  Fe  Fe187  1  0.39280646  0.58294881  0.87740263  1
  Fe  Fe188  1  0.10674636  0.41603527  0.62355005  1
  Fe  Fe189  1  0.10675907  0.74988299  0.37332176  1
  Fe  Fe190  1  0.14315970  0.91613115  0.49817353  1
  Fe  Fe191  1  0.10700759  0.41770571  0.37335713  1
  P  P192  1  0.05456307  0.25045625  0.11067551  1
  P  P193  1  0.05588205  0.25063348  0.36060433  1
  P  P194  1  0.05273684  0.24929535  0.60995975  1
  P  P195  1  0.05470233  0.24986250  0.86120742  1
  P  P196  1  0.05404993  0.58246284  0.10936044  1
  P  P197  1  0.05336158  0.58418154  0.36134118  1
  P  P198  1  0.05422764  0.58307551  0.60975072  1
  P  P199  1  0.05259476  0.58404115  0.86109216  1
  P  P200  1  0.05242885  0.91674819  0.11031028  1
  P  P201  1  0.05364225  0.91533691  0.36106433  1
  P  P202  1  0.05302818  0.91770661  0.60916102  1
  P  P203  1  0.05095303  0.91602497  0.85970703  1
  P  P204  1  0.55466597  0.25065710  0.11144773  1
  P  P205  1  0.55436496  0.24898707  0.35957021  1
  P  P206  1  0.55298413  0.25112832  0.60963417  1
  P  P207  1  0.55196267  0.24938636  0.85985692  1
  P  P208  1  0.55598004  0.58263496  0.11091175  1
  P  P209  1  0.55451045  0.58448729  0.35947196  1
  P  P210  1  0.55322960  0.58221115  0.60962897  1
  P  P211  1  0.55326136  0.58395372  0.86123100  1
  P  P212  1  0.55441674  0.91652887  0.10930416  1
  P  P213  1  0.55197828  0.91678643  0.36090669  1
  P  P214  1  0.55284629  0.91689028  0.61115260  1
  P  P215  1  0.55618098  0.91666641  0.86008468  1
  P  P216  1  0.44646704  0.08335864  0.14088844  1
  P  P217  1  0.44538518  0.08290795  0.38965379  1
  P  P218  1  0.44393075  0.08277714  0.63926306  1
  P  P219  1  0.44704912  0.08412834  0.88858331  1
  P  P220  1  0.44585617  0.41688406  0.13991918  1
  P  P221  1  0.44544860  0.41660458  0.38869684  1
  P  P222  1  0.44817166  0.41693795  0.63972962  1
  P  P223  1  0.44545992  0.41661903  0.89105083  1
  P  P224  1  0.44677317  0.74993952  0.14087077  1
  P  P225  1  0.44617935  0.75060846  0.38966251  1
  P  P226  1  0.44403115  0.75043409  0.63921030  1
  P  P227  1  0.44732351  0.74927068  0.88885002  1
  P  P228  1  0.94576637  0.08451542  0.14098776  1
  P  P229  1  0.94556762  0.08285464  0.38852441  1
  P  P230  1  0.94756117  0.08349664  0.64003611  1
  P  P231  1  0.94491206  0.08215920  0.88918771  1
  P  P232  1  0.94872492  0.41569294  0.14013882  1
  P  P233  1  0.94724753  0.41758519  0.39021832  1
  P  P234  1  0.94658116  0.41542598  0.63936049  1
  P  P235  1  0.94507666  0.41757709  0.88920094  1
  P  P236  1  0.94390079  0.74968414  0.13961489  1
  P  P237  1  0.94559286  0.74964950  0.38913807  1
  P  P238  1  0.94559660  0.75109787  0.63850124  1
  P  P239  1  0.94505084  0.75015909  0.89072716  1
  P  P240  1  0.19858464  0.08378631  0.23523286  1
  P  P241  1  0.19578613  0.08259778  0.48654958  1
  P  P242  1  0.19727510  0.08275772  0.73425034  1
  P  P243  1  0.19653932  0.08388763  0.98497832  1
  P  P244  1  0.19557004  0.41603343  0.23574186  1
  P  P245  1  0.19341948  0.41681380  0.48601400  1
  P  P246  1  0.19598197  0.41689483  0.73452267  1
  P  P247  1  0.19610008  0.41698686  0.98633492  1
  P  P248  1  0.19687256  0.75026475  0.23630773  1
  P  P249  1  0.19671959  0.75051963  0.48432920  1
  P  P250  1  0.19806837  0.75026019  0.73515584  1
  P  P251  1  0.19673048  0.74909365  0.98505461  1
  P  P252  1  0.69653303  0.08344641  0.23683143  1
  P  P253  1  0.69617695  0.08313123  0.48448533  1
  P  P254  1  0.69677161  0.08287465  0.73563804  1
  P  P255  1  0.69586357  0.08283222  0.98394384  1
  P  P256  1  0.69626410  0.41696269  0.23448778  1
  P  P257  1  0.69780512  0.41649931  0.48607515  1
  P  P258  1  0.69775124  0.41661612  0.73439052  1
  P  P259  1  0.69524818  0.41721723  0.98599506  1
  P  P260  1  0.69683420  0.74955800  0.23700486  1
  P  P261  1  0.69751044  0.75028859  0.48474965  1
  P  P262  1  0.69528527  0.75049693  0.73559225  1
  P  P263  1  0.69665289  0.74989131  0.98425516  1
  P  P264  1  0.30378390  0.25098021  0.01387209  1
  P  P265  1  0.30188603  0.25047167  0.26519379  1
  P  P266  1  0.30134948  0.24974105  0.51457301  1
  P  P267  1  0.30383585  0.24928294  0.76547422  1
  P  P268  1  0.30376104  0.58250973  0.01425248  1
  P  P269  1  0.30348745  0.58286713  0.26498624  1
  P  P270  1  0.30129983  0.58405379  0.51427481  1
  P  P271  1  0.30419884  0.58388584  0.76572614  1
  P  P272  1  0.30346144  0.91651185  0.01485446  1
  P  P273  1  0.30464287  0.91681133  0.26568826  1
  P  P274  1  0.30447577  0.91625204  0.51386253  1
  P  P275  1  0.30477113  0.91668975  0.76376921  1
  P  P276  1  0.80387549  0.24999885  0.01620879  1
  P  P277  1  0.80374763  0.24987643  0.26369325  1
  P  P278  1  0.80482570  0.25057034  0.51566746  1
  P  P279  1  0.80530548  0.24995651  0.76334070  1
  P  P280  1  0.80281910  0.58445888  0.01389338  1
  P  P281  1  0.80316451  0.58342852  0.26549873  1
  P  P282  1  0.80560733  0.58348846  0.51363323  1
  P  P283  1  0.80427037  0.58225326  0.76544699  1
  P  P284  1  0.80228455  0.91558058  0.01361886  1
  P  P285  1  0.80404914  0.91674980  0.26592248  1
  P  P286  1  0.80549100  0.91571217  0.51464275  1
  P  P287  1  0.80450663  0.91770909  0.76377407  1
  O  O288  1  0.05927124  0.24970895  0.18745183  1
  O  O289  1  0.05957704  0.24916881  0.43742029  1
  O  O290  1  0.05581648  0.24928714  0.68671853  1
  O  O291  1  0.05926942  0.24987305  0.93796931  1
  O  O292  1  0.05699121  0.58335432  0.18623392  1
  O  O293  1  0.05788483  0.58452714  0.43801033  1
  O  O294  1  0.05683055  0.58413345  0.68656918  1
  O  O295  1  0.05802528  0.58382984  0.93769250  1
  O  O296  1  0.05620240  0.91654564  0.18709439  1
  O  O297  1  0.05889476  0.91623457  0.43769980  1
  O  O298  1  0.05652058  0.91664540  0.68589609  1
  O  O299  1  0.05516381  0.91615974  0.93638598  1
  O  O300  1  0.55933726  0.25004959  0.18815976  1
  O  O301  1  0.55724383  0.24993306  0.43635563  1
  O  O302  1  0.55610930  0.25043670  0.68641113  1
  O  O303  1  0.55576548  0.24967543  0.93656988  1
  O  O304  1  0.56009923  0.58359217  0.18766078  1
  O  O305  1  0.55744767  0.58387218  0.43627820  1
  O  O306  1  0.55615801  0.58282842  0.68642845  1
  O  O307  1  0.55826304  0.58375296  0.93791622  1
  O  O308  1  0.55723217  0.91647220  0.18613266  1
  O  O309  1  0.55552218  0.91664036  0.43757615  1
  O  O310  1  0.55838990  0.91697507  0.68775709  1
  O  O311  1  0.55976035  0.91650812  0.93694002  1
  O  O312  1  0.44345409  0.08368665  0.06405811  1
  O  O313  1  0.44088164  0.08394906  0.31290801  1
  O  O314  1  0.43972791  0.08344925  0.56241728  1
  O  O315  1  0.44198469  0.08356197  0.81194956  1
  O  O316  1  0.44077909  0.41671934  0.06326090  1
  O  O317  1  0.44056674  0.41646557  0.31200262  1
  O  O318  1  0.44376882  0.41695404  0.56302567  1
  O  O319  1  0.44286054  0.41678056  0.81424792  1
  O  O320  1  0.44373831  0.74971326  0.06400324  1
  O  O321  1  0.44154725  0.74969440  0.31294826  1
  O  O322  1  0.43975858  0.74975423  0.56241466  1
  O  O323  1  0.44241898  0.74967591  0.81218779  1
  O  O324  1  0.94294444  0.08357114  0.06415459  1
  O  O325  1  0.94095195  0.08357906  0.31179755  1
  O  O326  1  0.94442056  0.08350612  0.56328233  1
  O  O327  1  0.94101547  0.08285631  0.81240118  1
  O  O328  1  0.94452978  0.41641858  0.06346103  1
  O  O329  1  0.94349115  0.41686787  0.31353486  1
  O  O330  1  0.94248347  0.41632734  0.56261195  1
  O  O331  1  0.94130347  0.41698052  0.81241071  1
  O  O332  1  0.93932984  0.74988941  0.06291048  1
  O  O333  1  0.94118913  0.74941665  0.31237180  1
  O  O334  1  0.94197119  0.75027828  0.56178568  1
  O  O335  1  0.94281049  0.75009847  0.81385611  1
  O  O336  1  0.19345056  0.08326780  0.06173893  1
  O  O337  1  0.19471546  0.08290274  0.31185848  1
  O  O338  1  0.19109739  0.08273335  0.56327565  1
  O  O339  1  0.19319913  0.08264730  0.81094770  1
  O  O340  1  0.19194620  0.41689761  0.06308154  1
  O  O341  1  0.19071671  0.41727812  0.31243462  1
  O  O342  1  0.18964890  0.41661016  0.56283690  1
  O  O343  1  0.19332887  0.41679606  0.81134985  1
  O  O344  1  0.19348807  0.74976123  0.06185056  1
  O  O345  1  0.19126018  0.75009891  0.31288602  1
  O  O346  1  0.19354979  0.75055097  0.56115973  1
  O  O347  1  0.19355062  0.75050813  0.81175553  1
  O  O348  1  0.69334129  0.08369471  0.06080333  1
  O  O349  1  0.69158772  0.08280870  0.31344587  1
  O  O350  1  0.69278430  0.08289713  0.56128763  1
  O  O351  1  0.69171294  0.08394547  0.81227447  1
  O  O352  1  0.69087495  0.41654954  0.06267006  1
  O  O353  1  0.69443681  0.41647878  0.31141323  1
  O  O354  1  0.69275003  0.41660309  0.56267864  1
  O  O355  1  0.69318948  0.41643567  0.81110091  1
  O  O356  1  0.69406795  0.74990977  0.06092581  1
  O  O357  1  0.69180211  0.75050914  0.31367103  1
  O  O358  1  0.69333722  0.75048163  0.56146076  1
  O  O359  1  0.69117391  0.74958856  0.81235390  1
  O  O360  1  0.30534347  0.25058750  0.18843938  1
  O  O361  1  0.30525505  0.25047126  0.43796520  1
  O  O362  1  0.30625646  0.25031270  0.68863589  1
  O  O363  1  0.30866339  0.25013432  0.93723639  1
  O  O364  1  0.30654108  0.58303731  0.18821708  1
  O  O365  1  0.30546203  0.58319758  0.43766188  1
  O  O366  1  0.30646096  0.58299326  0.68888061  1
  O  O367  1  0.30878925  0.58329579  0.93759720  1
  O  O368  1  0.30724067  0.91658938  0.18888675  1
  O  O369  1  0.30897295  0.91642821  0.43716139  1
  O  O370  1  0.30796080  0.91655331  0.68692682  1
  O  O371  1  0.30724073  0.91653694  0.93808387  1
  O  O372  1  0.80873186  0.25057965  0.18711439  1
  O  O373  1  0.80745494  0.25002084  0.43878090  1
  O  O374  1  0.80959275  0.24960425  0.68663593  1
  O  O375  1  0.80700790  0.25028521  0.93936309  1
  O  O376  1  0.80625010  0.58278567  0.18875364  1
  O  O377  1  0.80932398  0.58319232  0.43686437  1
  O  O378  1  0.80758614  0.58316723  0.68862866  1
  O  O379  1  0.80764334  0.58322561  0.93725572  1
  O  O380  1  0.80582642  0.91690826  0.18908620  1
  O  O381  1  0.80959593  0.91655675  0.43787319  1
  O  O382  1  0.80951654  0.91740485  0.68710789  1
  O  O383  1  0.80662398  0.91634066  0.93691268  1
  O  O384  1  0.23344405  0.25064254  0.03763871  1
  O  O385  1  0.23195559  0.25002552  0.29015465  1
  O  O386  1  0.23123228  0.24955904  0.53911025  1
  O  O387  1  0.23421201  0.25009523  0.79084708  1
  O  O388  1  0.23353382  0.58306491  0.03817338  1
  O  O389  1  0.23374502  0.58298914  0.29008140  1
  O  O390  1  0.23118775  0.58435611  0.53862869  1
  O  O391  1  0.23458458  0.58322660  0.79127591  1
  O  O392  1  0.23381035  0.91644066  0.03992314  1
  O  O393  1  0.23498056  0.91697053  0.29113884  1
  O  O394  1  0.23401701  0.91601336  0.53758445  1
  O  O395  1  0.23501854  0.91683766  0.78890576  1
  O  O396  1  0.73405612  0.24959343  0.04072566  1
  O  O397  1  0.73341241  0.25051830  0.28752151  1
  O  O398  1  0.73520976  0.24990594  0.54095095  1
  O  O399  1  0.73532580  0.25028245  0.78788756  1
  O  O400  1  0.73255135  0.58451828  0.03769336  1
  O  O401  1  0.73320614  0.58272169  0.29041910  1
  O  O402  1  0.73576546  0.58378843  0.53847536  1
  O  O403  1  0.73442609  0.58258875  0.79013058  1
  O  O404  1  0.73215279  0.91600834  0.03801870  1
  O  O405  1  0.73454363  0.91646865  0.29181603  1
  O  O406  1  0.73544360  0.91674308  0.53881798  1
  O  O407  1  0.73401219  0.91694169  0.78700557  1
  O  O408  1  0.26859194  0.08369626  0.21055949  1
  O  O409  1  0.26624718  0.08284442  0.46288095  1
  O  O410  1  0.26739305  0.08283513  0.71016288  1
  O  O411  1  0.26623680  0.08373297  0.95979704  1
  O  O412  1  0.26594647  0.41666654  0.21204246  1
  O  O413  1  0.26345785  0.41658638  0.46161175  1
  O  O414  1  0.26560291  0.41689073  0.70915888  1
  O  O415  1  0.26625877  0.41683759  0.96205288  1
  O  O416  1  0.26742690  0.75016893  0.21324112  1
  O  O417  1  0.26686806  0.75042419  0.45984973  1
  O  O418  1  0.26819219  0.75001991  0.71103674  1
  O  O419  1  0.26644713  0.74940857  0.96003117  1
  O  O420  1  0.76681659  0.08281397  0.21281054  1
  O  O421  1  0.76613964  0.08361534  0.46022325  1
  O  O422  1  0.76716605  0.08295950  0.71203939  1
  O  O423  1  0.76554043  0.08335831  0.95873026  1
  O  O424  1  0.76575361  0.41732755  0.20850332  1
  O  O425  1  0.76817984  0.41630705  0.46241871  1
  O  O426  1  0.76806627  0.41682356  0.71073979  1
  O  O427  1  0.76531878  0.41663709  0.96197748  1
  O  O428  1  0.76718002  0.75012719  0.21326874  1
  O  O429  1  0.76772809  0.74960922  0.46087093  1
  O  O430  1  0.76537397  0.75041101  0.71155330  1
  O  O431  1  0.76647432  0.74985492  0.95874602  1
  O  O432  1  0.01539184  0.08332012  0.16640150  1
  O  O433  1  0.01565248  0.08334698  0.41228589  1
  O  O434  1  0.01756280  0.08312858  0.66505293  1
  O  O435  1  0.01479079  0.08290052  0.91376489  1
  O  O436  1  0.01872198  0.41656884  0.16465288  1
  O  O437  1  0.01746027  0.41697778  0.41432125  1
  O  O438  1  0.01688272  0.41632371  0.66345052  1
  O  O439  1  0.01505685  0.41677978  0.91351871  1
  O  O440  1  0.01410068  0.74937627  0.16343547  1
  O  O441  1  0.01589462  0.75022859  0.41313073  1
  O  O442  1  0.01549920  0.75056509  0.66331098  1
  O  O443  1  0.01451555  0.75030803  0.91653132  1
  O  O444  1  0.51620502  0.08303239  0.16574772  1
  O  O445  1  0.51573325  0.08308417  0.41346573  1
  O  O446  1  0.51405306  0.08361262  0.66317729  1
  O  O447  1  0.51738049  0.08337773  0.91232254  1
  O  O448  1  0.51635055  0.41684751  0.16308804  1
  O  O449  1  0.51578313  0.41679203  0.41199020  1
  O  O450  1  0.51805372  0.41685002  0.66461029  1
  O  O451  1  0.51517529  0.41645309  0.91632944  1
  O  O452  1  0.51655526  0.75000640  0.16553963  1
  O  O453  1  0.51654309  0.75063513  0.41348746  1
  O  O454  1  0.51417680  0.74951910  0.66309206  1
  O  O455  1  0.51763874  0.75010218  0.91263956  1
  O  O456  1  0.48454554  0.24994080  0.08760394  1
  O  O457  1  0.48460350  0.24993874  0.33449874  1
  O  O458  1  0.48339101  0.25039833  0.58417896  1
  O  O459  1  0.48192154  0.25043403  0.83531789  1
  O  O460  1  0.48583088  0.58355777  0.08691766  1
  O  O461  1  0.48480378  0.58342334  0.33438471  1
  O  O462  1  0.48366531  0.58299937  0.58406936  1
  O  O463  1  0.48290782  0.58296598  0.83762147  1
  O  O464  1  0.48482019  0.91675763  0.08385664  1
  O  O465  1  0.48198685  0.91663116  0.33611648  1
  O  O466  1  0.48235888  0.91689477  0.58801566  1
  O  O467  1  0.48613031  0.91663935  0.83582902  1
  O  O468  1  0.98423710  0.24988395  0.08682673  1
  O  O469  1  0.98572075  0.25065636  0.33659565  1
  O  O470  1  0.98284443  0.24939329  0.58472198  1
  O  O471  1  0.98460779  0.24994441  0.83750401  1
  O  O472  1  0.98420840  0.58273706  0.08462264  1
  O  O473  1  0.98313716  0.58358214  0.33710466  1
  O  O474  1  0.98449383  0.58336833  0.58467333  1
  O  O475  1  0.98228653  0.58411793  0.83748160  1
  O  O476  1  0.98254089  0.91724784  0.08583660  1
  O  O477  1  0.98316598  0.91527554  0.33773558  1
  O  O478  1  0.98291550  0.91763005  0.58470865  1
  O  O479  1  0.98090280  0.91582904  0.83539534  1
  O  O480  1  0.08781030  0.31574265  0.07765277  1
  O  O481  1  0.08935423  0.31603479  0.32835618  1
  O  O482  1  0.08690504  0.31431714  0.57752343  1
  O  O483  1  0.08805602  0.31491183  0.82803465  1
  O  O484  1  0.08833877  0.64736829  0.07671039  1
  O  O485  1  0.08643385  0.64929123  0.32783269  1
  O  O486  1  0.08853107  0.64793977  0.57682249  1
  O  O487  1  0.08581109  0.64908550  0.82760356  1
  O  O488  1  0.08647106  0.98177820  0.07786876  1
  O  O489  1  0.08656671  0.98044689  0.32729390  1
  O  O490  1  0.08700608  0.98282089  0.57686391  1
  O  O491  1  0.08474924  0.98104056  0.82678896  1
  O  O492  1  0.58760247  0.31600487  0.07831797  1
  O  O493  1  0.58923894  0.31360389  0.32687778  1
  O  O494  1  0.58700367  0.31641056  0.57756550  1
  O  O495  1  0.58622151  0.31436393  0.82728438  1
  O  O496  1  0.58999459  0.64733817  0.07747575  1
  O  O497  1  0.58818877  0.64996588  0.32740064  1
  O  O498  1  0.58772281  0.64718595  0.57727360  1
  O  O499  1  0.58615843  0.64902683  0.82761665  1
  O  O500  1  0.58893977  0.98142214  0.07703381  1
  O  O501  1  0.58568372  0.98195175  0.32814911  1
  O  O502  1  0.58597478  0.98187312  0.57757239  1
  O  O503  1  0.58978558  0.98185246  0.82713837  1
  O  O504  1  0.41211433  0.01841115  0.17310083  1
  O  O505  1  0.41189630  0.01772894  0.42249646  1
  O  O506  1  0.41084318  0.01746510  0.67230153  1
  O  O507  1  0.41365276  0.01915316  0.92213412  1
  O  O508  1  0.41241027  0.35201410  0.17356149  1
  O  O509  1  0.41229681  0.35154186  0.42216398  1
  O  O510  1  0.41408828  0.35193854  0.67237543  1
  O  O511  1  0.41110748  0.35151753  0.92324239  1
  O  O512  1  0.41255918  0.68503205  0.17351644  1
  O  O513  1  0.41271569  0.68563906  0.42325115  1
  O  O514  1  0.41005305  0.68566818  0.67244012  1
  O  O515  1  0.41436732  0.68411596  0.92234346  1
  O  O516  1  0.91052672  0.01997365  0.17333420  1
  O  O517  1  0.91249613  0.01756286  0.42155639  1
  O  O518  1  0.91313690  0.01853392  0.67242798  1
  O  O519  1  0.91159180  0.01669732  0.92181902  1
  O  O520  1  0.91532155  0.35046961  0.17290862  1
  O  O521  1  0.91330854  0.35267050  0.42332051  1
  O  O522  1  0.91355204  0.35007742  0.67222568  1
  O  O523  1  0.91118310  0.35276922  0.92237423  1
  O  O524  1  0.91032733  0.68463241  0.17276872  1
  O  O525  1  0.91242514  0.68450625  0.42247067  1
  O  O526  1  0.91160905  0.68635023  0.67175253  1
  O  O527  1  0.91060016  0.68509339  0.92291086  1
  O  O528  1  0.16465713  0.01883310  0.20229854  1
  O  O529  1  0.16301335  0.01729443  0.45304693  1
  O  O530  1  0.16327355  0.01793487  0.70125696  1
  O  O531  1  0.16246571  0.01881610  0.95226756  1
  O  O532  1  0.16257856  0.35061802  0.20279885  1
  O  O533  1  0.15959660  0.35181351  0.45316352  1
  O  O534  1  0.16153685  0.35188880  0.70222445  1
  O  O535  1  0.16254375  0.35196540  0.95328097  1
  O  O536  1  0.16370285  0.68523180  0.20275355  1
  O  O537  1  0.16250811  0.68565617  0.45164082  1
  O  O538  1  0.16425537  0.68520792  0.70240326  1
  O  O539  1  0.16282008  0.68377635  0.95285433  1
  O  O540  1  0.66302817  0.01848098  0.20342068  1
  O  O541  1  0.66231318  0.01804461  0.45171455  1
  O  O542  1  0.66349872  0.01770800  0.70251052  1
  O  O543  1  0.66187239  0.01757960  0.95197471  1
  O  O544  1  0.66174326  0.35198335  0.20232375  1
  O  O545  1  0.66434257  0.35157462  0.45266701  1
  O  O546  1  0.66412289  0.35166552  0.70119153  1
  O  O547  1  0.66172555  0.35228465  0.95247249  1
  O  O548  1  0.66409989  0.68414855  0.20384867  1
  O  O549  1  0.66323187  0.68560483  0.45190544  1
  O  O550  1  0.66196630  0.68536375  0.70241167  1
  O  O551  1  0.66226571  0.68491053  0.95166851  1
  O  O552  1  0.33677183  0.31622635  0.04719950  1
  O  O553  1  0.33544845  0.31569432  0.29789224  1
  O  O554  1  0.33483138  0.31485222  0.54771768  1
  O  O555  1  0.33864099  0.31397405  0.79795774  1
  O  O556  1  0.33755784  0.64732509  0.04765183  1
  O  O557  1  0.33760134  0.64799043  0.29739537  1
  O  O558  1  0.33529219  0.64912101  0.54658267  1
  O  O559  1  0.33831281  0.64918905  0.79775683  1
  O  O560  1  0.33756949  0.98165151  0.04714025  1
  O  O561  1  0.33892840  0.98191269  0.29797080  1
  O  O562  1  0.33772670  0.98133961  0.54725337  1
  O  O563  1  0.33874107  0.98189491  0.79626670  1
  O  O564  1  0.83802577  0.31493090  0.04898681  1
  O  O565  1  0.83726846  0.31485916  0.29719877  1
  O  O566  1  0.83912023  0.31564801  0.54767493  1
  O  O567  1  0.83890287  0.31514433  0.79622642  1
  O  O568  1  0.83611236  0.64968051  0.04659251  1
  O  O569  1  0.83703406  0.64856677  0.29802151  1
  O  O570  1  0.83929213  0.64867104  0.54633833  1
  O  O571  1  0.83840248  0.64729832  0.79815631  1
  O  O572  1  0.83582977  0.98049937  0.04711489  1
  O  O573  1  0.83862925  0.98170223  0.29804414  1
  O  O574  1  0.83969888  0.98046101  0.54792347  1
  O  O575  1  0.83745185  0.98275241  0.79736277  1
  O  O576  1  0.41234988  0.14829411  0.17370411  1
  O  O577  1  0.41174068  0.14779229  0.42318451  1
  O  O578  1  0.40985259  0.14754973  0.67230756  1
  O  O579  1  0.41405848  0.14937474  0.92191863  1
  O  O580  1  0.41267803  0.48194112  0.17329966  1
  O  O581  1  0.41212716  0.48162415  0.42209779  1
  O  O582  1  0.41423055  0.48192430  0.67248947  1
  O  O583  1  0.41132855  0.48171689  0.92357642  1
  O  O584  1  0.41254027  0.81495526  0.17315138  1
  O  O585  1  0.41245982  0.81557946  0.42258682  1
  O  O586  1  0.41107323  0.81584953  0.67228461  1
  O  O587  1  0.41384352  0.81428683  0.92217524  1
  O  O588  1  0.91217755  0.15008436  0.17302220  1
  O  O589  1  0.91212097  0.14785754  0.42185784  1
  O  O590  1  0.91360100  0.14853695  0.67271477  1
  O  O591  1  0.91099982  0.14697738  0.92232258  1
  O  O592  1  0.91449016  0.48056232  0.17291668  1
  O  O593  1  0.91370305  0.48270412  0.42299043  1
  O  O594  1  0.91259840  0.48013665  0.67277236  1
  O  O595  1  0.91186863  0.48292697  0.92215007  1
  O  O596  1  0.91046093  0.81471881  0.17293956  1
  O  O597  1  0.91171149  0.81451629  0.42225107  1
  O  O598  1  0.91211355  0.81647687  0.67093159  1
  O  O599  1  0.91033704  0.81521013  0.92268594  1
  O  O600  1  0.08829351  0.18558041  0.07732421  1
  O  O601  1  0.08950214  0.18588404  0.32686818  1
  O  O602  1  0.08679345  0.18422523  0.57731844  1
  O  O603  1  0.08796004  0.18478213  0.82792010  1
  O  O604  1  0.08814269  0.51726485  0.07729843  1
  O  O605  1  0.08699856  0.51902055  0.32850096  1
  O  O606  1  0.08811488  0.51778288  0.57783487  1
  O  O607  1  0.08586969  0.51899022  0.82766694  1
  O  O608  1  0.08585763  0.85149715  0.07756656  1
  O  O609  1  0.08682740  0.85023973  0.32785156  1
  O  O610  1  0.08700435  0.85277797  0.57602455  1
  O  O611  1  0.08484541  0.85109861  0.82676011  1
  O  O612  1  0.58833533  0.18577032  0.07812718  1
  O  O613  1  0.58802677  0.18340668  0.32763940  1
  O  O614  1  0.58738142  0.18610557  0.57732627  1
  O  O615  1  0.58546238  0.18431092  0.82682236  1
  O  O616  1  0.58898300  0.51722836  0.07799861  1
  O  O617  1  0.58936907  0.51978199  0.32699330  1
  O  O618  1  0.58734348  0.51698661  0.57755492  1
  O  O619  1  0.58680910  0.51889357  0.82798892  1
  O  O620  1  0.58860172  0.85143987  0.07697364  1
  O  O621  1  0.58602835  0.85184814  0.32807739  1
  O  O622  1  0.58584621  0.85179551  0.57752640  1
  O  O623  1  0.58989037  0.85161573  0.82713505  1
  O  O624  1  0.33728608  0.18610389  0.04742363  1
  O  O625  1  0.33607891  0.18543693  0.29760441  1
  O  O626  1  0.33535366  0.18474655  0.54694409  1
  O  O627  1  0.33765531  0.18375422  0.79739135  1
  O  O628  1  0.33680545  0.51718904  0.04740251  1
  O  O629  1  0.33725675  0.51762204  0.29735780  1
  O  O630  1  0.33469695  0.51897127  0.54762926  1
  O  O631  1  0.33890349  0.51906596  0.79810228  1
  O  O632  1  0.33762775  0.85146521  0.04727927  1
  O  O633  1  0.33889995  0.85171719  0.29815893  1
  O  O634  1  0.33795529  0.85116380  0.54690691  1
  O  O635  1  0.33870837  0.85162024  0.79650748  1
  O  O636  1  0.83823237  0.18505414  0.04846493  1
  O  O637  1  0.83674432  0.18473549  0.29711201  1
  O  O638  1  0.83939375  0.18567783  0.54812750  1
  O  O639  1  0.83861902  0.18467991  0.79642171  1
  O  O640  1  0.83603245  0.51957563  0.04797991  1
  O  O641  1  0.83777428  0.51865251  0.29808806  1
  O  O642  1  0.83918143  0.51830543  0.54653210  1
  O  O643  1  0.83829974  0.51715845  0.79765836  1
  O  O644  1  0.83558547  0.85038940  0.04648605  1
  O  O645  1  0.83872871  0.85168160  0.29785441  1
  O  O646  1  0.83867810  0.85031985  0.54725321  1
  O  O647  1  0.83785666  0.85272091  0.79741780  1
  O  O648  1  0.16462807  0.14891283  0.20285208  1
  O  O649  1  0.16240743  0.14752159  0.45324103  1
  O  O650  1  0.16335513  0.14782566  0.70148412  1
  O  O651  1  0.16257617  0.14916786  0.95292367  1
  O  O652  1  0.16175293  0.48066085  0.20200147  1
  O  O653  1  0.15997926  0.48210842  0.45298907  1
  O  O654  1  0.16139840  0.48182453  0.70254530  1
  O  O655  1  0.16273121  0.48223349  0.95322657  1
  O  O656  1  0.16381546  0.81529390  0.20272768  1
  O  O657  1  0.16285931  0.81562338  0.45169919  1
  O  O658  1  0.16454949  0.81525554  0.70183520  1
  O  O659  1  0.16260363  0.81406923  0.95232030  1
  O  O660  1  0.66360289  0.14867603  0.20345324  1
  O  O661  1  0.66186227  0.14798578  0.45204714  1
  O  O662  1  0.66353810  0.14786641  0.70201199  1
  O  O663  1  0.66131426  0.14765038  0.95118889  1
  O  O664  1  0.66159703  0.48211993  0.20298098  1
  O  O665  1  0.66455796  0.48151509  0.45256572  1
  O  O666  1  0.66399221  0.48158540  0.70135678  1
  O  O667  1  0.66207336  0.48259341  0.95307524  1
  O  O668  1  0.66333747  0.81433304  0.20332752  1
  O  O669  1  0.66412728  0.81549555  0.45166483  1
  O  O670  1  0.66190960  0.81578185  0.70285408  1
  O  O671  1  0.66246661  0.81487435  0.95168623  1
