# generated using pymatgen
data_Na2MnFe(PO4)2
_symmetry_space_group_name_H-M   'P 1'
_cell_length_a   21.08851659
_cell_length_b   18.94102293
_cell_length_c   20.04734634
_cell_angle_alpha   89.99945962
_cell_angle_beta   89.99679387
_cell_angle_gamma   89.99876702
_symmetry_Int_Tables_number   1
_chemical_formula_structural   Na2MnFe(PO4)2
_chemical_formula_sum   'Na96 Mn48 Fe48 P96 O384'
_cell_volume   8007.67344347
_cell_formula_units_Z   48
loop_
 _symmetry_equiv_pos_site_id
 _symmetry_equiv_pos_as_xyz
  1  'x, y, z'
loop_
 _atom_site_type_symbol
 _atom_site_label
 _atom_site_symmetry_multiplicity
 _atom_site_fract_x
 _atom_site_fract_y
 _atom_site_fract_z
 _atom_site_occupancy
  Na  Na0  1  0.00034431  0.00070124  -0.00149772  1
  Na  Na1  1  -0.00092189  -0.00039846  0.25089179  1
  Na  Na2  1  0.00074134  -0.00021291  0.50074080  1
  Na  Na3  1  -0.00040427  -0.00063317  0.74984207  1
  Na  Na4  1  0.00031643  0.33280059  0.00085355  1
  Na  Na5  1  0.00117973  0.33288345  0.25013977  1
  Na  Na6  1  0.00146041  0.33341818  0.50015135  1
  Na  Na7  1  0.00166626  0.33424311  0.75010179  1
  Na  Na8  1  -0.00278615  0.66633312  -0.00031261  1
  Na  Na9  1  0.00077781  0.66767888  0.24910656  1
  Na  Na10  1  -0.00147840  0.66612240  0.50026086  1
  Na  Na11  1  -0.00348236  0.66592046  0.75044759  1
  Na  Na12  1  0.49995761  0.00002896  -0.00065373  1
  Na  Na13  1  0.49892438  -0.00045902  0.25033102  1
  Na  Na14  1  0.50005199  0.00025355  0.49963653  1
  Na  Na15  1  0.49962483  0.00006828  0.75009156  1
  Na  Na16  1  0.49894997  0.33337768  -0.00038825  1
  Na  Na17  1  0.49795681  0.33293979  0.25117389  1
  Na  Na18  1  0.49777164  0.33260647  0.49987641  1
  Na  Na19  1  0.49752705  0.33232607  0.74915069  1
  Na  Na20  1  0.49906453  0.66658882  -0.00101939  1
  Na  Na21  1  0.49756523  0.66583067  0.25087941  1
  Na  Na22  1  0.49973332  0.66633746  0.50124777  1
  Na  Na23  1  0.50227719  0.66833326  0.74917422  1
  Na  Na24  1  0.25059394  0.00016447  0.12498549  1
  Na  Na25  1  0.24925999  -0.00006291  0.37387798  1
  Na  Na26  1  0.25117644  -0.00037686  0.62554803  1
  Na  Na27  1  0.25264865  0.00031734  0.87556911  1
  Na  Na28  1  0.25208566  0.33355774  0.12469673  1
  Na  Na29  1  0.25051354  0.33349653  0.37590416  1
  Na  Na30  1  0.25145831  0.33352519  0.62526964  1
  Na  Na31  1  0.25088610  0.33331963  0.87397461  1
  Na  Na32  1  0.25123827  0.66619330  0.12557495  1
  Na  Na33  1  0.25226784  0.66762911  0.37466959  1
  Na  Na34  1  0.25180888  0.66740815  0.62461074  1
  Na  Na35  1  0.25351460  0.66806868  0.87501537  1
  Na  Na36  1  0.75087037  0.00013300  0.12494114  1
  Na  Na37  1  0.75079315  0.00032307  0.37599885  1
  Na  Na38  1  0.74971655  0.00056549  0.62476934  1
  Na  Na39  1  0.74772660  -0.00094627  0.87380807  1
  Na  Na40  1  0.75082269  0.33350989  0.12609162  1
  Na  Na41  1  0.74812447  0.33251553  0.37402241  1
  Na  Na42  1  0.74957018  0.33376271  0.62576631  1
  Na  Na43  1  0.74871819  0.33217238  0.87435051  1
  Na  Na44  1  0.75115051  0.66775844  0.12425172  1
  Na  Na45  1  0.74935155  0.66660020  0.37638006  1
  Na  Na46  1  0.74900889  0.66629905  0.62562342  1
  Na  Na47  1  0.74970868  0.66674192  0.87433898  1
  Na  Na48  1  -0.00086779  0.16672786  -0.00020479  1
  Na  Na49  1  0.00196546  0.16580383  0.25029177  1
  Na  Na50  1  0.00044230  0.16643079  0.49990151  1
  Na  Na51  1  -0.00247985  0.16757087  0.75041315  1
  Na  Na52  1  0.00060099  0.49982767  0.00061050  1
  Na  Na53  1  0.00094384  0.49978133  0.24952830  1
  Na  Na54  1  0.00143902  0.49917623  0.50025564  1
  Na  Na55  1  -0.00031577  0.50034998  0.74970318  1
  Na  Na56  1  -0.00178757  0.83393137  -0.00136800  1
  Na  Na57  1  -0.00178857  0.83471801  0.25009169  1
  Na  Na58  1  -0.00043113  0.83440372  0.50128972  1
  Na  Na59  1  -0.00039722  0.83349358  0.75006393  1
  Na  Na60  1  0.49781998  0.16712837  -0.00053275  1
  Na  Na61  1  0.49716552  0.16753603  0.25070205  1
  Na  Na62  1  0.49817037  0.16682299  0.49999983  1
  Na  Na63  1  0.49897887  0.16609785  0.74926629  1
  Na  Na64  1  0.49989538  0.49948805  -0.00089013  1
  Na  Na65  1  0.49714342  0.50055914  0.25129328  1
  Na  Na66  1  0.49988484  0.49975152  0.50104406  1
  Na  Na67  1  0.50157697  0.49926176  0.74878914  1
  Na  Na68  1  0.49969952  0.83342630  -0.00053477  1
  Na  Na69  1  0.49974877  0.83361675  0.25021805  1
  Na  Na70  1  0.50018380  0.83335718  0.49991841  1
  Na  Na71  1  0.49866328  0.83427375  0.75019347  1
  Na  Na72  1  0.24981834  0.16699910  0.12497615  1
  Na  Na73  1  0.24957984  0.16666656  0.37461035  1
  Na  Na74  1  0.25356775  0.16509633  0.62458443  1
  Na  Na75  1  0.25374196  0.16593175  0.87554971  1
  Na  Na76  1  0.25224559  0.49898139  0.12569481  1
  Na  Na77  1  0.25096446  0.49935677  0.37573476  1
  Na  Na78  1  0.25067672  0.49908778  0.62466686  1
  Na  Na79  1  0.24954770  0.50053785  0.87480940  1
  Na  Na80  1  0.25348646  0.83231471  0.12419961  1
  Na  Na81  1  0.24982718  0.83432890  0.37439982  1
  Na  Na82  1  0.25187271  0.83343061  0.62558630  1
  Na  Na83  1  0.25192192  0.83393322  0.87476675  1
  Na  Na84  1  0.75193678  0.16582559  0.12506777  1
  Na  Na85  1  0.75033710  0.16662924  0.37581525  1
  Na  Na86  1  0.74932528  0.16673584  0.62563362  1
  Na  Na87  1  0.74940917  0.16616124  0.87416322  1
  Na  Na88  1  0.74922442  0.49993270  0.12481911  1
  Na  Na89  1  0.74720292  0.50025621  0.37487085  1
  Na  Na90  1  0.74837744  0.50017630  0.62569790  1
  Na  Na91  1  0.74830168  0.50051762  0.87426360  1
  Na  Na92  1  0.75037065  0.83410402  0.12575150  1
  Na  Na93  1  0.75109792  0.83347876  0.37552025  1
  Na  Na94  1  0.75021908  0.83335561  0.62521347  1
  Na  Na95  1  0.75034658  0.83316955  0.87354336  1
  Mn  Mn96  1  0.60738565  0.74992319  0.12250966  1
  Mn  Mn97  1  0.85736650  0.41655913  0.50143937  1
  Mn  Mn98  1  0.89208680  0.25097642  0.87741980  1
  Mn  Mn99  1  0.89310582  0.25013575  0.37756837  1
  Mn  Mn100  1  0.85791610  0.41665064  0.75255935  1
  Mn  Mn101  1  0.14309780  0.24983679  0.99791502  1
  Mn  Mn102  1  0.10820382  0.08384648  0.62379442  1
  Mn  Mn103  1  0.35852109  0.41709267  0.00200386  1
  Mn  Mn104  1  0.64156133  0.91628386  0.74709466  1
  Mn  Mn105  1  0.85721978  0.74950753  0.50286050  1
  Mn  Mn106  1  0.35691661  0.08363215  0.25186735  1
  Mn  Mn107  1  0.14303271  0.24901219  0.49855713  1
  Mn  Mn108  1  0.89221141  0.58309940  0.37719000  1
  Mn  Mn109  1  0.14210079  0.58450171  0.74791142  1
  Mn  Mn110  1  0.85780256  0.41651480  0.25301181  1
  Mn  Mn111  1  0.64301752  0.91701878  0.24813708  1
  Mn  Mn112  1  0.14347096  0.24905092  0.74780666  1
  Mn  Mn113  1  0.39318468  0.58328970  0.87644706  1
  Mn  Mn114  1  0.60722110  0.74939472  0.37304436  1
  Mn  Mn115  1  0.85744712  0.41668662  0.00183302  1
  Mn  Mn116  1  0.89196012  0.91644890  0.87692760  1
  Mn  Mn117  1  0.14143334  0.91671854  0.24672738  1
  Mn  Mn118  1  0.39168130  0.91657302  0.37794678  1
  Mn  Mn119  1  0.85731550  0.08269479  0.00192028  1
  Mn  Mn120  1  0.60757549  0.08361519  0.12305512  1
  Mn  Mn121  1  0.64154121  0.58393822  0.99756008  1
  Mn  Mn122  1  0.14332056  0.58297491  0.24800549  1
  Mn  Mn123  1  0.64169182  0.24924590  0.24770333  1
  Mn  Mn124  1  0.60702574  0.41597374  0.62194689  1
  Mn  Mn125  1  0.39284393  0.58371526  0.62788103  1
  Mn  Mn126  1  0.64082151  0.58367944  0.24764394  1
  Mn  Mn127  1  0.89174169  0.58301194  0.12767374  1
  Mn  Mn128  1  0.10772857  0.74955625  0.62352550  1
  Mn  Mn129  1  0.10760754  0.75103501  0.12179027  1
  Mn  Mn130  1  0.85818387  0.75010871  0.25265122  1
  Mn  Mn131  1  0.64130960  0.25002152  0.74746726  1
  Mn  Mn132  1  0.64147960  0.24929845  0.99831306  1
  Mn  Mn133  1  0.14253999  0.58434600  0.49806736  1
  Mn  Mn134  1  0.10790869  0.74937982  0.87292645  1
  Mn  Mn135  1  0.60656116  0.41641054  0.12311288  1
  Mn  Mn136  1  0.85766953  0.08409423  0.50283137  1
  Mn  Mn137  1  0.10814665  0.74991649  0.37335742  1
  Mn  Mn138  1  0.10850958  0.41630484  0.12265280  1
  Mn  Mn139  1  0.60727854  0.08411689  0.37262149  1
  Mn  Mn140  1  0.14328749  0.91625127  0.99813401  1
  Mn  Mn141  1  0.14282175  0.58398171  0.99772603  1
  Mn  Mn142  1  0.35822900  0.74955188  0.25247288  1
  Mn  Mn143  1  0.10882657  0.08371544  0.87235024  1
  Fe  Fe144  1  0.10775753  0.41715706  0.87340054  1
  Fe  Fe145  1  0.39246481  0.58291104  0.37818992  1
  Fe  Fe146  1  0.60716672  0.75119277  0.62292543  1
  Fe  Fe147  1  0.64160974  0.25017961  0.49836638  1
  Fe  Fe148  1  0.35704152  0.41676764  0.50231659  1
  Fe  Fe149  1  0.14445518  0.91667667  0.74871741  1
  Fe  Fe150  1  0.35776719  0.75074100  0.50219222  1
  Fe  Fe151  1  0.35707077  0.41700927  0.75195812  1
  Fe  Fe152  1  0.89208683  0.25029888  0.62626401  1
  Fe  Fe153  1  0.64216932  0.91653649  0.99853951  1
  Fe  Fe154  1  0.10771800  0.08336169  0.37357242  1
  Fe  Fe155  1  0.10668207  0.08292316  0.12308619  1
  Fe  Fe156  1  0.89331527  0.91693154  0.37759139  1
  Fe  Fe157  1  0.60645615  0.08306810  0.62307674  1
  Fe  Fe158  1  0.64227708  0.58288497  0.49815907  1
  Fe  Fe159  1  0.10860445  0.41635524  0.37322333  1
  Fe  Fe160  1  0.89203870  0.58268275  0.87672357  1
  Fe  Fe161  1  0.14336050  0.25025762  0.24838650  1
  Fe  Fe162  1  0.85851113  0.08362380  0.25201761  1
  Fe  Fe163  1  0.14309479  0.91659677  0.49924633  1
  Fe  Fe164  1  0.39268052  0.24926694  0.62651332  1
  Fe  Fe165  1  0.35826804  0.08287171  0.00273208  1
  Fe  Fe166  1  0.89165929  0.58283701  0.62655972  1
  Fe  Fe167  1  0.39173582  0.25019136  0.37752643  1
  Fe  Fe168  1  0.35842311  0.74992899  0.75170560  1
  Fe  Fe169  1  0.35718875  0.08265381  0.50152833  1
  Fe  Fe170  1  0.85649542  0.08293726  0.75120176  1
  Fe  Fe171  1  0.39271418  0.91710676  0.62613587  1
  Fe  Fe172  1  0.39318973  0.24987415  0.87641845  1
  Fe  Fe173  1  0.89313362  0.24929766  0.12715018  1
  Fe  Fe174  1  0.89264951  0.91695458  0.62689478  1
  Fe  Fe175  1  0.39233538  0.58319317  0.12697413  1
  Fe  Fe176  1  0.60622750  0.08362383  0.87332963  1
  Fe  Fe177  1  0.10745169  0.41676245  0.62403469  1
  Fe  Fe178  1  0.60550237  0.41634041  0.37387513  1
  Fe  Fe179  1  0.39337300  0.91679769  0.12643730  1
  Fe  Fe180  1  0.60716422  0.41633646  0.87324434  1
  Fe  Fe181  1  0.35878548  0.75014537  0.00190234  1
  Fe  Fe182  1  0.35870743  0.08284567  0.75192586  1
  Fe  Fe183  1  0.85649723  0.75025673  0.75139899  1
  Fe  Fe184  1  0.89207116  0.91766132  0.12625329  1
  Fe  Fe185  1  0.64268336  0.91699157  0.49839514  1
  Fe  Fe186  1  0.64305407  0.58356838  0.74850026  1
  Fe  Fe187  1  0.39196337  0.25006074  0.12758435  1
  Fe  Fe188  1  0.35742715  0.41612296  0.25269000  1
  Fe  Fe189  1  0.85637911  0.75048255  0.00104736  1
  Fe  Fe190  1  0.60735693  0.75023842  0.87310425  1
  Fe  Fe191  1  0.39343880  0.91685664  0.87698648  1
  P  P192  1  0.05391317  0.24864679  0.11137533  1
  P  P193  1  0.05521679  0.24972856  0.36003609  1
  P  P194  1  0.05243935  0.25024997  0.61058478  1
  P  P195  1  0.05404957  0.25078587  0.86004900  1
  P  P196  1  0.05355214  0.58370882  0.10974051  1
  P  P197  1  0.05382509  0.58283239  0.35992008  1
  P  P198  1  0.05195588  0.58315752  0.61041362  1
  P  P199  1  0.05206230  0.58302036  0.86014088  1
  P  P200  1  0.05155890  0.91791380  0.10924958  1
  P  P201  1  0.05418447  0.91724184  0.36171801  1
  P  P202  1  0.05451407  0.91674254  0.61156082  1
  P  P203  1  0.05476582  0.91641402  0.85908727  1
  P  P204  1  0.55086937  0.24988137  0.11025726  1
  P  P205  1  0.55244532  0.25081064  0.36149321  1
  P  P206  1  0.55205314  0.24899995  0.60936751  1
  P  P207  1  0.55199639  0.24958192  0.85989925  1
  P  P208  1  0.55100015  0.58320428  0.10990489  1
  P  P209  1  0.55265373  0.58216487  0.36187787  1
  P  P210  1  0.55553012  0.58439181  0.61101765  1
  P  P211  1  0.55435981  0.58355870  0.85898970  1
  P  P212  1  0.55289756  0.91688553  0.10948189  1
  P  P213  1  0.55418607  0.91683480  0.36108373  1
  P  P214  1  0.55257670  0.91689496  0.60964629  1
  P  P215  1  0.55367093  0.91675833  0.86117445  1
  P  P216  1  0.44548617  0.08307010  0.13908082  1
  P  P217  1  0.44524000  0.08403750  0.39055777  1
  P  P218  1  0.44571819  0.08266589  0.63872792  1
  P  P219  1  0.44569500  0.08313724  0.88901053  1
  P  P220  1  0.44536279  0.41660072  0.14093357  1
  P  P221  1  0.44484322  0.41650156  0.39013928  1
  P  P222  1  0.44444146  0.41588975  0.63922894  1
  P  P223  1  0.44679589  0.41625575  0.88799571  1
  P  P224  1  0.44568014  0.75020187  0.13883911  1
  P  P225  1  0.44573791  0.74925310  0.39124595  1
  P  P226  1  0.44623295  0.75134688  0.63923579  1
  P  P227  1  0.44640337  0.75065473  0.88872401  1
  P  P228  1  0.94688407  0.08313356  0.14021950  1
  P  P229  1  0.94714616  0.08284813  0.38946978  1
  P  P230  1  0.94590455  0.08343818  0.64046443  1
  P  P231  1  0.94563183  0.08327150  0.88858875  1
  P  P232  1  0.94670544  0.41555094  0.14020359  1
  P  P233  1  0.94882174  0.41640618  0.39017344  1
  P  P234  1  0.94725698  0.41643901  0.63961107  1
  P  P235  1  0.94803321  0.41751485  0.89021641  1
  P  P236  1  0.94497473  0.75154507  0.13832411  1
  P  P237  1  0.94672960  0.75092523  0.39063379  1
  P  P238  1  0.94543452  0.75013917  0.64058691  1
  P  P239  1  0.94415297  0.74920107  0.88894232  1
  P  P240  1  0.19428783  0.08432069  0.23522198  1
  P  P241  1  0.19747010  0.08219989  0.48498461  1
  P  P242  1  0.19939649  0.08259413  0.73543384  1
  P  P243  1  0.19757119  0.08303701  0.98619553  1
  P  P244  1  0.19738778  0.41555413  0.23630067  1
  P  P245  1  0.19600365  0.41648092  0.48636445  1
  P  P246  1  0.19624104  0.41675838  0.73555437  1
  P  P247  1  0.19693041  0.41656515  0.98413307  1
  P  P248  1  0.19687184  0.75008398  0.23446718  1
  P  P249  1  0.19841141  0.75114957  0.48553670  1
  P  P250  1  0.19869613  0.75097486  0.73537015  1
  P  P251  1  0.19912222  0.75030875  0.98477060  1
  P  P252  1  0.69834113  0.08326858  0.23507815  1
  P  P253  1  0.69473838  0.08361393  0.48660462  1
  P  P254  1  0.69476494  0.08319097  0.73522326  1
  P  P255  1  0.69551658  0.08243000  0.98414268  1
  P  P256  1  0.69472319  0.41641703  0.23612114  1
  P  P257  1  0.69522155  0.41611702  0.48438078  1
  P  P258  1  0.69486505  0.41709121  0.73607082  1
  P  P259  1  0.69552770  0.41621542  0.98425997  1
  P  P260  1  0.69662680  0.75021350  0.23501690  1
  P  P261  1  0.69486519  0.75050013  0.48675968  1
  P  P262  1  0.69536385  0.74950687  0.73550149  1
  P  P263  1  0.69664321  0.75121012  0.98414060  1
  P  P264  1  0.30602027  0.24935079  0.01427861  1
  P  P265  1  0.30400572  0.25051813  0.26489029  1
  P  P266  1  0.30534279  0.24964167  0.51441443  1
  P  P267  1  0.30627437  0.24977811  0.76399681  1
  P  P268  1  0.30468840  0.58403847  0.01540228  1
  P  P269  1  0.30580230  0.58205053  0.26513819  1
  P  P270  1  0.30489692  0.58343214  0.51421836  1
  P  P271  1  0.30371325  0.58325212  0.76467089  1
  P  P272  1  0.30638242  0.91677244  0.01423382  1
  P  P273  1  0.30424829  0.91687113  0.26366972  1
  P  P274  1  0.30294690  0.91709288  0.51549414  1
  P  P275  1  0.30570360  0.91669641  0.76437297  1
  P  P276  1  0.80350643  0.24984674  0.01574920  1
  P  P277  1  0.80481867  0.24879235  0.26443162  1
  P  P278  1  0.80191349  0.25055813  0.51560644  1
  P  P279  1  0.80430776  0.24914018  0.76365316  1
  P  P280  1  0.80385781  0.58397648  0.01352272  1
  P  P281  1  0.80233803  0.58337422  0.26569562  1
  P  P282  1  0.80191934  0.58256843  0.51569209  1
  P  P283  1  0.80405011  0.58394334  0.76418679  1
  P  P284  1  0.80214118  0.91586770  0.01474971  1
  P  P285  1  0.80583923  0.91809338  0.26512818  1
  P  P286  1  0.80391687  0.91699742  0.51485119  1
  P  P287  1  0.80426482  0.91699320  0.76307613  1
  O  O288  1  0.05886775  0.24971881  0.18797706  1
  O  O289  1  0.05793507  0.24965332  0.43681758  1
  O  O290  1  0.05660842  0.24937992  0.68722665  1
  O  O291  1  0.05722985  0.24957377  0.93682214  1
  O  O292  1  0.05750051  0.58392284  0.18647640  1
  O  O293  1  0.05684516  0.58349871  0.43675055  1
  O  O294  1  0.05589070  0.58421122  0.68708265  1
  O  O295  1  0.05618443  0.58409579  0.93677960  1
  O  O296  1  0.05512382  0.91695607  0.18599532  1
  O  O297  1  0.05922186  0.91665921  0.43839489  1
  O  O298  1  0.06026046  0.91667650  0.68813281  1
  O  O299  1  0.05820834  0.91658446  0.93585484  1
  O  O300  1  0.55498393  0.24949822  0.18695762  1
  O  O301  1  0.55742079  0.24992929  0.43810015  1
  O  O302  1  0.55573285  0.24966050  0.68603918  1
  O  O303  1  0.55530328  0.24970140  0.93655099  1
  O  O304  1  0.55441278  0.58353297  0.18665829  1
  O  O305  1  0.55780806  0.58291298  0.43853589  1
  O  O306  1  0.55960397  0.58375615  0.68772472  1
  O  O307  1  0.55630070  0.58357610  0.93584934  1
  O  O308  1  0.55682017  0.91683887  0.18620521  1
  O  O309  1  0.55876546  0.91695730  0.43780027  1
  O  O310  1  0.55577742  0.91681205  0.68639188  1
  O  O311  1  0.55816886  0.91635300  0.93777902  1
  O  O312  1  0.44247136  0.08310198  0.06225411  1
  O  O313  1  0.44205247  0.08333586  0.31380432  1
  O  O314  1  0.44117085  0.08237568  0.56210367  1
  O  O315  1  0.44182753  0.08280989  0.81221234  1
  O  O316  1  0.44346754  0.41663716  0.06407542  1
  O  O317  1  0.44094448  0.41635615  0.31341504  1
  O  O318  1  0.44057481  0.41687690  0.56247284  1
  O  O319  1  0.44210492  0.41711308  0.81136543  1
  O  O320  1  0.44257858  0.74999333  0.06200364  1
  O  O321  1  0.44297067  0.75027896  0.31441368  1
  O  O322  1  0.44131910  0.75053265  0.56259506  1
  O  O323  1  0.44187529  0.75008584  0.81199265  1
  O  O324  1  0.94341274  0.08329586  0.06348120  1
  O  O325  1  0.94273407  0.08346494  0.31283935  1
  O  O326  1  0.94349760  0.08320926  0.56364996  1
  O  O327  1  0.94070484  0.08290799  0.81194795  1
  O  O328  1  0.94329966  0.41611852  0.06346405  1
  O  O329  1  0.94449957  0.41641924  0.31354497  1
  O  O330  1  0.94363723  0.41629546  0.56298225  1
  O  O331  1  0.94417978  0.41697640  0.81350358  1
  O  O332  1  0.94055024  0.75090463  0.06159028  1
  O  O333  1  0.94405248  0.75037628  0.31382041  1
  O  O334  1  0.94286711  0.75032100  0.56380121  1
  O  O335  1  0.93991838  0.75024239  0.81220174  1
  O  O336  1  0.19180554  0.08308435  0.06277419  1
  O  O337  1  0.19050071  0.08322180  0.31201875  1
  O  O338  1  0.19397270  0.08303137  0.56170169  1
  O  O339  1  0.19560281  0.08354167  0.81209171  1
  O  O340  1  0.19396443  0.41634447  0.06099216  1
  O  O341  1  0.19267953  0.41624572  0.31300923  1
  O  O342  1  0.19068996  0.41645089  0.56306066  1
  O  O343  1  0.19127068  0.41702672  0.81222264  1
  O  O344  1  0.19460150  0.75029793  0.06141527  1
  O  O345  1  0.19342730  0.75049967  0.31125629  1
  O  O346  1  0.19428392  0.75028441  0.56219382  1
  O  O347  1  0.19463295  0.75014756  0.81197561  1
  O  O348  1  0.69289963  0.08334182  0.06095542  1
  O  O349  1  0.69380984  0.08365738  0.31176524  1
  O  O350  1  0.69036237  0.08366407  0.56335158  1
  O  O351  1  0.68955815  0.08328530  0.81187343  1
  O  O352  1  0.69257836  0.41614681  0.06108203  1
  O  O353  1  0.68950124  0.41624462  0.31278239  1
  O  O354  1  0.69278522  0.41602275  0.56125964  1
  O  O355  1  0.69038185  0.41585586  0.81277055  1
  O  O356  1  0.69315596  0.75066781  0.06088735  1
  O  O357  1  0.69300326  0.75001777  0.31180290  1
  O  O358  1  0.69127957  0.75082349  0.56356842  1
  O  O359  1  0.69066452  0.75055938  0.81218158  1
  O  O360  1  0.30837687  0.24992338  0.18813388  1
  O  O361  1  0.30816138  0.24991401  0.43754750  1
  O  O362  1  0.30970819  0.24946135  0.68715189  1
  O  O363  1  0.31017476  0.25017063  0.93748112  1
  O  O364  1  0.30953154  0.58281603  0.18833335  1
  O  O365  1  0.30828577  0.58324373  0.43741926  1
  O  O366  1  0.30650785  0.58307070  0.68789727  1
  O  O367  1  0.30788535  0.58331753  0.93862299  1
  O  O368  1  0.30913733  0.91684142  0.18699875  1
  O  O369  1  0.30586822  0.91710150  0.43876198  1
  O  O370  1  0.30980499  0.91685414  0.68765667  1
  O  O371  1  0.31013766  0.91693200  0.93740949  1
  O  O372  1  0.80951884  0.24938239  0.18773016  1
  O  O373  1  0.80645278  0.25038482  0.43892455  1
  O  O374  1  0.80871076  0.25036304  0.68693611  1
  O  O375  1  0.80643224  0.24990336  0.93888327  1
  O  O376  1  0.80591342  0.58317400  0.18888439  1
  O  O377  1  0.80620601  0.58259808  0.43903555  1
  O  O378  1  0.80862847  0.58274668  0.68746823  1
  O  O379  1  0.80778302  0.58272096  0.93675315  1
  O  O380  1  0.80941306  0.91761656  0.18830610  1
  O  O381  1  0.80898422  0.91709442  0.43817928  1
  O  O382  1  0.80837112  0.91717563  0.68636265  1
  O  O383  1  0.80574847  0.91678439  0.93802574  1
  O  O384  1  0.23599720  0.24997499  0.03846800  1
  O  O385  1  0.23380928  0.24999556  0.28887805  1
  O  O386  1  0.23555176  0.24934594  0.53960681  1
  O  O387  1  0.23637630  0.24964612  0.78870057  1
  O  O388  1  0.23504821  0.58288615  0.04066223  1
  O  O389  1  0.23587735  0.58327375  0.28958551  1
  O  O390  1  0.23510403  0.58328596  0.53923372  1
  O  O391  1  0.23422325  0.58420029  0.79029554  1
  O  O392  1  0.23643732  0.91645634  0.03878272  1
  O  O393  1  0.23412259  0.91722393  0.28728918  1
  O  O394  1  0.23304656  0.91676170  0.54065978  1
  O  O395  1  0.23545645  0.91695852  0.78862911  1
  O  O396  1  0.73377993  0.24963197  0.04085547  1
  O  O397  1  0.73469509  0.24908268  0.28833040  1
  O  O398  1  0.73167448  0.25030538  0.53957543  1
  O  O399  1  0.73420113  0.24917549  0.78761672  1
  O  O400  1  0.73392033  0.58403370  0.03818211  1
  O  O401  1  0.73259587  0.58359316  0.29049304  1
  O  O402  1  0.73166173  0.58298297  0.53955393  1
  O  O403  1  0.73360165  0.58361306  0.78765782  1
  O  O404  1  0.73210590  0.91684831  0.03943679  1
  O  O405  1  0.73587827  0.91711607  0.28964314  1
  O  O406  1  0.73344015  0.91708918  0.53822750  1
  O  O407  1  0.73418748  0.91643694  0.78719171  1
  O  O408  1  0.26435159  0.08355638  0.21117174  1
  O  O409  1  0.26750615  0.08295434  0.46029231  1
  O  O410  1  0.26952209  0.08253574  0.71110252  1
  O  O411  1  0.26812817  0.08295178  0.96321398  1
  O  O412  1  0.26765926  0.41575928  0.21246010  1
  O  O413  1  0.26663722  0.41645505  0.46354212  1
  O  O414  1  0.26672895  0.41631901  0.71229286  1
  O  O415  1  0.26674936  0.41683757  0.95935024  1
  O  O416  1  0.26675679  0.74976039  0.21007274  1
  O  O417  1  0.26848552  0.75127213  0.46105910  1
  O  O418  1  0.26888493  0.75042003  0.71110654  1
  O  O419  1  0.26934817  0.75093120  0.96087289  1
  O  O420  1  0.76837735  0.08315993  0.21088709  1
  O  O421  1  0.76483368  0.08363566  0.46250571  1
  O  O422  1  0.76521151  0.08326428  0.71198522  1
  O  O423  1  0.76515066  0.08259082  0.95879114  1
  O  O424  1  0.76488323  0.41651647  0.21255750  1
  O  O425  1  0.76479261  0.41629953  0.45875815  1
  O  O426  1  0.76495196  0.41709052  0.71213776  1
  O  O427  1  0.76516824  0.41622957  0.95894047  1
  O  O428  1  0.76635361  0.75060404  0.21033539  1
  O  O429  1  0.76475409  0.75009333  0.46206472  1
  O  O430  1  0.76580776  0.75008980  0.71205758  1
  O  O431  1  0.76657948  0.75037633  0.95930753  1
  O  O432  1  0.01684348  0.08286275  0.16507773  1
  O  O433  1  0.01741567  0.08340538  0.41355637  1
  O  O434  1  0.01558160  0.08343007  0.66593978  1
  O  O435  1  0.01577991  0.08347028  0.91232916  1
  O  O436  1  0.01657259  0.41600527  0.16490297  1
  O  O437  1  0.01897314  0.41602598  0.41428078  1
  O  O438  1  0.01733608  0.41693638  0.66439984  1
  O  O439  1  0.01796469  0.41690964  0.91501184  1
  O  O440  1  0.01491182  0.75120027  0.16279713  1
  O  O441  1  0.01621790  0.75053323  0.41636054  1
  O  O442  1  0.01512580  0.74995816  0.66602064  1
  O  O443  1  0.01425473  0.75007778  0.91302049  1
  O  O444  1  0.51504782  0.08333558  0.16473450  1
  O  O445  1  0.51503437  0.08382917  0.41520416  1
  O  O446  1  0.51611087  0.08292590  0.66263046  1
  O  O447  1  0.51598627  0.08331649  0.91306900  1
  O  O448  1  0.51474672  0.41650226  0.16703562  1
  O  O449  1  0.51498276  0.41625210  0.41456071  1
  O  O450  1  0.51462608  0.41612863  0.66301762  1
  O  O451  1  0.51697960  0.41660112  0.91217423  1
  O  O452  1  0.51528880  0.75015136  0.16437406  1
  O  O453  1  0.51542602  0.74944056  0.41619844  1
  O  O454  1  0.51669470  0.75121030  0.66262350  1
  O  O455  1  0.51682138  0.74994262  0.91229169  1
  O  O456  1  0.48083652  0.25014733  0.08590996  1
  O  O457  1  0.48197624  0.25033567  0.33817633  1
  O  O458  1  0.48179881  0.24943001  0.58540427  1
  O  O459  1  0.48203972  0.24915542  0.83489117  1
  O  O460  1  0.48115862  0.58302755  0.08490759  1
  O  O461  1  0.48224044  0.58287491  0.33854354  1
  O  O462  1  0.48531762  0.58341576  0.58730190  1
  O  O463  1  0.48488447  0.58378533  0.83307199  1
  O  O464  1  0.48283607  0.91683638  0.08515414  1
  O  O465  1  0.48408673  0.91681529  0.33731388  1
  O  O466  1  0.48248117  0.91682492  0.58504684  1
  O  O467  1  0.48335788  0.91712104  0.83719030  1
  O  O468  1  0.98359459  0.24901731  0.08756781  1
  O  O469  1  0.98548740  0.24961307  0.33490683  1
  O  O470  1  0.98240423  0.24982768  0.58588610  1
  O  O471  1  0.98432800  0.25076283  0.83509441  1
  O  O472  1  0.98365273  0.58319721  0.08541977  1
  O  O473  1  0.98426877  0.58326083  0.33443005  1
  O  O474  1  0.98181910  0.58298156  0.58599260  1
  O  O475  1  0.98198133  0.58312659  0.83571227  1
  O  O476  1  0.98165788  0.91799236  0.08429473  1
  O  O477  1  0.98385708  0.91704914  0.33804439  1
  O  O478  1  0.98377954  0.91697774  0.58895504  1
  O  O479  1  0.98473461  0.91629636  0.83500122  1
  O  O480  1  0.08758706  0.31339711  0.07777856  1
  O  O481  1  0.08949063  0.31478306  0.32759324  1
  O  O482  1  0.08629961  0.31535509  0.57820773  1
  O  O483  1  0.08812938  0.31605471  0.82820318  1
  O  O484  1  0.08697546  0.64883314  0.07663324  1
  O  O485  1  0.08814952  0.64786868  0.32765493  1
  O  O486  1  0.08562424  0.64825393  0.57735435  1
  O  O487  1  0.08570801  0.64804063  0.82685474  1
  O  O488  1  0.08580131  0.98304101  0.07718477  1
  O  O489  1  0.08728260  0.98247349  0.32852730  1
  O  O490  1  0.08769488  0.98170185  0.57786273  1
  O  O491  1  0.08884215  0.98136504  0.82634739  1
  O  O492  1  0.58465242  0.31486530  0.07755667  1
  O  O493  1  0.58532686  0.31608382  0.32836609  1
  O  O494  1  0.58587379  0.31391543  0.57626987  1
  O  O495  1  0.58563067  0.31465620  0.82699621  1
  O  O496  1  0.58499979  0.64817047  0.07715853  1
  O  O497  1  0.58596345  0.64700491  0.32805496  1
  O  O498  1  0.58840110  0.64977530  0.57809706  1
  O  O499  1  0.58895824  0.64866863  0.82715466  1
  O  O500  1  0.58672854  0.98186977  0.07666880  1
  O  O501  1  0.58749798  0.98193756  0.32783028  1
  O  O502  1  0.58655206  0.98189682  0.57705638  1
  O  O503  1  0.58697691  0.98182071  0.82793072  1
  O  O504  1  0.41169221  0.01783354  0.17153519  1
  O  O505  1  0.41108710  0.01914949  0.42347722  1
  O  O506  1  0.41267768  0.01756973  0.67235010  1
  O  O507  1  0.41237429  0.01811475  0.92232397  1
  O  O508  1  0.41078123  0.35151956  0.17303795  1
  O  O509  1  0.41092359  0.35156212  0.42303539  1
  O  O510  1  0.41101601  0.35063797  0.67171790  1
  O  O511  1  0.41351939  0.35110319  0.92099486  1
  O  O512  1  0.41175563  0.68505464  0.17137791  1
  O  O513  1  0.41154103  0.68425546  0.42342196  1
  O  O514  1  0.41306304  0.68635678  0.67305367  1
  O  O515  1  0.41262757  0.68589790  0.92211129  1
  O  O516  1  0.91272716  0.01809420  0.17270118  1
  O  O517  1  0.91384886  0.01777758  0.42265969  1
  O  O518  1  0.91145950  0.01842770  0.67274911  1
  O  O519  1  0.91242204  0.01813970  0.92199596  1
  O  O520  1  0.91309120  0.35026559  0.17261654  1
  O  O521  1  0.91495787  0.35144190  0.42305676  1
  O  O522  1  0.91374582  0.35125132  0.67252278  1
  O  O523  1  0.91388404  0.35259652  0.92290064  1
  O  O524  1  0.91129899  0.68659754  0.17169939  1
  O  O525  1  0.91214088  0.68591176  0.42274601  1
  O  O526  1  0.91089893  0.68502329  0.67246435  1
  O  O527  1  0.91080800  0.68385347  0.92154333  1
  O  O528  1  0.16014563  0.01980809  0.20160687  1
  O  O529  1  0.16374457  0.01696172  0.45259702  1
  O  O530  1  0.16545103  0.01757491  0.70305947  1
  O  O531  1  0.16455725  0.01805606  0.95253616  1
  O  O532  1  0.16420679  0.35035925  0.20312798  1
  O  O533  1  0.16311479  0.35133403  0.45285226  1
  O  O534  1  0.16287680  0.35174845  0.70211018  1
  O  O535  1  0.16300979  0.35151098  0.95163366  1
  O  O536  1  0.16301868  0.68495384  0.20217381  1
  O  O537  1  0.16492580  0.68602699  0.45245619  1
  O  O538  1  0.16470785  0.68618630  0.70213032  1
  O  O539  1  0.16589532  0.68505327  0.95170235  1
  O  O540  1  0.66458712  0.01818381  0.20239947  1
  O  O541  1  0.66147548  0.01833246  0.45363690  1
  O  O542  1  0.66150409  0.01815661  0.70173097  1
  O  O543  1  0.66119652  0.01728233  0.95219880  1
  O  O544  1  0.66156417  0.35123847  0.20274036  1
  O  O545  1  0.66081485  0.35100297  0.45228237  1
  O  O546  1  0.66140727  0.35221597  0.70239869  1
  O  O547  1  0.66112112  0.35122747  0.95186416  1
  O  O548  1  0.66274376  0.68518278  0.20224421  1
  O  O549  1  0.66112391  0.68522163  0.45421172  1
  O  O550  1  0.66223096  0.68433853  0.70256970  1
  O  O551  1  0.66215967  0.68642273  0.95141545  1
  O  O552  1  0.33982002  0.31424955  0.04747791  1
  O  O553  1  0.33751984  0.31548374  0.29810780  1
  O  O554  1  0.33916806  0.31462552  0.54723725  1
  O  O555  1  0.33991353  0.31507187  0.79666260  1
  O  O556  1  0.33834383  0.64949194  0.04751514  1
  O  O557  1  0.34035176  0.64661551  0.29814695  1
  O  O558  1  0.33865568  0.64863871  0.54680011  1
  O  O559  1  0.33869213  0.64808988  0.79644406  1
  O  O560  1  0.33989945  0.98189203  0.04732638  1
  O  O561  1  0.33765512  0.98181074  0.29700848  1
  O  O562  1  0.33684697  0.98231503  0.54800640  1
  O  O563  1  0.33943677  0.98160283  0.79764580  1
  O  O564  1  0.83778703  0.31477468  0.04810491  1
  O  O565  1  0.83821852  0.31375592  0.29799202  1
  O  O566  1  0.83564494  0.31563533  0.54843682  1
  O  O567  1  0.83758221  0.31419299  0.79723019  1
  O  O568  1  0.83745034  0.64942914  0.04567454  1
  O  O569  1  0.83642215  0.64847074  0.29805550  1
  O  O570  1  0.83592917  0.64736530  0.54871481  1
  O  O571  1  0.83709605  0.64927593  0.79696261  1
  O  O572  1  0.83668951  0.98048502  0.04776761  1
  O  O573  1  0.83919573  0.98344414  0.29793702  1
  O  O574  1  0.83737817  0.98191896  0.54823384  1
  O  O575  1  0.83728821  0.98220929  0.79639039  1
  O  O576  1  0.41118347  0.14809101  0.17150373  1
  O  O577  1  0.41105784  0.14902402  0.42286829  1
  O  O578  1  0.41225389  0.14770428  0.67194796  1
  O  O579  1  0.41200295  0.14815987  0.92183723  1
  O  O580  1  0.41090418  0.48166385  0.17294076  1
  O  O581  1  0.41141272  0.48157699  0.42336937  1
  O  O582  1  0.41088850  0.48073626  0.67281942  1
  O  O583  1  0.41341793  0.48114618  0.92157395  1
  O  O584  1  0.41193749  0.81550683  0.17130171  1
  O  O585  1  0.41148840  0.81425424  0.42385890  1
  O  O586  1  0.41294026  0.81643774  0.67224718  1
  O  O587  1  0.41336974  0.81584422  0.92188714  1
  O  O588  1  0.91308771  0.14812801  0.17326677  1
  O  O589  1  0.91347214  0.14776340  0.42281785  1
  O  O590  1  0.91140457  0.14855003  0.67231847  1
  O  O591  1  0.91210812  0.14820361  0.92180398  1
  O  O592  1  0.91260320  0.48055694  0.17286569  1
  O  O593  1  0.91512803  0.48144664  0.42304882  1
  O  O594  1  0.91312931  0.48142202  0.67225411  1
  O  O595  1  0.91416681  0.48268029  0.92260718  1
  O  O596  1  0.91171020  0.81701599  0.17093296  1
  O  O597  1  0.91257570  0.81609464  0.42270982  1
  O  O598  1  0.91115764  0.81524237  0.67285475  1
  O  O599  1  0.91001655  0.81389610  0.92230583  1
  O  O600  1  0.08691337  0.18326987  0.07822578  1
  O  O601  1  0.08946400  0.18465555  0.32781190  1
  O  O602  1  0.08648209  0.18528483  0.57769174  1
  O  O603  1  0.08815200  0.18588466  0.82704285  1
  O  O604  1  0.08771456  0.51856777  0.07756709  1
  O  O605  1  0.08798606  0.51747798  0.32805233  1
  O  O606  1  0.08615355  0.51817433  0.57822676  1
  O  O607  1  0.08592099  0.51787794  0.82773603  1
  O  O608  1  0.08557119  0.85300765  0.07628709  1
  O  O609  1  0.08735485  0.85233029  0.32786298  1
  O  O610  1  0.08735227  0.85165593  0.57773445  1
  O  O611  1  0.08880124  0.85135383  0.82655400  1
  O  O612  1  0.58451325  0.18487808  0.07727080  1
  O  O613  1  0.58576194  0.18600957  0.32750645  1
  O  O614  1  0.58567893  0.18396717  0.57668465  1
  O  O615  1  0.58587059  0.18448435  0.82728004  1
  O  O616  1  0.58509231  0.51822315  0.07754579  1
  O  O617  1  0.58520580  0.51674718  0.32863770  1
  O  O618  1  0.58929416  0.51957727  0.57760815  1
  O  O619  1  0.58876917  0.51848917  0.82697480  1
  O  O620  1  0.58677755  0.85196890  0.07643484  1
  O  O621  1  0.58752374  0.85170733  0.32803936  1
  O  O622  1  0.58679234  0.85198383  0.57710957  1
  O  O623  1  0.58671628  0.85169343  0.82752516  1
  O  O624  1  0.33929614  0.18408333  0.04719893  1
  O  O625  1  0.33774205  0.18562719  0.29812766  1
  O  O626  1  0.33943005  0.18447548  0.54671152  1
  O  O627  1  0.34022930  0.18481395  0.79685179  1
  O  O628  1  0.33942791  0.51930233  0.04793309  1
  O  O629  1  0.33880062  0.51656263  0.29793209  1
  O  O630  1  0.33878375  0.51843200  0.54696652  1
  O  O631  1  0.33734866  0.51786622  0.79709343  1
  O  O632  1  0.34043035  0.85177296  0.04681758  1
  O  O633  1  0.33751588  0.85184256  0.29709335  1
  O  O634  1  0.33753435  0.85242300  0.54815004  1
  O  O635  1  0.33915417  0.85152789  0.79739817  1
  O  O636  1  0.83790722  0.18473489  0.04781895  1
  O  O637  1  0.83816268  0.18354608  0.29743379  1
  O  O638  1  0.83599160  0.18573983  0.54856589  1
  O  O639  1  0.83767955  0.18382553  0.79619100  1
  O  O640  1  0.83733671  0.51905647  0.04698782  1
  O  O641  1  0.83627488  0.51832614  0.29837496  1
  O  O642  1  0.83538443  0.51740622  0.54863041  1
  O  O643  1  0.83756490  0.51920127  0.79808307  1
  O  O644  1  0.83563508  0.85054750  0.04713740  1
  O  O645  1  0.84011943  0.85337777  0.29823719  1
  O  O646  1  0.83725537  0.85203567  0.54823897  1
  O  O647  1  0.83785027  0.85191062  0.79597043  1
  O  O648  1  0.16135980  0.14991840  0.20266225  1
  O  O649  1  0.16315809  0.14698711  0.45213178  1
  O  O650  1  0.16586336  0.14756942  0.70209253  1
  O  O651  1  0.16477810  0.14814401  0.95239437  1
  O  O652  1  0.16413374  0.48051062  0.20276006  1
  O  O653  1  0.16293472  0.48140424  0.45264317  1
  O  O654  1  0.16311703  0.48184874  0.70202326  1
  O  O655  1  0.16256260  0.48150890  0.95178173  1
  O  O656  1  0.16321890  0.81517062  0.20155243  1
  O  O657  1  0.16449549  0.81623161  0.45313073  1
  O  O658  1  0.16535766  0.81627880  0.70275954  1
  O  O659  1  0.16511911  0.81508811  0.95192325  1
  O  O660  1  0.66437322  0.14807629  0.20193221  1
  O  O661  1  0.66143261  0.14884362  0.45345502  1
  O  O662  1  0.66122675  0.14797840  0.70165619  1
  O  O663  1  0.66108829  0.14738828  0.95154804  1
  O  O664  1  0.66138351  0.48150697  0.20282522  1
  O  O665  1  0.66058816  0.48118824  0.45246861  1
  O  O666  1  0.66138910  0.48227855  0.70347033  1
  O  O667  1  0.66112450  0.48125684  0.95205275  1
  O  O668  1  0.66261296  0.81528982  0.20258591  1
  O  O669  1  0.66157845  0.81575943  0.45383877  1
  O  O670  1  0.66172475  0.81425022  0.70170334  1
  O  O671  1  0.66295330  0.81644179  0.95154255  1
