# generated using pymatgen
data_Na2MnFe(PO4)2
_symmetry_space_group_name_H-M   'P 1'
_cell_length_a   21.08218589
_cell_length_b   18.93365816
_cell_length_c   20.04122930
_cell_angle_alpha   90.00011333
_cell_angle_beta   90.00360667
_cell_angle_gamma   90.00190405
_symmetry_Int_Tables_number   1
_chemical_formula_structural   Na2MnFe(PO4)2
_chemical_formula_sum   'Na96 Mn48 Fe48 P96 O384'
_cell_volume   7999.71520813
_cell_formula_units_Z   48
loop_
 _symmetry_equiv_pos_site_id
 _symmetry_equiv_pos_as_xyz
  1  'x, y, z'
loop_
 _atom_site_type_symbol
 _atom_site_label
 _atom_site_symmetry_multiplicity
 _atom_site_fract_x
 _atom_site_fract_y
 _atom_site_fract_z
 _atom_site_occupancy
  Na  Na0  1  0.00017704  0.00072715  0.00027639  1
  Na  Na1  1  -0.00178399  -0.00002922  0.24980707  1
  Na  Na2  1  -0.00078016  0.00023082  0.49997373  1
  Na  Na3  1  0.00022110  -0.00022373  0.75050553  1
  Na  Na4  1  -0.00236793  0.33300642  -0.00068832  1
  Na  Na5  1  -0.00204088  0.33237240  0.25050242  1
  Na  Na6  1  0.00032410  0.33291562  0.50095331  1
  Na  Na7  1  -0.00054220  0.33318562  0.74910995  1
  Na  Na8  1  -0.00048041  0.66720056  0.00075185  1
  Na  Na9  1  0.00049025  0.66676575  0.25030674  1
  Na  Na10  1  0.00217220  0.66795502  0.49859649  1
  Na  Na11  1  -0.00112609  0.66657355  0.74992153  1
  Na  Na12  1  0.50197423  0.00073402  -0.00030910  1
  Na  Na13  1  0.50128829  0.00034636  0.24992704  1
  Na  Na14  1  0.49820283  -0.00126781  0.50101753  1
  Na  Na15  1  0.50085062  0.00074366  0.74941107  1
  Na  Na16  1  0.49955080  0.33324159  -0.00105952  1
  Na  Na17  1  0.49977633  0.33367115  0.24958412  1
  Na  Na18  1  0.50028964  0.33407330  0.50035673  1
  Na  Na19  1  0.49959397  0.33304616  0.75088668  1
  Na  Na20  1  0.50139448  0.66666172  -0.00042254  1
  Na  Na21  1  0.50147806  0.66694427  0.24891663  1
  Na  Na22  1  0.49970770  0.66661850  0.50027328  1
  Na  Na23  1  0.49813344  0.66600594  0.75136403  1
  Na  Na24  1  0.24961218  -0.00023246  0.12619875  1
  Na  Na25  1  0.25129010  0.00015039  0.37580676  1
  Na  Na26  1  0.25210620  0.00087585  0.62388234  1
  Na  Na27  1  0.25093081  0.00013405  0.87402926  1
  Na  Na28  1  0.25343533  0.33459730  0.12501455  1
  Na  Na29  1  0.25016276  0.33298249  0.37411109  1
  Na  Na30  1  0.24920627  0.33279010  0.62486144  1
  Na  Na31  1  0.25066708  0.33277619  0.87551910  1
  Na  Na32  1  0.24844881  0.66643832  0.12447872  1
  Na  Na33  1  0.24856324  0.66586372  0.37584969  1
  Na  Na34  1  0.24934442  0.66697716  0.62480162  1
  Na  Na35  1  0.24855980  0.66691936  0.87487097  1
  Na  Na36  1  0.74901697  -0.00006292  0.12436406  1
  Na  Na37  1  0.75032550  0.00017102  0.37602271  1
  Na  Na38  1  0.74862490  -0.00032556  0.62550523  1
  Na  Na39  1  0.74786339  -0.00035405  0.87461836  1
  Na  Na40  1  0.74975277  0.33307453  0.12477190  1
  Na  Na41  1  0.75021865  0.33283678  0.37401816  1
  Na  Na42  1  0.75239847  0.33410264  0.62504392  1
  Na  Na43  1  0.75116827  0.33358340  0.87617153  1
  Na  Na44  1  0.75141318  0.66713161  0.12559053  1
  Na  Na45  1  0.74816240  0.66615898  0.37470851  1
  Na  Na46  1  0.75108505  0.66717870  0.62458303  1
  Na  Na47  1  0.75248408  0.66677116  0.87486434  1
  Na  Na48  1  -0.00225537  0.16790906  -0.00008691  1
  Na  Na49  1  -0.00097068  0.16633203  0.25129748  1
  Na  Na50  1  0.00124615  0.16592567  0.50007048  1
  Na  Na51  1  0.00116145  0.16632494  0.74896724  1
  Na  Na52  1  -0.00392665  0.50135610  0.00035309  1
  Na  Na53  1  -0.00018185  0.49982900  0.25008253  1
  Na  Na54  1  0.00043764  0.50013934  0.49995837  1
  Na  Na55  1  -0.00206366  0.50017928  0.74965360  1
  Na  Na56  1  0.00095020  0.83257033  -0.00035789  1
  Na  Na57  1  -0.00111419  0.83349952  0.24950951  1
  Na  Na58  1  -0.00150197  0.83388525  0.49908492  1
  Na  Na59  1  0.00041780  0.83298384  0.75122536  1
  Na  Na60  1  0.50158738  0.16606147  -0.00118743  1
  Na  Na61  1  0.49996043  0.16673176  0.24957303  1
  Na  Na62  1  0.49955374  0.16649185  0.50135527  1
  Na  Na63  1  0.50173911  0.16565809  0.74987053  1
  Na  Na64  1  0.50146898  0.49935596  -0.00046932  1
  Na  Na65  1  0.50104538  0.49985406  0.24858259  1
  Na  Na66  1  0.49710748  0.50133022  0.49978531  1
  Na  Na67  1  0.49775469  0.50076685  0.75154360  1
  Na  Na68  1  0.50002520  0.83387617  0.00022565  1
  Na  Na69  1  0.50084554  0.83367944  0.25001584  1
  Na  Na70  1  0.50081556  0.83350509  0.50065364  1
  Na  Na71  1  0.49881196  0.83414672  0.75006331  1
  Na  Na72  1  0.25224917  0.16574834  0.12622131  1
  Na  Na73  1  0.24905085  0.16651017  0.37381648  1
  Na  Na74  1  0.24745253  0.16676482  0.62432718  1
  Na  Na75  1  0.25067563  0.16587903  0.87528585  1
  Na  Na76  1  0.25105568  0.50033925  0.12510366  1
  Na  Na77  1  0.25133656  0.50006879  0.37550605  1
  Na  Na78  1  0.25057599  0.50038499  0.62498034  1
  Na  Na79  1  0.25258392  0.49881137  0.87436583  1
  Na  Na80  1  0.24758458  0.83362825  0.12466189  1
  Na  Na81  1  0.25151593  0.83223181  0.37608023  1
  Na  Na82  1  0.25132994  0.83318085  0.62486691  1
  Na  Na83  1  0.24791793  0.83392994  0.87449004  1
  Na  Na84  1  0.74956101  0.16659920  0.12427846  1
  Na  Na85  1  0.75096272  0.16514006  0.37509580  1
  Na  Na86  1  0.74796309  0.16712943  0.62598074  1
  Na  Na87  1  0.74818564  0.16728882  0.87549536  1
  Na  Na88  1  0.74903902  0.50082141  0.12451877  1
  Na  Na89  1  0.74978184  0.49989939  0.37391428  1
  Na  Na90  1  0.75228278  0.49944888  0.62554121  1
  Na  Na91  1  0.75293186  0.49902090  0.87588182  1
  Na  Na92  1  0.75078119  0.83306852  0.12599604  1
  Na  Na93  1  0.74964921  0.83387832  0.37559889  1
  Na  Na94  1  0.75033183  0.83381840  0.62414736  1
  Na  Na95  1  0.75157180  0.83294860  0.87430559  1
  Mn  Mn96  1  0.35773616  0.41579121  0.50258683  1
  Mn  Mn97  1  0.64242318  0.91581500  0.99734180  1
  Mn  Mn98  1  0.89223666  0.91705850  0.87721944  1
  Mn  Mn99  1  0.85697525  0.41669188  0.25213413  1
  Mn  Mn100  1  0.39204223  0.24976238  0.37767303  1
  Mn  Mn101  1  0.14246493  0.24968116  0.99844756  1
  Mn  Mn102  1  0.89262055  0.58452112  0.62641812  1
  Mn  Mn103  1  0.85734398  0.74990575  0.50224505  1
  Mn  Mn104  1  0.60907913  0.74983494  0.12217826  1
  Mn  Mn105  1  0.60773405  0.41746901  0.37299260  1
  Mn  Mn106  1  0.35843258  0.75012908  0.50241222  1
  Mn  Mn107  1  0.89210707  0.24945345  0.37784057  1
  Mn  Mn108  1  0.10815438  0.41621412  0.37247022  1
  Mn  Mn109  1  0.14245551  0.91738655  0.74688706  1
  Mn  Mn110  1  0.10745891  0.41651772  0.12255169  1
  Mn  Mn111  1  0.60828805  0.41640672  0.87248571  1
  Mn  Mn112  1  0.60747598  0.74970809  0.62376531  1
  Mn  Mn113  1  0.35666826  0.75032869  0.00230826  1
  Mn  Mn114  1  0.60795645  0.41701123  0.62346152  1
  Mn  Mn115  1  0.14183808  0.91589890  0.24844595  1
  Mn  Mn116  1  0.14197891  0.58270982  0.74798153  1
  Mn  Mn117  1  0.35783071  0.74926957  0.25192534  1
  Mn  Mn118  1  0.39232378  0.91680102  0.87716021  1
  Mn  Mn119  1  0.14139788  0.58281589  0.99749960  1
  Mn  Mn120  1  0.60773997  0.08308027  0.37330072  1
  Mn  Mn121  1  0.60887223  0.75048379  0.87229061  1
  Mn  Mn122  1  0.39222171  0.91687102  0.12726862  1
  Mn  Mn123  1  0.14238167  0.91680061  0.49773406  1
  Mn  Mn124  1  0.64249682  0.25006125  0.49790501  1
  Mn  Mn125  1  0.39168271  0.24980794  0.62801443  1
  Mn  Mn126  1  0.10790309  0.41698278  0.62282002  1
  Mn  Mn127  1  0.89206771  0.91710094  0.12748352  1
  Mn  Mn128  1  0.39209964  0.58375891  0.87773255  1
  Mn  Mn129  1  0.10838027  0.08389462  0.87314730  1
  Mn  Mn130  1  0.39302470  0.58320453  0.12694680  1
  Mn  Mn131  1  0.35855187  0.08299451  0.25261951  1
  Mn  Mn132  1  0.89279259  0.24902481  0.62734344  1
  Mn  Mn133  1  0.64133643  0.58319819  0.49814749  1
  Mn  Mn134  1  0.85684171  0.08329485  0.00195172  1
  Mn  Mn135  1  0.10708560  0.41697219  0.87330909  1
  Mn  Mn136  1  0.10765349  0.75119122  0.37228994  1
  Mn  Mn137  1  0.39229385  0.24947408  0.87685648  1
  Mn  Mn138  1  0.64197592  0.24953276  0.24718338  1
  Mn  Mn139  1  0.10734213  0.08355394  0.12273352  1
  Mn  Mn140  1  0.14249511  0.25101005  0.24680853  1
  Mn  Mn141  1  0.89203820  0.58331979  0.37712967  1
  Mn  Mn142  1  0.64333174  0.58319139  0.74753654  1
  Mn  Mn143  1  0.85711651  0.08373240  0.75202413  1
  Fe  Fe144  1  0.89206137  0.24995835  0.87622726  1
  Fe  Fe145  1  0.60724131  0.08317935  0.87265919  1
  Fe  Fe146  1  0.39376023  0.24982612  0.12559152  1
  Fe  Fe147  1  0.35683095  0.08369555  0.50163301  1
  Fe  Fe148  1  0.89227081  0.58323139  0.87699528  1
  Fe  Fe149  1  0.60767453  0.08410884  0.12316618  1
  Fe  Fe150  1  0.39332647  0.91619917  0.62705276  1
  Fe  Fe151  1  0.10632484  0.74956933  0.87313070  1
  Fe  Fe152  1  0.14240427  0.91741192  0.99869366  1
  Fe  Fe153  1  0.60721440  0.41591242  0.12266210  1
  Fe  Fe154  1  0.89254009  0.91668297  0.62651756  1
  Fe  Fe155  1  0.85776764  0.41622151  0.50119862  1
  Fe  Fe156  1  0.14287610  0.58287866  0.24842642  1
  Fe  Fe157  1  0.64274225  0.25099987  0.99820921  1
  Fe  Fe158  1  0.14239918  0.24995000  0.74915577  1
  Fe  Fe159  1  0.64294247  0.91662768  0.24910144  1
  Fe  Fe160  1  0.35793089  0.41626869  0.00214987  1
  Fe  Fe161  1  0.14267038  0.25013098  0.49801219  1
  Fe  Fe162  1  0.64293504  0.91642547  0.74772274  1
  Fe  Fe163  1  0.35721890  0.08364787  0.75129872  1
  Fe  Fe164  1  0.10774814  0.08202793  0.62276450  1
  Fe  Fe165  1  0.85736764  0.08341004  0.50261089  1
  Fe  Fe166  1  0.64318327  0.25056703  0.74831334  1
  Fe  Fe167  1  0.85804178  0.41659344  0.75206220  1
  Fe  Fe168  1  0.64456679  0.58340607  0.99827695  1
  Fe  Fe169  1  0.85820751  0.75012745  0.75140407  1
  Fe  Fe170  1  0.35821371  0.41758415  0.25141620  1
  Fe  Fe171  1  0.14327400  0.58275778  0.49831799  1
  Fe  Fe172  1  0.89139596  0.25011005  0.12668410  1
  Fe  Fe173  1  0.39285673  0.58442553  0.37586402  1
  Fe  Fe174  1  0.10651014  0.08270372  0.37354286  1
  Fe  Fe175  1  0.64239233  0.58374623  0.24787770  1
  Fe  Fe176  1  0.39344152  0.91601516  0.37653289  1
  Fe  Fe177  1  0.60663906  0.08314100  0.62321960  1
  Fe  Fe178  1  0.60720225  0.74999272  0.37344127  1
  Fe  Fe179  1  0.35822927  0.08320465  0.00177979  1
  Fe  Fe180  1  0.85683382  0.75080930  0.25185468  1
  Fe  Fe181  1  0.85684741  0.41659802  0.00246446  1
  Fe  Fe182  1  0.39150492  0.58383793  0.62719266  1
  Fe  Fe183  1  0.85817784  0.74977583  0.00208445  1
  Fe  Fe184  1  0.89153746  0.91706545  0.37675694  1
  Fe  Fe185  1  0.10728610  0.75069194  0.62384451  1
  Fe  Fe186  1  0.35668592  0.75015215  0.75205739  1
  Fe  Fe187  1  0.85673157  0.08262349  0.25163368  1
  Fe  Fe188  1  0.89239213  0.58326340  0.12761182  1
  Fe  Fe189  1  0.35711190  0.41620429  0.75138859  1
  Fe  Fe190  1  0.10627721  0.74974044  0.12348254  1
  Fe  Fe191  1  0.64266191  0.91682663  0.49840950  1
  P  P192  1  0.05122185  0.25022110  0.10991921  1
  P  P193  1  0.05479605  0.24893627  0.36118707  1
  P  P194  1  0.05589248  0.24898446  0.61071829  1
  P  P195  1  0.05234148  0.25044237  0.85945671  1
  P  P196  1  0.05287696  0.58368013  0.11138659  1
  P  P197  1  0.05521269  0.58317129  0.36020641  1
  P  P198  1  0.05423328  0.58454493  0.60930374  1
  P  P199  1  0.05144729  0.58362312  0.86022286  1
  P  P200  1  0.05359207  0.91595073  0.10961932  1
  P  P201  1  0.05139441  0.91786221  0.36004731  1
  P  P202  1  0.05224162  0.91624219  0.60997160  1
  P  P203  1  0.05485835  0.91637022  0.86132143  1
  P  P204  1  0.55327485  0.25025496  0.10902059  1
  P  P205  1  0.55312311  0.24992408  0.36001606  1
  P  P206  1  0.55440676  0.24979907  0.61154527  1
  P  P207  1  0.55539682  0.24938164  0.86033201  1
  P  P208  1  0.55601266  0.58240573  0.10976637  1
  P  P209  1  0.55282230  0.58432501  0.35919300  1
  P  P210  1  0.55132778  0.58314431  0.61073841  1
  P  P211  1  0.55533772  0.58334537  0.86113809  1
  P  P212  1  0.55503067  0.91749994  0.11112518  1
  P  P213  1  0.55417642  0.91606529  0.36108588  1
  P  P214  1  0.55444746  0.91712102  0.61096662  1
  P  P215  1  0.55438592  0.91729202  0.85895355  1
  P  P216  1  0.44718356  0.08410078  0.13852820  1
  P  P217  1  0.44624712  0.08230724  0.39115740  1
  P  P218  1  0.44567593  0.08261548  0.63940987  1
  P  P219  1  0.44622388  0.08323584  0.88908369  1
  P  P220  1  0.44648573  0.41580607  0.13871830  1
  P  P221  1  0.44548939  0.41812091  0.38866171  1
  P  P222  1  0.44587438  0.41728914  0.64117793  1
  P  P223  1  0.44475200  0.41635001  0.88956787  1
  P  P224  1  0.44733129  0.75003744  0.13978957  1
  P  P225  1  0.44800768  0.74988043  0.38962951  1
  P  P226  1  0.44584391  0.75009829  0.64094446  1
  P  P227  1  0.44593851  0.75048118  0.88952560  1
  P  P228  1  0.94532891  0.08444098  0.14072791  1
  P  P229  1  0.94515714  0.08238999  0.38983810  1
  P  P230  1  0.94694782  0.08226089  0.63898605  1
  P  P231  1  0.94651990  0.08436191  0.88976568  1
  P  P232  1  0.94480519  0.41656991  0.13906793  1
  P  P233  1  0.94618718  0.41651588  0.39081041  1
  P  P234  1  0.94502153  0.41667627  0.63931102  1
  P  P235  1  0.94415789  0.41630875  0.88941030  1
  P  P236  1  0.94533019  0.74935768  0.13973285  1
  P  P237  1  0.94479369  0.75085029  0.38847232  1
  P  P238  1  0.94732986  0.75123826  0.64015576  1
  P  P239  1  0.94560265  0.74942366  0.88955135  1
  P  P240  1  0.19552064  0.08283303  0.23635720  1
  P  P241  1  0.19564653  0.08349939  0.48517952  1
  P  P242  1  0.19724081  0.08384881  0.73421469  1
  P  P243  1  0.19831265  0.08282256  0.98549225  1
  P  P244  1  0.19821049  0.41777293  0.23471705  1
  P  P245  1  0.19668661  0.41662857  0.48507136  1
  P  P246  1  0.19759280  0.41589213  0.73547265  1
  P  P247  1  0.19810244  0.41639550  0.98505342  1
  P  P248  1  0.19579358  0.74897742  0.23444381  1
  P  P249  1  0.19535004  0.74968011  0.48647955  1
  P  P250  1  0.19572523  0.75000346  0.73545903  1
  P  P251  1  0.19370817  0.75084872  0.98541189  1
  P  P252  1  0.69699267  0.08212084  0.23475523  1
  P  P253  1  0.69649220  0.08249429  0.48675579  1
  P  P254  1  0.69429556  0.08348675  0.73579726  1
  P  P255  1  0.69417450  0.08445069  0.98537747  1
  P  P256  1  0.69539739  0.41726277  0.23400795  1
  P  P257  1  0.69821113  0.41660069  0.48495153  1
  P  P258  1  0.69865655  0.41602232  0.73544559  1
  P  P259  1  0.69655622  0.41686317  0.98656956  1
  P  P260  1  0.69629027  0.75055431  0.23675100  1
  P  P261  1  0.69536249  0.75086950  0.48473544  1
  P  P262  1  0.69879473  0.75051758  0.73480089  1
  P  P263  1  0.69899239  0.74888603  0.98483003  1
  P  P264  1  0.30453278  0.24936567  0.01562795  1
  P  P265  1  0.30545036  0.25090704  0.26344460  1
  P  P266  1  0.30200699  0.24871410  0.51484818  1
  P  P267  1  0.30204159  0.24932188  0.76479471  1
  P  P268  1  0.30307358  0.58300157  0.01501565  1
  P  P269  1  0.30306281  0.58314427  0.26534074  1
  P  P270  1  0.30422170  0.58369859  0.51443952  1
  P  P271  1  0.30442176  0.58385696  0.76389927  1
  P  P272  1  0.30211462  0.91741184  0.01496873  1
  P  P273  1  0.30393840  0.91594674  0.26618809  1
  P  P274  1  0.30580199  0.91727935  0.51432506  1
  P  P275  1  0.30488082  0.91684175  0.76325950  1
  P  P276  1  0.80364639  0.25054202  0.01425025  1
  P  P277  1  0.80407523  0.24874457  0.26380885  1
  P  P278  1  0.80367760  0.24942644  0.51519522  1
  P  P279  1  0.80289205  0.25018811  0.76563273  1
  P  P280  1  0.80506789  0.58337313  0.01465915  1
  P  P281  1  0.80305541  0.58414507  0.26372988  1
  P  P282  1  0.80288658  0.58258140  0.51469871  1
  P  P283  1  0.80493912  0.58358864  0.76534734  1
  P  P284  1  0.80333185  0.91597402  0.01493781  1
  P  P285  1  0.80271248  0.91705207  0.26557006  1
  P  P286  1  0.80402386  0.91757639  0.51474049  1
  P  P287  1  0.80363245  0.91654128  0.76347397  1
  O  O288  1  0.05564621  0.25036908  0.18663801  1
  O  O289  1  0.05909027  0.24992428  0.43797357  1
  O  O290  1  0.05993101  0.24998589  0.68752769  1
  O  O291  1  0.05634515  0.25036174  0.93617060  1
  O  O292  1  0.05808347  0.58267531  0.18800572  1
  O  O293  1  0.05974634  0.58294924  0.43695682  1
  O  O294  1  0.05664392  0.58330908  0.68616122  1
  O  O295  1  0.05508598  0.58289399  0.93694914  1
  O  O296  1  0.05626177  0.91670105  0.18641455  1
  O  O297  1  0.05571499  0.91711842  0.43669084  1
  O  O298  1  0.05592705  0.91650273  0.68671233  1
  O  O299  1  0.05877531  0.91754402  0.93804138  1
  O  O300  1  0.55628493  0.25031635  0.18581347  1
  O  O301  1  0.55637250  0.24993108  0.43684016  1
  O  O302  1  0.55885918  0.25067464  0.68827995  1
  O  O303  1  0.55935194  0.25076148  0.93709108  1
  O  O304  1  0.55986084  0.58362458  0.18661585  1
  O  O305  1  0.55593020  0.58336179  0.43600003  1
  O  O306  1  0.55597345  0.58297281  0.68740119  1
  O  O307  1  0.56055221  0.58332148  0.93784232  1
  O  O308  1  0.55921592  0.91672545  0.18789620  1
  O  O309  1  0.55849038  0.91689925  0.43781718  1
  O  O310  1  0.55920627  0.91636949  0.68764996  1
  O  O311  1  0.55733661  0.91608691  0.93579928  1
  O  O312  1  0.44255838  0.08300136  0.06182143  1
  O  O313  1  0.44389628  0.08319233  0.31425577  1
  O  O314  1  0.44079239  0.08377598  0.56278916  1
  O  O315  1  0.44106291  0.08353519  0.81241654  1
  O  O316  1  0.44190740  0.41687559  0.06196796  1
  O  O317  1  0.44196728  0.41731762  0.31184119  1
  O  O318  1  0.44300068  0.41634581  0.56429427  1
  O  O319  1  0.43987376  0.41617159  0.81283392  1
  O  O320  1  0.44339435  0.74999184  0.06305011  1
  O  O321  1  0.44464546  0.74998640  0.31297319  1
  O  O322  1  0.44364518  0.75000805  0.56407179  1
  O  O323  1  0.44092977  0.75036236  0.81282436  1
  O  O324  1  0.94214262  0.08366931  0.06393784  1
  O  O325  1  0.94040263  0.08286617  0.31316385  1
  O  O326  1  0.94197210  0.08323699  0.56232892  1
  O  O327  1  0.94339096  0.08352032  0.81300061  1
  O  O328  1  0.94078916  0.41666660  0.06226113  1
  O  O329  1  0.94246064  0.41661571  0.31400126  1
  O  O330  1  0.94095470  0.41642177  0.56255558  1
  O  O331  1  0.94091860  0.41609150  0.81250217  1
  O  O332  1  0.94117786  0.75003080  0.06293868  1
  O  O333  1  0.94037370  0.75019450  0.31170965  1
  O  O334  1  0.94362779  0.75045620  0.56341980  1
  O  O335  1  0.94113853  0.75025428  0.81280600  1
  O  O336  1  0.19423656  0.08345239  0.06218524  1
  O  O337  1  0.19085463  0.08258436  0.31306219  1
  O  O338  1  0.19106560  0.08209478  0.56193643  1
  O  O339  1  0.19368878  0.08278521  0.81095402  1
  O  O340  1  0.19386019  0.41682643  0.06173070  1
  O  O341  1  0.19425008  0.41681733  0.31138678  1
  O  O342  1  0.19386314  0.41686687  0.56186606  1
  O  O343  1  0.19379034  0.41658870  0.81215277  1
  O  O344  1  0.18962883  0.74964044  0.06219665  1
  O  O345  1  0.19324778  0.75011026  0.31131684  1
  O  O346  1  0.19122803  0.75102258  0.56319955  1
  O  O347  1  0.19046458  0.74982615  0.81214843  1
  O  O348  1  0.69057148  0.08386820  0.06221334  1
  O  O349  1  0.69355554  0.08302013  0.31151725  1
  O  O350  1  0.69128965  0.08307436  0.56337792  1
  O  O351  1  0.69104314  0.08321974  0.81263762  1
  O  O352  1  0.69181238  0.41628152  0.06318733  1
  O  O353  1  0.69264089  0.41651056  0.31085526  1
  O  O354  1  0.69443002  0.41689995  0.56166351  1
  O  O355  1  0.69478897  0.41658767  0.81213333  1
  O  O356  1  0.69519328  0.74966280  0.06156637  1
  O  O357  1  0.69152026  0.75021304  0.31337908  1
  O  O358  1  0.69256809  0.75011798  0.56153114  1
  O  O359  1  0.69526336  0.75005705  0.81149691  1
  O  O360  1  0.31012291  0.25004733  0.18677049  1
  O  O361  1  0.30580078  0.24914577  0.43814668  1
  O  O362  1  0.30510017  0.24925339  0.68807403  1
  O  O363  1  0.30690966  0.24908999  0.93880411  1
  O  O364  1  0.30706791  0.58412244  0.18864690  1
  O  O365  1  0.30907778  0.58430302  0.43779109  1
  O  O366  1  0.30774405  0.58417673  0.68705562  1
  O  O367  1  0.30616738  0.58381327  0.93823074  1
  O  O368  1  0.30681903  0.91610695  0.18935583  1
  O  O369  1  0.31005361  0.91594019  0.43758726  1
  O  O370  1  0.30894388  0.91674951  0.68650989  1
  O  O371  1  0.30586224  0.91668168  0.93823335  1
  O  O372  1  0.80764829  0.24951388  0.18702419  1
  O  O373  1  0.80612385  0.24893579  0.43836799  1
  O  O374  1  0.80689217  0.24921982  0.68893099  1
  O  O375  1  0.80814103  0.24972959  0.93759137  1
  O  O376  1  0.80789170  0.58365245  0.18704421  1
  O  O377  1  0.80568881  0.58333278  0.43792259  1
  O  O378  1  0.80747874  0.58403596  0.68854469  1
  O  O379  1  0.80918628  0.58343619  0.93790969  1
  O  O380  1  0.80615041  0.91693062  0.18884306  1
  O  O381  1  0.80840444  0.91719905  0.43802986  1
  O  O382  1  0.80842039  0.91705320  0.68680139  1
  O  O383  1  0.80630497  0.91683079  0.93813463  1
  O  O384  1  0.23498969  0.24982497  0.04148982  1
  O  O385  1  0.23534052  0.25027657  0.28739942  1
  O  O386  1  0.23197169  0.24952509  0.53926655  1
  O  O387  1  0.23220525  0.24924645  0.79023365  1
  O  O388  1  0.23332288  0.58314747  0.03995882  1
  O  O389  1  0.23298223  0.58315480  0.28976641  1
  O  O390  1  0.23382227  0.58356226  0.53803696  1
  O  O391  1  0.23458767  0.58319831  0.78893558  1
  O  O392  1  0.23215626  0.91715544  0.03975421  1
  O  O393  1  0.23423618  0.91595900  0.29136641  1
  O  O394  1  0.23562918  0.91697460  0.53822613  1
  O  O395  1  0.23488050  0.91696901  0.78757081  1
  O  O396  1  0.73323479  0.25035316  0.03796161  1
  O  O397  1  0.73419825  0.24913902  0.28852192  1
  O  O398  1  0.73421401  0.24999790  0.54097213  1
  O  O399  1  0.73276330  0.25001186  0.78990952  1
  O  O400  1  0.73474988  0.58338226  0.03867313  1
  O  O401  1  0.73263993  0.58333666  0.28731831  1
  O  O402  1  0.73335746  0.58327952  0.54042731  1
  O  O403  1  0.73535197  0.58297202  0.79097860  1
  O  O404  1  0.73371555  0.91616474  0.04020577  1
  O  O405  1  0.73269090  0.91690895  0.29039519  1
  O  O406  1  0.73362613  0.91681829  0.53836635  1
  O  O407  1  0.73331003  0.91680066  0.78729442  1
  O  O408  1  0.26575130  0.08279739  0.21272700  1
  O  O409  1  0.26606786  0.08302524  0.46160434  1
  O  O410  1  0.26735061  0.08368780  0.70971975  1
  O  O411  1  0.26833861  0.08320986  0.96081704  1
  O  O412  1  0.26834886  0.41782132  0.21043000  1
  O  O413  1  0.26631813  0.41621815  0.45972837  1
  O  O414  1  0.26759221  0.41637593  0.71064428  1
  O  O415  1  0.26828335  0.41588792  0.96098576  1
  O  O416  1  0.26539258  0.74986469  0.20901579  1
  O  O417  1  0.26542538  0.74954480  0.46227010  1
  O  O418  1  0.26618816  0.75026743  0.71221164  1
  O  O419  1  0.26379037  0.75007704  0.96119862  1
  O  O420  1  0.76698839  0.08270441  0.20998402  1
  O  O421  1  0.76683223  0.08260169  0.46314874  1
  O  O422  1  0.76428429  0.08351442  0.71119224  1
  O  O423  1  0.76418032  0.08339581  0.96098384  1
  O  O424  1  0.76517670  0.41694615  0.20911851  1
  O  O425  1  0.76809492  0.41622497  0.45992008  1
  O  O426  1  0.76882780  0.41654802  0.71122741  1
  O  O427  1  0.76698468  0.41670941  0.96300718  1
  O  O428  1  0.76663912  0.75070309  0.21279536  1
  O  O429  1  0.76508958  0.75002926  0.45969753  1
  O  O430  1  0.76877200  0.75036061  0.70990926  1
  O  O431  1  0.76903752  0.74929627  0.96037703  1
  O  O432  1  0.01510549  0.08335585  0.16563763  1
  O  O433  1  0.01554694  0.08306595  0.41352153  1
  O  O434  1  0.01734254  0.08262357  0.66260741  1
  O  O435  1  0.01613412  0.08436678  0.91512992  1
  O  O436  1  0.01466191  0.41622188  0.16386334  1
  O  O437  1  0.01604505  0.41643208  0.41524699  1
  O  O438  1  0.01515932  0.41680934  0.66336083  1
  O  O439  1  0.01402161  0.41705183  0.91438475  1
  O  O440  1  0.01566444  0.74990002  0.16357552  1
  O  O441  1  0.01487995  0.75092281  0.41239303  1
  O  O442  1  0.01733704  0.75016329  0.66486793  1
  O  O443  1  0.01595173  0.74995785  0.91327834  1
  O  O444  1  0.51746887  0.08405654  0.16261161  1
  O  O445  1  0.51582442  0.08269201  0.41666923  1
  O  O446  1  0.51616874  0.08291554  0.66278370  1
  O  O447  1  0.51675216  0.08316689  0.91212183  1
  O  O448  1  0.51689882  0.41638912  0.16229808  1
  O  O449  1  0.51525137  0.41788716  0.41378264  1
  O  O450  1  0.51548890  0.41698494  0.66660930  1
  O  O451  1  0.51509007  0.41635628  0.91273212  1
  O  O452  1  0.51722684  0.75005982  0.16414391  1
  O  O453  1  0.51784078  0.74998283  0.41498042  1
  O  O454  1  0.51546043  0.75003001  0.66658316  1
  O  O455  1  0.51613206  0.75053871  0.91315632  1
  O  O456  1  0.48339244  0.24997483  0.08386287  1
  O  O457  1  0.48350030  0.24983179  0.33491589  1
  O  O458  1  0.48430631  0.24989277  0.58743699  1
  O  O459  1  0.48526985  0.24948720  0.83624947  1
  O  O460  1  0.48592624  0.58295824  0.08564648  1
  O  O461  1  0.48292876  0.58392566  0.33403992  1
  O  O462  1  0.48117017  0.58379055  0.58663370  1
  O  O463  1  0.48501808  0.58325263  0.83809316  1
  O  O464  1  0.48511143  0.91729935  0.08652252  1
  O  O465  1  0.48388469  0.91670298  0.33700369  1
  O  O466  1  0.48393147  0.91637643  0.58769303  1
  O  O467  1  0.48463740  0.91740215  0.83413239  1
  O  O468  1  0.98109247  0.25029994  0.08581549  1
  O  O469  1  0.98466793  0.24939842  0.33734223  1
  O  O470  1  0.98573047  0.24932608  0.58678055  1
  O  O471  1  0.98225840  0.25001601  0.83496660  1
  O  O472  1  0.98246665  0.58399267  0.08783383  1
  O  O473  1  0.98500010  0.58321432  0.33654817  1
  O  O474  1  0.98462747  0.58434074  0.58378363  1
  O  O475  1  0.98143369  0.58327655  0.83561572  1
  O  O476  1  0.98385302  0.91664347  0.08443771  1
  O  O477  1  0.98133795  0.91710014  0.33561303  1
  O  O478  1  0.98233005  0.91663622  0.58501394  1
  O  O479  1  0.98487978  0.91647984  0.83690098  1
  O  O480  1  0.08502746  0.31509638  0.07685138  1
  O  O481  1  0.08833198  0.31379891  0.32751157  1
  O  O482  1  0.08958122  0.31392968  0.57732096  1
  O  O483  1  0.08605063  0.31560843  0.82665179  1
  O  O484  1  0.08615749  0.64892556  0.07841288  1
  O  O485  1  0.08875565  0.64822352  0.32709610  1
  O  O486  1  0.08848282  0.64977558  0.57760321  1
  O  O487  1  0.08526446  0.64876871  0.82778855  1
  O  O488  1  0.08823622  0.98074061  0.07694099  1
  O  O489  1  0.08486121  0.98309522  0.32742426  1
  O  O490  1  0.08649542  0.98112952  0.57726442  1
  O  O491  1  0.08847705  0.98125649  0.82781420  1
  O  O492  1  0.58727574  0.31536233  0.07628264  1
  O  O493  1  0.58721179  0.31493158  0.32757935  1
  O  O494  1  0.58779693  0.31481995  0.57813316  1
  O  O495  1  0.58917206  0.31417865  0.82676299  1
  O  O496  1  0.59018554  0.64713312  0.07648165  1
  O  O497  1  0.58692874  0.64961191  0.32708785  1
  O  O498  1  0.58532313  0.64812841  0.57804266  1
  O  O499  1  0.58840311  0.64841708  0.82761249  1
  O  O500  1  0.58860915  0.98269922  0.07853570  1
  O  O501  1  0.58806976  0.98081262  0.32758596  1
  O  O502  1  0.58733477  0.98240971  0.57757000  1
  O  O503  1  0.58860510  0.98246545  0.82702707  1
  O  O504  1  0.41376569  0.01931060  0.17238056  1
  O  O505  1  0.41198545  0.01707953  0.42287046  1
  O  O506  1  0.41261490  0.01731243  0.67244478  1
  O  O507  1  0.41302071  0.01831796  0.92282600  1
  O  O508  1  0.41341587  0.35048124  0.17155819  1
  O  O509  1  0.41173491  0.35313239  0.42195247  1
  O  O510  1  0.41138197  0.35224008  0.67365225  1
  O  O511  1  0.41146369  0.35119279  0.92273764  1
  O  O512  1  0.41363930  0.68483423  0.17249127  1
  O  O513  1  0.41398233  0.68467306  0.42208378  1
  O  O514  1  0.41125443  0.68525861  0.67321127  1
  O  O515  1  0.41251005  0.68550892  0.92287780  1
  O  O516  1  0.91065624  0.01962568  0.17341487  1
  O  O517  1  0.91195573  0.01722469  0.42308899  1
  O  O518  1  0.91369728  0.01711275  0.67204405  1
  O  O519  1  0.91242268  0.01933698  0.92244563  1
  O  O520  1  0.91079439  0.35153120  0.17172495  1
  O  O521  1  0.91211587  0.35148723  0.42340928  1
  O  O522  1  0.91148578  0.35169882  0.67267694  1
  O  O523  1  0.91059598  0.35095899  0.92210359  1
  O  O524  1  0.91187157  0.68433968  0.17287665  1
  O  O525  1  0.91167705  0.68573530  0.42195030  1
  O  O526  1  0.91276222  0.68653885  0.67297012  1
  O  O527  1  0.91256824  0.68411668  0.92266384  1
  O  O528  1  0.16218555  0.01775262  0.20317760  1
  O  O529  1  0.16196393  0.01869497  0.45148782  1
  O  O530  1  0.16342747  0.01895141  0.70072177  1
  O  O531  1  0.16452437  0.01781494  0.95269293  1
  O  O532  1  0.16456147  0.35279594  0.20142249  1
  O  O533  1  0.16247732  0.35148910  0.45283980  1
  O  O534  1  0.16389872  0.35068815  0.70308134  1
  O  O535  1  0.16410297  0.35134059  0.95256675  1
  O  O536  1  0.16184412  0.68348869  0.20259359  1
  O  O537  1  0.16164085  0.68453959  0.45397608  1
  O  O538  1  0.16240557  0.68501248  0.70208780  1
  O  O539  1  0.15952964  0.68617283  0.95184532  1
  O  O540  1  0.66318515  0.01682520  0.20261892  1
  O  O541  1  0.66328274  0.01730066  0.45351494  1
  O  O542  1  0.66048937  0.01850713  0.70270364  1
  O  O543  1  0.65992212  0.01976450  0.95222430  1
  O  O544  1  0.66113709  0.35225184  0.20134661  1
  O  O545  1  0.66405187  0.35167078  0.45234915  1
  O  O546  1  0.66513141  0.35084274  0.70275892  1
  O  O547  1  0.66323803  0.35196303  0.95290607  1
  O  O548  1  0.66320147  0.68555265  0.20304819  1
  O  O549  1  0.66052212  0.68624337  0.45211025  1
  O  O550  1  0.66487176  0.68538851  0.70215867  1
  O  O551  1  0.66537839  0.68374089  0.95228310  1
  O  O552  1  0.33934200  0.31441904  0.04746771  1
  O  O553  1  0.33843419  0.31645357  0.29623875  1
  O  O554  1  0.33619060  0.31352274  0.54770797  1
  O  O555  1  0.33620763  0.31434773  0.79715903  1
  O  O556  1  0.33712362  0.64793532  0.04781119  1
  O  O557  1  0.33677291  0.64814461  0.29875106  1
  O  O558  1  0.33760692  0.64858059  0.54817117  1
  O  O559  1  0.33776053  0.64917330  0.79689685  1
  O  O560  1  0.33613921  0.98253974  0.04740384  1
  O  O561  1  0.33851964  0.98084356  0.29847510  1
  O  O562  1  0.33923988  0.98262087  0.54694529  1
  O  O563  1  0.33835202  0.98219613  0.79604177  1
  O  O564  1  0.83705958  0.31561871  0.04746921  1
  O  O565  1  0.83802812  0.31364523  0.29684138  1
  O  O566  1  0.83837698  0.31448608  0.54685149  1
  O  O567  1  0.83687786  0.31521929  0.79812667  1
  O  O568  1  0.83852723  0.64840197  0.04789949  1
  O  O569  1  0.83595488  0.64930346  0.29706365  1
  O  O570  1  0.83738192  0.64762352  0.54706225  1
  O  O571  1  0.83896720  0.64883234  0.79772959  1
  O  O572  1  0.83732715  0.98107827  0.04746343  1
  O  O573  1  0.83651162  0.98225731  0.29822626  1
  O  O574  1  0.83729400  0.98255943  0.54827138  1
  O  O575  1  0.83686127  0.98154128  0.79713260  1
  O  O576  1  0.41391760  0.14940809  0.17130832  1
  O  O577  1  0.41155820  0.14711614  0.42375576  1
  O  O578  1  0.41233794  0.14738683  0.67354495  1
  O  O579  1  0.41304352  0.14818538  0.92274645  1
  O  O580  1  0.41283965  0.48059099  0.17248479  1
  O  O581  1  0.41173525  0.48348552  0.42078518  1
  O  O582  1  0.41144433  0.48238222  0.67301703  1
  O  O583  1  0.41134392  0.48121128  0.92314062  1
  O  O584  1  0.41344125  0.81499227  0.17253628  1
  O  O585  1  0.41396777  0.81481291  0.42247823  1
  O  O586  1  0.41158210  0.81539465  0.67286003  1
  O  O587  1  0.41258212  0.81565304  0.92265289  1
  O  O588  1  0.91163984  0.14970623  0.17308278  1
  O  O589  1  0.91157348  0.14722945  0.42354815  1
  O  O590  1  0.91354009  0.14716893  0.67263632  1
  O  O591  1  0.91219692  0.14952144  0.92170660  1
  O  O592  1  0.91144272  0.48193829  0.17199922  1
  O  O593  1  0.91209841  0.48150952  0.42339155  1
  O  O594  1  0.91139215  0.48176056  0.67215688  1
  O  O595  1  0.90978773  0.48119872  0.92203535  1
  O  O596  1  0.91155006  0.81433237  0.17294672  1
  O  O597  1  0.91120677  0.81593372  0.42132959  1
  O  O598  1  0.91383456  0.81654995  0.67282094  1
  O  O599  1  0.91195936  0.81424709  0.92314039  1
  O  O600  1  0.08486253  0.18501942  0.07714865  1
  O  O601  1  0.08791356  0.18348387  0.32859710  1
  O  O602  1  0.08924495  0.18369457  0.57799375  1
  O  O603  1  0.08679017  0.18564243  0.82673547  1
  O  O604  1  0.08568464  0.51868031  0.07721336  1
  O  O605  1  0.08871213  0.51823428  0.32670583  1
  O  O606  1  0.08875291  0.51958331  0.57679479  1
  O  O607  1  0.08537587  0.51865910  0.82730066  1
  O  O608  1  0.08739380  0.85055725  0.07766422  1
  O  O609  1  0.08552887  0.85303645  0.32702362  1
  O  O610  1  0.08593070  0.85101015  0.57741271  1
  O  O611  1  0.08830210  0.85100933  0.82873693  1
  O  O612  1  0.58773190  0.18536394  0.07673760  1
  O  O613  1  0.58716345  0.18471957  0.32768100  1
  O  O614  1  0.58779305  0.18440189  0.57883825  1
  O  O615  1  0.58890253  0.18411487  0.82781770  1
  O  O616  1  0.58939451  0.51700828  0.07727494  1
  O  O617  1  0.58729756  0.51960879  0.32634273  1
  O  O618  1  0.58458382  0.51799578  0.57744216  1
  O  O619  1  0.58838051  0.51820969  0.82765031  1
  O  O620  1  0.58866285  0.85247738  0.07771733  1
  O  O621  1  0.58743200  0.85082701  0.32802405  1
  O  O622  1  0.58812057  0.85238083  0.57740492  1
  O  O623  1  0.58867239  0.85243236  0.82605442  1
  O  O624  1  0.33888497  0.18424206  0.04787489  1
  O  O625  1  0.33900432  0.18598690  0.29699985  1
  O  O626  1  0.33541343  0.18350338  0.54766081  1
  O  O627  1  0.33625102  0.18421736  0.79718572  1
  O  O628  1  0.33722851  0.51776679  0.04701233  1
  O  O629  1  0.33731894  0.51815258  0.29767228  1
  O  O630  1  0.33761917  0.51861105  0.54763403  1
  O  O631  1  0.33859903  0.51875028  0.79612844  1
  O  O632  1  0.33591726  0.85240330  0.04795661  1
  O  O633  1  0.33827453  0.85087973  0.29846286  1
  O  O634  1  0.33965089  0.85254574  0.54794638  1
  O  O635  1  0.33819576  0.85171491  0.79654665  1
  O  O636  1  0.83707917  0.18564129  0.04785834  1
  O  O637  1  0.83757167  0.18343621  0.29642413  1
  O  O638  1  0.83758378  0.18419848  0.54783306  1
  O  O639  1  0.83665279  0.18522806  0.79884789  1
  O  O640  1  0.83840754  0.51819360  0.04782924  1
  O  O641  1  0.83664663  0.51919826  0.29701628  1
  O  O642  1  0.83709136  0.51748078  0.54664734  1
  O  O643  1  0.83955216  0.51861590  0.79749267  1
  O  O644  1  0.83741816  0.85084876  0.04705303  1
  O  O645  1  0.83686366  0.85218201  0.29836522  1
  O  O646  1  0.83781771  0.85260446  0.54794517  1
  O  O647  1  0.83709984  0.85144552  0.79646098  1
  O  O648  1  0.16229519  0.14792022  0.20291113  1
  O  O649  1  0.16234017  0.14878795  0.45248963  1
  O  O650  1  0.16302529  0.14891417  0.70227040  1
  O  O651  1  0.16438672  0.14793821  0.95266177  1
  O  O652  1  0.16426509  0.48290807  0.20229018  1
  O  O653  1  0.16293172  0.48195139  0.45274739  1
  O  O654  1  0.16355520  0.48079302  0.70249386  1
  O  O655  1  0.16457400  0.48144797  0.95184827  1
  O  O656  1  0.16069307  0.81355994  0.20204823  1
  O  O657  1  0.16208864  0.81472121  0.45277541  1
  O  O658  1  0.16236994  0.81497589  0.70181198  1
  O  O659  1  0.16060328  0.81638558  0.95284616  1
  O  O660  1  0.66263355  0.14685837  0.20164013  1
  O  O661  1  0.66332618  0.14741380  0.45292689  1
  O  O662  1  0.66048560  0.14869991  0.70322109  1
  O  O663  1  0.66098541  0.14989922  0.95280119  1
  O  O664  1  0.66130151  0.48238529  0.20195372  1
  O  O665  1  0.66428468  0.48175479  0.45234687  1
  O  O666  1  0.66483136  0.48095491  0.70233888  1
  O  O667  1  0.66376537  0.48215768  0.95320269  1
  O  O668  1  0.66317677  0.81581848  0.20357161  1
  O  O669  1  0.66172417  0.81640991  0.45265809  1
  O  O670  1  0.66471860  0.81550824  0.70234960  1
  O  O671  1  0.66499905  0.81382477  0.95192500  1
