# generated using pymatgen
data_Na2MnFe(PO4)2
_symmetry_space_group_name_H-M   'P 1'
_cell_length_a   21.09069364
_cell_length_b   18.94459691
_cell_length_c   20.04909256
_cell_angle_alpha   89.99980264
_cell_angle_beta   90.00209235
_cell_angle_gamma   89.99984056
_symmetry_Int_Tables_number   1
_chemical_formula_structural   Na2MnFe(PO4)2
_chemical_formula_sum   'Na96 Mn48 Fe48 P96 O384'
_cell_volume   8010.70894556
_cell_formula_units_Z   48
loop_
 _symmetry_equiv_pos_site_id
 _symmetry_equiv_pos_as_xyz
  1  'x, y, z'
loop_
 _atom_site_type_symbol
 _atom_site_label
 _atom_site_symmetry_multiplicity
 _atom_site_fract_x
 _atom_site_fract_y
 _atom_site_fract_z
 _atom_site_occupancy
  Na  Na0  1  -0.00060165  -0.00100969  0.00063410  1
  Na  Na1  1  0.00083018  -0.00067524  0.24968809  1
  Na  Na2  1  0.00050856  -0.00075311  0.50032349  1
  Na  Na3  1  0.00027523  -0.00028157  0.74986157  1
  Na  Na4  1  0.00058791  0.33328436  -0.00016804  1
  Na  Na5  1  0.00218492  0.33377150  0.24947705  1
  Na  Na6  1  -0.00140486  0.33303723  0.49960802  1
  Na  Na7  1  -0.00343433  0.33201690  0.75144423  1
  Na  Na8  1  0.00095540  0.66720655  -0.00076224  1
  Na  Na9  1  0.00123593  0.66737989  0.24969126  1
  Na  Na10  1  -0.00082125  0.66650151  0.50014599  1
  Na  Na11  1  -0.00103646  0.66612691  0.75089126  1
  Na  Na12  1  0.49768535  -0.00081161  0.00043364  1
  Na  Na13  1  0.49649270  -0.00151967  0.24898193  1
  Na  Na14  1  0.49966603  -0.00060467  0.50070195  1
  Na  Na15  1  0.50158588  0.00042059  0.74978836  1
  Na  Na16  1  0.49937175  0.33304323  0.00000331  1
  Na  Na17  1  0.50140412  0.33384784  0.24988318  1
  Na  Na18  1  0.50066786  0.33377893  0.49984018  1
  Na  Na19  1  0.50009090  0.33410741  0.74983339  1
  Na  Na20  1  0.49894487  0.66723260  0.00015307  1
  Na  Na21  1  0.49890805  0.66762791  0.24937395  1
  Na  Na22  1  0.49833509  0.66696102  0.50017059  1
  Na  Na23  1  0.49871654  0.66700964  0.75032534  1
  Na  Na24  1  0.25250590  0.00066426  0.12478979  1
  Na  Na25  1  0.25085700  -0.00069429  0.37512483  1
  Na  Na26  1  0.24719017  -0.00150334  0.62513037  1
  Na  Na27  1  0.24914824  -0.00006928  0.87460398  1
  Na  Na28  1  0.25035161  0.33302785  0.12518545  1
  Na  Na29  1  0.25083290  0.33283773  0.37508187  1
  Na  Na30  1  0.25268402  0.33449498  0.62540597  1
  Na  Na31  1  0.25118611  0.33357526  0.87395759  1
  Na  Na32  1  0.24993695  0.66756035  0.12547817  1
  Na  Na33  1  0.25125484  0.66737464  0.37525627  1
  Na  Na34  1  0.25185292  0.66743339  0.62487969  1
  Na  Na35  1  0.24898959  0.66661974  0.87437574  1
  Na  Na36  1  0.75114569  -0.00051377  0.12472036  1
  Na  Na37  1  0.75211498  0.00051503  0.37486891  1
  Na  Na38  1  0.75110895  -0.00070616  0.62430721  1
  Na  Na39  1  0.75230449  -0.00015351  0.87548628  1
  Na  Na40  1  0.74805701  0.33299515  0.12373341  1
  Na  Na41  1  0.74772170  0.33348666  0.37537984  1
  Na  Na42  1  0.74950483  0.33358058  0.62630999  1
  Na  Na43  1  0.75078114  0.33374740  0.87516622  1
  Na  Na44  1  0.74888183  0.66705121  0.12456884  1
  Na  Na45  1  0.74745523  0.66682687  0.37522098  1
  Na  Na46  1  0.75070487  0.66733208  0.62518915  1
  Na  Na47  1  0.75315768  0.66823981  0.87505205  1
  Na  Na48  1  0.00083355  0.16655414  -0.00003655  1
  Na  Na49  1  0.00198564  0.16652369  0.24875788  1
  Na  Na50  1  -0.00126714  0.16718335  0.49948873  1
  Na  Na51  1  -0.00220156  0.16728669  0.75138965  1
  Na  Na52  1  0.00067971  0.50031732  -0.00073176  1
  Na  Na53  1  0.00117818  0.50020127  0.25007910  1
  Na  Na54  1  -0.00158684  0.50063270  0.50073141  1
  Na  Na55  1  -0.00167706  0.50127558  0.75091749  1
  Na  Na56  1  0.00041425  0.83241876  0.00057581  1
  Na  Na57  1  0.00142982  0.83249059  0.25001145  1
  Na  Na58  1  0.00097659  0.83308268  0.49987198  1
  Na  Na59  1  -0.00046524  0.83326768  0.74985868  1
  Na  Na60  1  0.49806635  0.16697652  0.00100580  1
  Na  Na61  1  0.49893461  0.16645969  0.24998867  1
  Na  Na62  1  0.50008130  0.16687602  0.49907024  1
  Na  Na63  1  0.49913613  0.16755381  0.75023694  1
  Na  Na64  1  0.50115900  0.49921958  0.00050208  1
  Na  Na65  1  0.49999208  0.50017788  0.24900309  1
  Na  Na66  1  0.49820830  0.50103287  0.50056060  1
  Na  Na67  1  0.49972776  0.49956214  0.74988848  1
  Na  Na68  1  0.49767393  0.83343480  -0.00082959  1
  Na  Na69  1  0.49870318  0.83255297  0.24932292  1
  Na  Na70  1  0.50008801  0.83259435  0.50094095  1
  Na  Na71  1  0.50061690  0.83268241  0.74966101  1
  Na  Na72  1  0.25117116  0.16649834  0.12508405  1
  Na  Na73  1  0.25001533  0.16694143  0.37538514  1
  Na  Na74  1  0.25138310  0.16589547  0.62639201  1
  Na  Na75  1  0.24947425  0.16746288  0.87352848  1
  Na  Na76  1  0.25003867  0.50042362  0.12546689  1
  Na  Na77  1  0.25304908  0.49962494  0.37571213  1
  Na  Na78  1  0.25224424  0.50008969  0.62398713  1
  Na  Na79  1  0.25011891  0.50036547  0.87391232  1
  Na  Na80  1  0.24991942  0.83306804  0.12515176  1
  Na  Na81  1  0.24985598  0.83324614  0.37432160  1
  Na  Na82  1  0.24872883  0.83285168  0.62499168  1
  Na  Na83  1  0.24934524  0.83263909  0.87578355  1
  Na  Na84  1  0.75025864  0.16673062  0.12440418  1
  Na  Na85  1  0.74712687  0.16838085  0.37457986  1
  Na  Na86  1  0.75197770  0.16600136  0.62584149  1
  Na  Na87  1  0.75350606  0.16571674  0.87475742  1
  Na  Na88  1  0.74725313  0.50126471  0.12356937  1
  Na  Na89  1  0.74854971  0.50016224  0.37572878  1
  Na  Na90  1  0.75114137  0.49923468  0.62618104  1
  Na  Na91  1  0.75080022  0.50000552  0.87521344  1
  Na  Na92  1  0.75048915  0.83266567  0.12495991  1
  Na  Na93  1  0.74979091  0.83237548  0.37537080  1
  Na  Na94  1  0.74908742  0.83346940  0.62355874  1
  Na  Na95  1  0.75130732  0.83290384  0.87575853  1
  Mn  Mn96  1  0.64338500  0.24910251  0.74805733  1
  Mn  Mn97  1  0.39242284  0.25014196  0.37763191  1
  Mn  Mn98  1  0.89252062  0.58317151  0.12763751  1
  Mn  Mn99  1  0.85796687  0.08399657  0.50163655  1
  Mn  Mn100  1  0.89240723  0.91645473  0.62739366  1
  Mn  Mn101  1  0.60714251  0.08195548  0.37209399  1
  Mn  Mn102  1  0.64177011  0.91666999  0.24788283  1
  Mn  Mn103  1  0.89163378  0.24980828  0.37629911  1
  Mn  Mn104  1  0.60658971  0.08259236  0.12247148  1
  Mn  Mn105  1  0.39200891  0.24987003  0.87732789  1
  Mn  Mn106  1  0.85745172  0.74962913  0.50164509  1
  Mn  Mn107  1  0.60730675  0.41775547  0.37253125  1
  Mn  Mn108  1  0.14280991  0.91716120  0.99724456  1
  Mn  Mn109  1  0.85778707  0.08339217  0.25253490  1
  Mn  Mn110  1  0.35754767  0.08260096  0.75236745  1
  Mn  Mn111  1  0.39154083  0.58320941  0.87745509  1
  Mn  Mn112  1  0.64235687  0.91695156  0.99796858  1
  Mn  Mn113  1  0.64174996  0.91735013  0.49699609  1
  Mn  Mn114  1  0.85740659  0.41645029  0.50227847  1
  Mn  Mn115  1  0.14295979  0.58340468  0.49819866  1
  Mn  Mn116  1  0.39194521  0.58340535  0.12685092  1
  Mn  Mn117  1  0.39170135  0.91695989  0.87627326  1
  Mn  Mn118  1  0.89133593  0.58371473  0.37659270  1
  Mn  Mn119  1  0.14223311  0.25008802  0.49875422  1
  Mn  Mn120  1  0.10797742  0.41666240  0.87222746  1
  Mn  Mn121  1  0.64111127  0.58299217  0.49842097  1
  Mn  Mn122  1  0.89307641  0.25057838  0.12766675  1
  Mn  Mn123  1  0.14291527  0.58338509  0.24830304  1
  Mn  Mn124  1  0.10923295  0.08285769  0.12234703  1
  Mn  Mn125  1  0.60783889  0.74971125  0.87262587  1
  Mn  Mn126  1  0.89287766  0.91610725  0.12792894  1
  Mn  Mn127  1  0.60848551  0.08350575  0.87310594  1
  Mn  Mn128  1  0.10688046  0.08434323  0.62306523  1
  Mn  Mn129  1  0.35778354  0.08311306  0.50297647  1
  Mn  Mn130  1  0.14187233  0.25090400  0.74707384  1
  Mn  Mn131  1  0.85758364  0.41692101  0.00267383  1
  Mn  Mn132  1  0.10918363  0.41744215  0.12212541  1
  Mn  Mn133  1  0.64217024  0.24898852  0.99764873  1
  Mn  Mn134  1  0.39204451  0.91683637  0.62798478  1
  Mn  Mn135  1  0.64223639  0.58400628  0.99707867  1
  Mn  Mn136  1  0.10755004  0.74930971  0.62296375  1
  Mn  Mn137  1  0.60870651  0.08390563  0.62308916  1
  Mn  Mn138  1  0.10835661  0.08306516  0.37256218  1
  Mn  Mn139  1  0.10863358  0.41707404  0.37369262  1
  Mn  Mn140  1  0.10715088  0.41642634  0.62332862  1
  Mn  Mn141  1  0.85667829  0.41734795  0.25171946  1
  Mn  Mn142  1  0.35836692  0.41681256  0.25240804  1
  Mn  Mn143  1  0.64306592  0.58438516  0.74802699  1
  Fe  Fe144  1  0.64222958  0.24979312  0.49920989  1
  Fe  Fe145  1  0.35663374  0.75002822  0.75158482  1
  Fe  Fe146  1  0.89302933  0.91616440  0.87632126  1
  Fe  Fe147  1  0.35703526  0.08358255  0.00100460  1
  Fe  Fe148  1  0.35746717  0.41669806  0.00129144  1
  Fe  Fe149  1  0.10785526  0.74965487  0.37329595  1
  Fe  Fe150  1  0.35845989  0.41668626  0.50236898  1
  Fe  Fe151  1  0.85853944  0.08294852  0.00200478  1
  Fe  Fe152  1  0.60662014  0.41681177  0.12305837  1
  Fe  Fe153  1  0.39189700  0.91571398  0.37717460  1
  Fe  Fe154  1  0.14380248  0.91694972  0.24853589  1
  Fe  Fe155  1  0.14287016  0.91629482  0.49759313  1
  Fe  Fe156  1  0.60585608  0.75026568  0.37287621  1
  Fe  Fe157  1  0.89385814  0.91625825  0.37583246  1
  Fe  Fe158  1  0.35703828  0.08296353  0.25197219  1
  Fe  Fe159  1  0.60704086  0.41713288  0.62407605  1
  Fe  Fe160  1  0.64121592  0.58371037  0.24820694  1
  Fe  Fe161  1  0.14165815  0.91585189  0.74896037  1
  Fe  Fe162  1  0.85817240  0.75031982  0.00251110  1
  Fe  Fe163  1  0.89115854  0.25070159  0.62673719  1
  Fe  Fe164  1  0.39291594  0.58422789  0.37667797  1
  Fe  Fe165  1  0.10787726  0.74954886  0.12342529  1
  Fe  Fe166  1  0.64382866  0.91659151  0.74916745  1
  Fe  Fe167  1  0.39169296  0.91655394  0.12662950  1
  Fe  Fe168  1  0.85715312  0.41691308  0.75238184  1
  Fe  Fe169  1  0.39330230  0.25039657  0.62607258  1
  Fe  Fe170  1  0.35616894  0.74986793  0.00172850  1
  Fe  Fe171  1  0.14389390  0.25054913  0.99839403  1
  Fe  Fe172  1  0.35706995  0.75055733  0.25200003  1
  Fe  Fe173  1  0.85751478  0.75030718  0.75176029  1
  Fe  Fe174  1  0.39218897  0.24976926  0.12688314  1
  Fe  Fe175  1  0.60641814  0.75041428  0.12316485  1
  Fe  Fe176  1  0.35789629  0.41729843  0.75172628  1
  Fe  Fe177  1  0.89200821  0.58295630  0.62754248  1
  Fe  Fe178  1  0.85818881  0.08240461  0.75245630  1
  Fe  Fe179  1  0.14311034  0.58270784  0.99820191  1
  Fe  Fe180  1  0.39282180  0.58320043  0.62723934  1
  Fe  Fe181  1  0.14289479  0.58330234  0.74776329  1
  Fe  Fe182  1  0.35724562  0.75021725  0.50197714  1
  Fe  Fe183  1  0.89373154  0.58380158  0.87715044  1
  Fe  Fe184  1  0.60689405  0.74947881  0.62397039  1
  Fe  Fe185  1  0.10703613  0.75041652  0.87326117  1
  Fe  Fe186  1  0.10696450  0.08278615  0.87385657  1
  Fe  Fe187  1  0.85681611  0.74961147  0.25186510  1
  Fe  Fe188  1  0.60692753  0.41658466  0.87328691  1
  Fe  Fe189  1  0.14341725  0.24954259  0.24853023  1
  Fe  Fe190  1  0.64163525  0.25018425  0.24753687  1
  Fe  Fe191  1  0.89329540  0.24971417  0.87774780  1
  P  P192  1  0.05634649  0.25000270  0.10985722  1
  P  P193  1  0.05414752  0.25004066  0.35912096  1
  P  P194  1  0.05076333  0.25056905  0.61026774  1
  P  P195  1  0.05405038  0.24922918  0.86168215  1
  P  P196  1  0.05463263  0.58448215  0.10908382  1
  P  P197  1  0.05342735  0.58419772  0.36032304  1
  P  P198  1  0.05295679  0.58303532  0.61137116  1
  P  P199  1  0.05489920  0.58421535  0.86072538  1
  P  P200  1  0.05560260  0.91550580  0.11123486  1
  P  P201  1  0.05501233  0.91556211  0.36032875  1
  P  P202  1  0.05524970  0.91628134  0.61048323  1
  P  P203  1  0.05275731  0.91623568  0.86014751  1
  P  P204  1  0.55290999  0.25016503  0.11097843  1
  P  P205  1  0.55485854  0.24992093  0.36034894  1
  P  P206  1  0.55315810  0.25096096  0.61004227  1
  P  P207  1  0.55342413  0.25061025  0.86000332  1
  P  P208  1  0.55428114  0.58418261  0.11079563  1
  P  P209  1  0.55198694  0.58462738  0.35956694  1
  P  P210  1  0.55207884  0.58360304  0.61098298  1
  P  P211  1  0.55305546  0.58271728  0.85984808  1
  P  P212  1  0.55144588  0.91547535  0.10990426  1
  P  P213  1  0.55100197  0.91549377  0.35967832  1
  P  P214  1  0.55498781  0.91585433  0.61165160  1
  P  P215  1  0.55390913  0.91657580  0.85922896  1
  P  P216  1  0.44365625  0.08329869  0.13909980  1
  P  P217  1  0.44497462  0.08194911  0.38892031  1
  P  P218  1  0.44706876  0.08418580  0.64022996  1
  P  P219  1  0.44636448  0.08314791  0.89078987  1
  P  P220  1  0.44605853  0.41606944  0.13847879  1
  P  P221  1  0.44621870  0.41778808  0.39048551  1
  P  P222  1  0.44602236  0.41673757  0.63935181  1
  P  P223  1  0.44600429  0.41691500  0.88972621  1
  P  P224  1  0.44472058  0.75054454  0.13900781  1
  P  P225  1  0.44528259  0.75028065  0.38928089  1
  P  P226  1  0.44555410  0.74949203  0.63969006  1
  P  P227  1  0.44435104  0.75005590  0.88938712  1
  P  P228  1  0.94656545  0.08328080  0.13926547  1
  P  P229  1  0.94708080  0.08227058  0.38947995  1
  P  P230  1  0.94557197  0.08407985  0.64072908  1
  P  P231  1  0.94618243  0.08241911  0.88958568  1
  P  P232  1  0.94757185  0.41702363  0.14027840  1
  P  P233  1  0.94655045  0.41687227  0.38979768  1
  P  P234  1  0.94545908  0.41679696  0.64113254  1
  P  P235  1  0.94541927  0.41711197  0.88910720  1
  P  P236  1  0.94658748  0.74957629  0.13990307  1
  P  P237  1  0.94680107  0.75071075  0.38860009  1
  P  P238  1  0.94579429  0.74912454  0.64059111  1
  P  P239  1  0.94602132  0.75019619  0.88916628  1
  P  P240  1  0.19813066  0.08275169  0.23524889  1
  P  P241  1  0.19659036  0.08286251  0.48544918  1
  P  P242  1  0.19459480  0.08250333  0.73641895  1
  P  P243  1  0.19773226  0.08446936  0.98422261  1
  P  P244  1  0.19735631  0.41617694  0.23538636  1
  P  P245  1  0.19880932  0.41679731  0.48575209  1
  P  P246  1  0.19802398  0.41790703  0.73446686  1
  P  P247  1  0.19842583  0.41661738  0.98468591  1
  P  P248  1  0.19618506  0.75080975  0.23592531  1
  P  P249  1  0.19713063  0.75015574  0.48466666  1
  P  P250  1  0.19583073  0.74958434  0.73636091  1
  P  P251  1  0.19566941  0.74913379  0.98575671  1
  P  P252  1  0.69631932  0.08334076  0.23439825  1
  P  P253  1  0.69650991  0.08430193  0.48470873  1
  P  P254  1  0.69899406  0.08206747  0.73558631  1
  P  P255  1  0.69855001  0.08293985  0.98497056  1
  P  P256  1  0.69491567  0.41735835  0.23417283  1
  P  P257  1  0.69459968  0.41606499  0.48682110  1
  P  P258  1  0.69606082  0.41693545  0.73641524  1
  P  P259  1  0.69432338  0.41654113  0.98505237  1
  P  P260  1  0.69504734  0.74968012  0.23549211  1
  P  P261  1  0.69380962  0.74965517  0.48536276  1
  P  P262  1  0.69768898  0.75104108  0.73480832  1
  P  P263  1  0.69689747  0.75057965  0.98591754  1
  P  P264  1  0.30323718  0.25019161  0.01502005  1
  P  P265  1  0.30388867  0.24912250  0.26391042  1
  P  P266  1  0.30422247  0.25051991  0.51618508  1
  P  P267  1  0.30497956  0.25095211  0.76335582  1
  P  P268  1  0.30205671  0.58334946  0.01479620  1
  P  P269  1  0.30448392  0.58460081  0.26537943  1
  P  P270  1  0.30608711  0.58409094  0.51432331  1
  P  P271  1  0.30385437  0.58359963  0.76337656  1
  P  P272  1  0.30381396  0.91656791  0.01500417  1
  P  P273  1  0.30436829  0.91637051  0.26409959  1
  P  P274  1  0.30321427  0.91536234  0.51416565  1
  P  P275  1  0.30132291  0.91541818  0.76482924  1
  P  P276  1  0.80528931  0.24925994  0.01400032  1
  P  P277  1  0.80112317  0.25074171  0.26451765  1
  P  P278  1  0.80213035  0.25033709  0.51564435  1
  P  P279  1  0.80594146  0.25017121  0.76486971  1
  P  P280  1  0.80504975  0.58449520  0.01380717  1
  P  P281  1  0.80082938  0.58425652  0.26465029  1
  P  P282  1  0.80326408  0.58338038  0.51591429  1
  P  P283  1  0.80558823  0.58364963  0.76477368  1
  P  P284  1  0.80572262  0.91634781  0.01395837  1
  P  P285  1  0.80397774  0.91511219  0.26567138  1
  P  P286  1  0.80474590  0.91638667  0.51324556  1
  P  P287  1  0.80354572  0.91594151  0.76545317  1
  O  O288  1  0.06105992  0.24980624  0.18661299  1
  O  O289  1  0.05706260  0.24988292  0.43593688  1
  O  O290  1  0.05502147  0.25064824  0.68697049  1
  O  O291  1  0.05977890  0.25023583  0.93825378  1
  O  O292  1  0.05787803  0.58371979  0.18584379  1
  O  O293  1  0.05662784  0.58373185  0.43709492  1
  O  O294  1  0.05839866  0.58318594  0.68800486  1
  O  O295  1  0.05998369  0.58312529  0.93737669  1
  O  O296  1  0.06007651  0.91654530  0.18793767  1
  O  O297  1  0.05932308  0.91622293  0.43710028  1
  O  O298  1  0.05925107  0.91585914  0.68726196  1
  O  O299  1  0.05647280  0.91607966  0.93685315  1
  O  O300  1  0.55774621  0.24954398  0.18766407  1
  O  O301  1  0.55882699  0.24976734  0.43707090  1
  O  O302  1  0.55715071  0.25015278  0.68674618  1
  O  O303  1  0.55628332  0.24955811  0.93677787  1
  O  O304  1  0.55774080  0.58435131  0.18779267  1
  O  O305  1  0.55523887  0.58383692  0.43627498  1
  O  O306  1  0.55614666  0.58371162  0.68758959  1
  O  O307  1  0.55615502  0.58376162  0.93660810  1
  O  O308  1  0.55547085  0.91599546  0.18651088  1
  O  O309  1  0.55510083  0.91640505  0.43635835  1
  O  O310  1  0.55989229  0.91655754  0.68831558  1
  O  O311  1  0.55672450  0.91646076  0.93603306  1
  O  O312  1  0.43978154  0.08358747  0.06232479  1
  O  O313  1  0.44078089  0.08263433  0.31215335  1
  O  O314  1  0.44384984  0.08318093  0.56345123  1
  O  O315  1  0.44315159  0.08312759  0.81401149  1
  O  O316  1  0.44108683  0.41653059  0.06178720  1
  O  O317  1  0.44354169  0.41667152  0.31359743  1
  O  O318  1  0.44182677  0.41673751  0.56262526  1
  O  O319  1  0.44118435  0.41724756  0.81303515  1
  O  O320  1  0.43983160  0.74978327  0.06229387  1
  O  O321  1  0.44099195  0.75056814  0.31258412  1
  O  O322  1  0.44108921  0.75054769  0.56300653  1
  O  O323  1  0.43984733  0.75002861  0.81262889  1
  O  O324  1  0.94224070  0.08330327  0.06249329  1
  O  O325  1  0.94416759  0.08306838  0.31267505  1
  O  O326  1  0.94305128  0.08319298  0.56392627  1
  O  O327  1  0.94168954  0.08239357  0.81285681  1
  O  O328  1  0.94376190  0.41693299  0.06351023  1
  O  O329  1  0.94327159  0.41699653  0.31306128  1
  O  O330  1  0.94298937  0.41672676  0.56429618  1
  O  O331  1  0.94132258  0.41710324  0.81240880  1
  O  O332  1  0.94187017  0.74971941  0.06319042  1
  O  O333  1  0.94183694  0.74976759  0.31197417  1
  O  O334  1  0.94297981  0.74986614  0.56381974  1
  O  O335  1  0.94140822  0.75038857  0.81251036  1
  O  O336  1  0.19474078  0.08342755  0.06090530  1
  O  O337  1  0.19463154  0.08264505  0.31194021  1
  O  O338  1  0.19322844  0.08353766  0.56219981  1
  O  O339  1  0.19021804  0.08334857  0.81318543  1
  O  O340  1  0.19508588  0.41675746  0.06124111  1
  O  O341  1  0.19458121  0.41671649  0.31218557  1
  O  O342  1  0.19426246  0.41696995  0.56230490  1
  O  O343  1  0.19384465  0.41710644  0.81129004  1
  O  O344  1  0.19159962  0.74980180  0.06240094  1
  O  O345  1  0.19170218  0.74994279  0.31262449  1
  O  O346  1  0.19331871  0.74927159  0.56133965  1
  O  O347  1  0.19120281  0.74980616  0.81308401  1
  O  O348  1  0.69352478  0.08295008  0.06159453  1
  O  O349  1  0.69297711  0.08254676  0.31114926  1
  O  O350  1  0.69397296  0.08300613  0.56156199  1
  O  O351  1  0.69513954  0.08297004  0.81219064  1
  O  O352  1  0.68945071  0.41657549  0.06185244  1
  O  O353  1  0.69251898  0.41746728  0.31079399  1
  O  O354  1  0.69049782  0.41719220  0.56370297  1
  O  O355  1  0.69114949  0.41706974  0.81303634  1
  O  O356  1  0.69114695  0.75053527  0.06254420  1
  O  O357  1  0.68989789  0.75033038  0.31215526  1
  O  O358  1  0.68956927  0.74953890  0.56213258  1
  O  O359  1  0.69410504  0.74995045  0.81150930  1
  O  O360  1  0.30846076  0.25006870  0.18728661  1
  O  O361  1  0.30698553  0.24986300  0.43924688  1
  O  O362  1  0.30965364  0.25024493  0.68676223  1
  O  O363  1  0.30635223  0.25027373  0.93822928  1
  O  O364  1  0.30692160  0.58392912  0.18897224  1
  O  O365  1  0.30975764  0.58404200  0.43748547  1
  O  O366  1  0.30868659  0.58358858  0.68677417  1
  O  O367  1  0.30522056  0.58347399  0.93788782  1
  O  O368  1  0.30843826  0.91599809  0.18739562  1
  O  O369  1  0.30795382  0.91582042  0.43747808  1
  O  O370  1  0.30516374  0.91604436  0.68816160  1
  O  O371  1  0.30620077  0.91651546  0.93822512  1
  O  O372  1  0.80574451  0.25064184  0.18783607  1
  O  O373  1  0.80576027  0.25068658  0.43898862  1
  O  O374  1  0.80885888  0.25042429  0.68801257  1
  O  O375  1  0.80984756  0.24992211  0.93721532  1
  O  O376  1  0.80494881  0.58386130  0.18794605  1
  O  O377  1  0.80611276  0.58355096  0.43913505  1
  O  O378  1  0.80867077  0.58339456  0.68792963  1
  O  O379  1  0.80973889  0.58394431  0.93713756  1
  O  O380  1  0.80703601  0.91558318  0.18883940  1
  O  O381  1  0.80957300  0.91600997  0.43668619  1
  O  O382  1  0.80651026  0.91591496  0.68859185  1
  O  O383  1  0.80983258  0.91608134  0.93725754  1
  O  O384  1  0.23323244  0.25014789  0.03981369  1
  O  O385  1  0.23371241  0.24945069  0.28806949  1
  O  O386  1  0.23464483  0.25007312  0.54159188  1
  O  O387  1  0.23485764  0.25075048  0.78727155  1
  O  O388  1  0.23220174  0.58349745  0.03988620  1
  O  O389  1  0.23490565  0.58362736  0.29113779  1
  O  O390  1  0.23610835  0.58409473  0.53879539  1
  O  O391  1  0.23360594  0.58342952  0.78735237  1
  O  O392  1  0.23415334  0.91677771  0.04037688  1
  O  O393  1  0.23407481  0.91632814  0.28816134  1
  O  O394  1  0.23289598  0.91554321  0.53784443  1
  O  O395  1  0.23140228  0.91587473  0.78969246  1
  O  O396  1  0.73514828  0.24964697  0.03771422  1
  O  O397  1  0.73092114  0.25081861  0.28838605  1
  O  O398  1  0.73227279  0.24985368  0.54070246  1
  O  O399  1  0.73601315  0.24996375  0.78964022  1
  O  O400  1  0.73486086  0.58415287  0.03738958  1
  O  O401  1  0.73077299  0.58386675  0.28920749  1
  O  O402  1  0.73356495  0.58328442  0.54105449  1
  O  O403  1  0.73569269  0.58412596  0.78959780  1
  O  O404  1  0.73577763  0.91631488  0.03851568  1
  O  O405  1  0.73423167  0.91615535  0.29061454  1
  O  O406  1  0.73463915  0.91644950  0.53704258  1
  O  O407  1  0.73369715  0.91614087  0.79062429  1
  O  O408  1  0.26808317  0.08276865  0.21044748  1
  O  O409  1  0.26626292  0.08306341  0.46037700  1
  O  O410  1  0.26464463  0.08240413  0.71229039  1
  O  O411  1  0.26776547  0.08369481  0.95942303  1
  O  O412  1  0.26698903  0.41689866  0.21005710  1
  O  O413  1  0.26903144  0.41674330  0.46170241  1
  O  O414  1  0.26816577  0.41765885  0.71053476  1
  O  O415  1  0.26839557  0.41665629  0.95962466  1
  O  O416  1  0.26657949  0.75053539  0.21233450  1
  O  O417  1  0.26730066  0.74999825  0.46050032  1
  O  O418  1  0.26604440  0.74968163  0.71220116  1
  O  O419  1  0.26604913  0.74988965  0.96190639  1
  O  O420  1  0.76609941  0.08293952  0.20949969  1
  O  O421  1  0.76596837  0.08442706  0.45903106  1
  O  O422  1  0.76909201  0.08240146  0.71115242  1
  O  O423  1  0.76876668  0.08284699  0.96126169  1
  O  O424  1  0.76444726  0.41735052  0.20810659  1
  O  O425  1  0.76444283  0.41679733  0.46225341  1
  O  O426  1  0.76660802  0.41661373  0.71334855  1
  O  O427  1  0.76461366  0.41683525  0.96196508  1
  O  O428  1  0.76550133  0.75006980  0.21206154  1
  O  O429  1  0.76398566  0.74955059  0.46168003  1
  O  O430  1  0.76780084  0.75046409  0.71039071  1
  O  O431  1  0.76738375  0.75054723  0.96292940  1
  O  O432  1  0.01663480  0.08304614  0.16307483  1
  O  O433  1  0.01658026  0.08282241  0.41505849  1
  O  O434  1  0.01513729  0.08374633  0.66623458  1
  O  O435  1  0.01662143  0.08258570  0.91344609  1
  O  O436  1  0.01739723  0.41727473  0.16459224  1
  O  O437  1  0.01612734  0.41691914  0.41530396  1
  O  O438  1  0.01495727  0.41680710  0.66704695  1
  O  O439  1  0.01558400  0.41702461  0.91327653  1
  O  O440  1  0.01704290  0.74974646  0.16315186  1
  O  O441  1  0.01703794  0.75015744  0.41268752  1
  O  O442  1  0.01548447  0.74942335  0.66570202  1
  O  O443  1  0.01655714  0.74994597  0.91270672  1
  O  O444  1  0.51368372  0.08273926  0.16346520  1
  O  O445  1  0.51485248  0.08253504  0.41338368  1
  O  O446  1  0.51679079  0.08407413  0.66529175  1
  O  O447  1  0.51598008  0.08309312  0.91600891  1
  O  O448  1  0.51642985  0.41683971  0.16220308  1
  O  O449  1  0.51579175  0.41748598  0.41555812  1
  O  O450  1  0.51638866  0.41697171  0.66330997  1
  O  O451  1  0.51629352  0.41647452  0.91330378  1
  O  O452  1  0.51517544  0.75012169  0.16246130  1
  O  O453  1  0.51552348  0.75017297  0.41342560  1
  O  O454  1  0.51596721  0.74967191  0.66342003  1
  O  O455  1  0.51450877  0.75006716  0.91307600  1
  O  O456  1  0.48253473  0.24981557  0.08737023  1
  O  O457  1  0.48466974  0.25029835  0.33630568  1
  O  O458  1  0.48307766  0.25058255  0.58555546  1
  O  O459  1  0.48379720  0.25066755  0.83483543  1
  O  O460  1  0.48463360  0.58380958  0.08604346  1
  O  O461  1  0.48198885  0.58408583  0.33474129  1
  O  O462  1  0.48199916  0.58356006  0.58651210  1
  O  O463  1  0.48339757  0.58323469  0.83480652  1
  O  O464  1  0.48128537  0.91602281  0.08573786  1
  O  O465  1  0.48097792  0.91525093  0.33526385  1
  O  O466  1  0.48482047  0.91610396  0.58784723  1
  O  O467  1  0.48418892  0.91654522  0.83411089  1
  O  O468  1  0.98614257  0.25005395  0.08634223  1
  O  O469  1  0.98447375  0.24993167  0.33383112  1
  O  O470  1  0.98070954  0.25049904  0.58594402  1
  O  O471  1  0.98335853  0.24946354  0.83911333  1
  O  O472  1  0.98491875  0.58373835  0.08413463  1
  O  O473  1  0.98386949  0.58410110  0.33483871  1
  O  O474  1  0.98252058  0.58327443  0.58818422  1
  O  O475  1  0.98427046  0.58398284  0.83793891  1
  O  O476  1  0.98558164  0.91558746  0.08722243  1
  O  O477  1  0.98483388  0.91601867  0.33614962  1
  O  O478  1  0.98508304  0.91609669  0.58664587  1
  O  O479  1  0.98263905  0.91618419  0.83566169  1
  O  O480  1  0.08986757  0.31500898  0.07658161  1
  O  O481  1  0.08863794  0.31504466  0.32702442  1
  O  O482  1  0.08461122  0.31549820  0.57743066  1
  O  O483  1  0.08676573  0.31426735  0.82744751  1
  O  O484  1  0.08832538  0.64987559  0.07692222  1
  O  O485  1  0.08766270  0.64928133  0.32805969  1
  O  O486  1  0.08628670  0.64794161  0.57782555  1
  O  O487  1  0.08781417  0.64945499  0.82752707  1
  O  O488  1  0.08897663  0.98038867  0.07756026  1
  O  O489  1  0.08884442  0.98037583  0.32688434  1
  O  O490  1  0.08866972  0.98138857  0.57753992  1
  O  O491  1  0.08662644  0.98123926  0.82753982  1
  O  O492  1  0.58611366  0.31524540  0.07786107  1
  O  O493  1  0.58849012  0.31493621  0.32745379  1
  O  O494  1  0.58680070  0.31620152  0.57763900  1
  O  O495  1  0.58755001  0.31573450  0.82798898  1
  O  O496  1  0.58780034  0.64952232  0.07807687  1
  O  O497  1  0.58566821  0.64986544  0.32707320  1
  O  O498  1  0.58561147  0.64864305  0.57801972  1
  O  O499  1  0.58738639  0.64761245  0.82721707  1
  O  O500  1  0.58534945  0.98040475  0.07692070  1
  O  O501  1  0.58456065  0.98044569  0.32641159  1
  O  O502  1  0.58834877  0.98088145  0.57807685  1
  O  O503  1  0.58832529  0.98155755  0.82700631  1
  O  O504  1  0.40970910  0.01819901  0.17174007  1
  O  O505  1  0.41166662  0.01660269  0.42166542  1
  O  O506  1  0.41296812  0.01913710  0.67290005  1
  O  O507  1  0.41180414  0.01824478  0.92293464  1
  O  O508  1  0.41326418  0.35085745  0.17188352  1
  O  O509  1  0.41179999  0.35298331  0.42324870  1
  O  O510  1  0.41280327  0.35170090  0.67262836  1
  O  O511  1  0.41224621  0.35208491  0.92292901  1
  O  O512  1  0.41127984  0.68586137  0.17269999  1
  O  O513  1  0.41193984  0.68506734  0.42227116  1
  O  O514  1  0.41214752  0.68430654  0.67256065  1
  O  O515  1  0.41078989  0.68512783  0.92275250  1
  O  O516  1  0.91298980  0.01827671  0.17221367  1
  O  O517  1  0.91327289  0.01691336  0.42145616  1
  O  O518  1  0.91133369  0.01895011  0.67331951  1
  O  O519  1  0.91303967  0.01719316  0.92267859  1
  O  O520  1  0.91378263  0.35199363  0.17296963  1
  O  O521  1  0.91236130  0.35170251  0.42198972  1
  O  O522  1  0.91092242  0.35182327  0.67322405  1
  O  O523  1  0.91199978  0.35205666  0.92215955  1
  O  O524  1  0.91325008  0.68458870  0.17328553  1
  O  O525  1  0.91296446  0.68599234  0.42210087  1
  O  O526  1  0.91158101  0.68421214  0.67292852  1
  O  O527  1  0.91271494  0.68515705  0.92255060  1
  O  O528  1  0.16449308  0.01762770  0.20244303  1
  O  O529  1  0.16283041  0.01757649  0.45311616  1
  O  O530  1  0.16104547  0.01728287  0.70402999  1
  O  O531  1  0.16310017  0.01972980  0.95152853  1
  O  O532  1  0.16366651  0.35100599  0.20308359  1
  O  O533  1  0.16511460  0.35173407  0.45304884  1
  O  O534  1  0.16423359  0.35288073  0.70167954  1
  O  O535  1  0.16458957  0.35150323  0.95194734  1
  O  O536  1  0.16268392  0.68597084  0.20231993  1
  O  O537  1  0.16323330  0.68528464  0.45155246  1
  O  O538  1  0.16278626  0.68435416  0.70300986  1
  O  O539  1  0.16257493  0.68403032  0.95250240  1
  O  O540  1  0.66227996  0.01819159  0.20182806  1
  O  O541  1  0.66233985  0.01934675  0.45188833  1
  O  O542  1  0.66530339  0.01698967  0.70304250  1
  O  O543  1  0.66498967  0.01793220  0.95204726  1
  O  O544  1  0.66040744  0.35231441  0.20182730  1
  O  O545  1  0.66134380  0.35067640  0.45446698  1
  O  O546  1  0.66255941  0.35207694  0.70300335  1
  O  O547  1  0.66113191  0.35146222  0.95179289  1
  O  O548  1  0.66172722  0.68456588  0.20224115  1
  O  O549  1  0.66017704  0.68469013  0.45228433  1
  O  O550  1  0.66341099  0.68626878  0.70169891  1
  O  O551  1  0.66387575  0.68565715  0.95204610  1
  O  O552  1  0.33727082  0.31517933  0.04769066  1
  O  O553  1  0.33748731  0.31399950  0.29736181  1
  O  O554  1  0.33858397  0.31569989  0.54796050  1
  O  O555  1  0.33821094  0.31628958  0.79622850  1
  O  O556  1  0.33605360  0.64833847  0.04716597  1
  O  O557  1  0.33822949  0.65009889  0.29757748  1
  O  O558  1  0.33964908  0.64930290  0.54715673  1
  O  O559  1  0.33692558  0.64870637  0.79678602  1
  O  O560  1  0.33817125  0.98154965  0.04715642  1
  O  O561  1  0.33779083  0.98140650  0.29719554  1
  O  O562  1  0.33652721  0.98028255  0.54774747  1
  O  O563  1  0.33552333  0.98030056  0.79752632  1
  O  O564  1  0.83855800  0.31434886  0.04735315  1
  O  O565  1  0.83460604  0.31574770  0.29752876  1
  O  O566  1  0.83593938  0.31532225  0.54868309  1
  O  O567  1  0.83965310  0.31523875  0.79776004  1
  O  O568  1  0.83820198  0.64969817  0.04691401  1
  O  O569  1  0.83453150  0.64942713  0.29737696  1
  O  O570  1  0.83760811  0.64834340  0.54822526  1
  O  O571  1  0.83974938  0.64871948  0.79718933  1
  O  O572  1  0.83937537  0.98151391  0.04672400  1
  O  O573  1  0.83901993  0.97974355  0.29792402  1
  O  O574  1  0.83815153  0.98147831  0.54644779  1
  O  O575  1  0.83800407  0.98077564  0.79792290  1
  O  O576  1  0.41033394  0.14843244  0.17233048  1
  O  O577  1  0.41123649  0.14697910  0.42190019  1
  O  O578  1  0.41301979  0.14933770  0.67213097  1
  O  O579  1  0.41202244  0.14810808  0.92319873  1
  O  O580  1  0.41269150  0.48099820  0.17170685  1
  O  O581  1  0.41218051  0.48308425  0.42223535  1
  O  O582  1  0.41249072  0.48180341  0.67258786  1
  O  O583  1  0.41275275  0.48190154  0.92330395  1
  O  O584  1  0.41157586  0.81572748  0.17225440  1
  O  O585  1  0.41170823  0.81508350  0.42292153  1
  O  O586  1  0.41197093  0.81420541  0.67348296  1
  O  O587  1  0.41068068  0.81500264  0.92237316  1
  O  O588  1  0.91317776  0.14833055  0.17242123  1
  O  O589  1  0.91255543  0.14728936  0.42164414  1
  O  O590  1  0.91130314  0.14909911  0.67269959  1
  O  O591  1  0.91268533  0.14737259  0.92290211  1
  O  O592  1  0.91353124  0.48205410  0.17280597  1
  O  O593  1  0.91227340  0.48186539  0.42215320  1
  O  O594  1  0.91097596  0.48188766  0.67321873  1
  O  O595  1  0.91221940  0.48244386  0.92197711  1
  O  O596  1  0.91308186  0.81432586  0.17346514  1
  O  O597  1  0.91383349  0.81606153  0.42169456  1
  O  O598  1  0.91155910  0.81411551  0.67328294  1
  O  O599  1  0.91303093  0.81527443  0.92273868  1
  O  O600  1  0.08983219  0.18504277  0.07653819  1
  O  O601  1  0.08856995  0.18508517  0.32659620  1
  O  O602  1  0.08457136  0.18555933  0.57754040  1
  O  O603  1  0.08663293  0.18402862  0.82828968  1
  O  O604  1  0.08935068  0.51986038  0.07621001  1
  O  O605  1  0.08769318  0.51917496  0.32797725  1
  O  O606  1  0.08603192  0.51803674  0.57783368  1
  O  O607  1  0.08810876  0.51938498  0.82667887  1
  O  O608  1  0.08892004  0.85024664  0.07852158  1
  O  O609  1  0.08851658  0.85041179  0.32753703  1
  O  O610  1  0.08889940  0.85139296  0.57723021  1
  O  O611  1  0.08662649  0.85120203  0.82724135  1
  O  O612  1  0.58619564  0.18514065  0.07743189  1
  O  O613  1  0.58814487  0.18490624  0.32692576  1
  O  O614  1  0.58721154  0.18613402  0.57696446  1
  O  O615  1  0.58752094  0.18555195  0.82740914  1
  O  O616  1  0.58831915  0.51914091  0.07841151  1
  O  O617  1  0.58630795  0.51997132  0.32667283  1
  O  O618  1  0.58567685  0.51848092  0.57814195  1
  O  O619  1  0.58694518  0.51747879  0.82782536  1
  O  O620  1  0.58501083  0.85031994  0.07714767  1
  O  O621  1  0.58495934  0.85048407  0.32721431  1
  O  O622  1  0.58802319  0.85052886  0.57868017  1
  O  O623  1  0.58822394  0.85163755  0.82681441  1
  O  O624  1  0.33714007  0.18506039  0.04743266  1
  O  O625  1  0.33709236  0.18390874  0.29687611  1
  O  O626  1  0.33886195  0.18576283  0.54860006  1
  O  O627  1  0.33829668  0.18597238  0.79690670  1
  O  O628  1  0.33607658  0.51827867  0.04703154  1
  O  O629  1  0.33960426  0.52006762  0.29798621  1
  O  O630  1  0.33993589  0.51911488  0.54726498  1
  O  O631  1  0.33734552  0.51856207  0.79662493  1
  O  O632  1  0.33777196  0.85141324  0.04746404  1
  O  O633  1  0.33772900  0.85134790  0.29754656  1
  O  O634  1  0.33644460  0.85021275  0.54726657  1
  O  O635  1  0.33502576  0.85031151  0.79730316  1
  O  O636  1  0.83864834  0.18404068  0.04673390  1
  O  O637  1  0.83467584  0.18561605  0.29749529  1
  O  O638  1  0.83669359  0.18550983  0.54804685  1
  O  O639  1  0.83997250  0.18500130  0.79726428  1
  O  O640  1  0.83821787  0.51945925  0.04734693  1
  O  O641  1  0.83472521  0.51931890  0.29748067  1
  O  O642  1  0.83767717  0.51848399  0.54828909  1
  O  O643  1  0.83923463  0.51854115  0.79767806  1
  O  O644  1  0.83929401  0.85122789  0.04705693  1
  O  O645  1  0.83765284  0.84967719  0.29784454  1
  O  O646  1  0.83800479  0.85144481  0.54688341  1
  O  O647  1  0.83759041  0.85087754  0.79798443  1
  O  O648  1  0.16433477  0.14777171  0.20262337  1
  O  O649  1  0.16257483  0.14791907  0.45295563  1
  O  O650  1  0.16141816  0.14768315  0.70299959  1
  O  O651  1  0.16398101  0.14964934  0.95192751  1
  O  O652  1  0.16307781  0.48119778  0.20302264  1
  O  O653  1  0.16537537  0.48192036  0.45269665  1
  O  O654  1  0.16442213  0.48303971  0.70199976  1
  O  O655  1  0.16439117  0.48165893  0.95205999  1
  O  O656  1  0.16293503  0.81589135  0.20280399  1
  O  O657  1  0.16322037  0.81515093  0.45203664  1
  O  O658  1  0.16234178  0.81454593  0.70328780  1
  O  O659  1  0.16183877  0.81391772  0.95223414  1
  O  O660  1  0.66237415  0.14851288  0.20218905  1
  O  O661  1  0.66201388  0.14951581  0.45347787  1
  O  O662  1  0.66517288  0.14710572  0.70257911  1
  O  O663  1  0.66511569  0.14796248  0.95175717  1
  O  O664  1  0.66042126  0.48254907  0.20205821  1
  O  O665  1  0.66068570  0.48082150  0.45348238  1
  O  O666  1  0.66302155  0.48198954  0.70273409  1
  O  O667  1  0.66080904  0.48145177  0.95172377  1
  O  O668  1  0.66158405  0.81457503  0.20169875  1
  O  O669  1  0.66026120  0.81454449  0.45193248  1
  O  O670  1  0.66393603  0.81621365  0.70249969  1
  O  O671  1  0.66380067  0.81552843  0.95241091  1
