# generated using pymatgen
data_Na2MnFe(PO4)2
_symmetry_space_group_name_H-M   'P 1'
_cell_length_a   21.07860967
_cell_length_b   18.93052164
_cell_length_c   20.03859950
_cell_angle_alpha   90.00073138
_cell_angle_beta   89.99867193
_cell_angle_gamma   90.00028719
_symmetry_Int_Tables_number   1
_chemical_formula_structural   Na2MnFe(PO4)2
_chemical_formula_sum   'Na96 Mn48 Fe48 P96 O384'
_cell_volume   7995.98384788
_cell_formula_units_Z   48
loop_
 _symmetry_equiv_pos_site_id
 _symmetry_equiv_pos_as_xyz
  1  'x, y, z'
loop_
 _atom_site_type_symbol
 _atom_site_label
 _atom_site_symmetry_multiplicity
 _atom_site_fract_x
 _atom_site_fract_y
 _atom_site_fract_z
 _atom_site_occupancy
  Na  Na0  1  -0.00103524  -0.00030653  -0.00082010  1
  Na  Na1  1  -0.00010626  0.00065872  0.25087650  1
  Na  Na2  1  -0.00104102  -0.00058352  0.50016715  1
  Na  Na3  1  0.00026985  -0.00016365  0.74951921  1
  Na  Na4  1  0.00089532  0.33351008  0.00056089  1
  Na  Na5  1  -0.00121998  0.33261619  0.24845389  1
  Na  Na6  1  -0.00166867  0.33220082  0.49998670  1
  Na  Na7  1  -0.00042458  0.33263246  0.75109950  1
  Na  Na8  1  -0.00067856  0.66708990  -0.00001398  1
  Na  Na9  1  -0.00048090  0.66675967  0.24962986  1
  Na  Na10  1  0.00191645  0.66688900  0.50013838  1
  Na  Na11  1  0.00072616  0.66696023  0.75035538  1
  Na  Na12  1  0.50164053  0.00025251  0.00013951  1
  Na  Na13  1  0.50030479  0.00056730  0.24984276  1
  Na  Na14  1  0.49850892  -0.00034272  0.50044334  1
  Na  Na15  1  0.50083528  0.00022444  0.74942007  1
  Na  Na16  1  0.50142783  0.33381288  -0.00048306  1
  Na  Na17  1  0.49909335  0.33264297  0.24948627  1
  Na  Na18  1  0.49875750  0.33300020  0.50065747  1
  Na  Na19  1  0.49854611  0.33245546  0.75062885  1
  Na  Na20  1  0.50093503  0.66764063  -0.00133644  1
  Na  Na21  1  0.49957941  0.66652504  0.25123723  1
  Na  Na22  1  0.50035803  0.66720639  0.49927094  1
  Na  Na23  1  0.49843074  0.66603073  0.75101144  1
  Na  Na24  1  0.25072382  0.00054020  0.12493392  1
  Na  Na25  1  0.24911242  0.00084455  0.37433859  1
  Na  Na26  1  0.24649840  -0.00103193  0.62502974  1
  Na  Na27  1  0.25061254  0.00073143  0.87576840  1
  Na  Na28  1  0.24884152  0.33194597  0.12460329  1
  Na  Na29  1  0.25128763  0.33426727  0.37548583  1
  Na  Na30  1  0.25034356  0.33350216  0.62508266  1
  Na  Na31  1  0.25070967  0.33364254  0.87495271  1
  Na  Na32  1  0.24887367  0.66665714  0.12511932  1
  Na  Na33  1  0.24808746  0.66712973  0.37368525  1
  Na  Na34  1  0.24775722  0.66679055  0.62581641  1
  Na  Na35  1  0.24913505  0.66725251  0.87602681  1
  Na  Na36  1  0.74853882  -0.00067709  0.12376920  1
  Na  Na37  1  0.75363138  0.00100955  0.37523260  1
  Na  Na38  1  0.75250953  0.00025313  0.62538496  1
  Na  Na39  1  0.74900629  -0.00043292  0.87505868  1
  Na  Na40  1  0.74936438  0.33252344  0.12452589  1
  Na  Na41  1  0.75196108  0.33317585  0.37572694  1
  Na  Na42  1  0.75170673  0.33331713  0.62548713  1
  Na  Na43  1  0.75077356  0.33348587  0.87371794  1
  Na  Na44  1  0.75154364  0.66717151  0.12502807  1
  Na  Na45  1  0.75126593  0.66649628  0.37478392  1
  Na  Na46  1  0.75093986  0.66701064  0.62454142  1
  Na  Na47  1  0.75101048  0.66741109  0.87572519  1
  Na  Na48  1  0.00059579  0.16568982  -0.00079604  1
  Na  Na49  1  -0.00104592  0.16651439  0.24959599  1
  Na  Na50  1  -0.00056084  0.16557055  0.50002101  1
  Na  Na51  1  -0.00172075  0.16716655  0.75071107  1
  Na  Na52  1  -0.00100821  0.50071869  0.00087193  1
  Na  Na53  1  -0.00035577  0.50056187  0.24924916  1
  Na  Na54  1  0.00248577  0.49987396  0.50029285  1
  Na  Na55  1  0.00354699  0.49881301  0.75024440  1
  Na  Na56  1  0.00034150  0.83238037  -0.00006393  1
  Na  Na57  1  -0.00124361  0.83385642  0.24982527  1
  Na  Na58  1  -0.00015306  0.83344364  0.50028636  1
  Na  Na59  1  -0.00104573  0.83390757  0.75007703  1
  Na  Na60  1  0.50138571  0.16583680  -0.00005622  1
  Na  Na61  1  0.49918541  0.16594330  0.24983503  1
  Na  Na62  1  0.49725911  0.16672881  0.50001360  1
  Na  Na63  1  0.49904253  0.16647694  0.74989727  1
  Na  Na64  1  0.50128437  0.50007080  -0.00119878  1
  Na  Na65  1  0.50047118  0.50064747  0.25051009  1
  Na  Na66  1  0.50071427  0.49990236  0.49985486  1
  Na  Na67  1  0.50036753  0.50004229  0.75078687  1
  Na  Na68  1  0.50108668  0.83306474  -0.00074143  1
  Na  Na69  1  0.49974771  0.83332717  0.25045224  1
  Na  Na70  1  0.50019122  0.83282527  0.50036970  1
  Na  Na71  1  0.49896519  0.83448849  0.75029984  1
  Na  Na72  1  0.25040819  0.16605330  0.12501271  1
  Na  Na73  1  0.25020269  0.16558528  0.37536813  1
  Na  Na74  1  0.24909527  0.16605798  0.62424763  1
  Na  Na75  1  0.25084308  0.16639962  0.87544285  1
  Na  Na76  1  0.25107481  0.49961196  0.12499032  1
  Na  Na77  1  0.24754035  0.50168297  0.37466880  1
  Na  Na78  1  0.24723811  0.50041077  0.62535765  1
  Na  Na79  1  0.24785397  0.50057071  0.87512950  1
  Na  Na80  1  0.24948473  0.83296026  0.12398432  1
  Na  Na81  1  0.24778830  0.83399658  0.37417562  1
  Na  Na82  1  0.24911659  0.83314083  0.62576231  1
  Na  Na83  1  0.24989666  0.83338677  0.87668332  1
  Na  Na84  1  0.74876237  0.16702029  0.12365396  1
  Na  Na85  1  0.75313258  0.16564290  0.37536917  1
  Na  Na86  1  0.75312965  0.16579832  0.62603247  1
  Na  Na87  1  0.74977571  0.16662176  0.87487243  1
  Na  Na88  1  0.75154350  0.49968823  0.12539608  1
  Na  Na89  1  0.75087099  0.50084967  0.37461568  1
  Na  Na90  1  0.74915322  0.50067302  0.62518769  1
  Na  Na91  1  0.74851714  0.50092884  0.87443855  1
  Na  Na92  1  0.74966966  0.83367860  0.12408350  1
  Na  Na93  1  0.75221760  0.83312012  0.37561636  1
  Na  Na94  1  0.75232767  0.83377921  0.62420252  1
  Na  Na95  1  0.75166453  0.83300345  0.87543657  1
  Mn  Mn96  1  0.64227567  0.58471950  0.74723233  1
  Mn  Mn97  1  0.89194309  0.24957322  0.12619693  1
  Mn  Mn98  1  0.10746325  0.08299781  0.87257834  1
  Mn  Mn99  1  0.35785675  0.41683671  0.25220296  1
  Mn  Mn100  1  0.64303325  0.24928755  0.74758333  1
  Mn  Mn101  1  0.14217059  0.24975365  0.74790815  1
  Mn  Mn102  1  0.60800082  0.41573271  0.37323553  1
  Mn  Mn103  1  0.85836571  0.41629321  0.25273866  1
  Mn  Mn104  1  0.39109208  0.91701688  0.37746482  1
  Mn  Mn105  1  0.60836481  0.08341761  0.62238977  1
  Mn  Mn106  1  0.35805580  0.41651170  0.00204947  1
  Mn  Mn107  1  0.60755987  0.41661114  0.62288875  1
  Mn  Mn108  1  0.60803808  0.08354373  0.37354760  1
  Mn  Mn109  1  0.35637434  0.75057219  0.50219932  1
  Mn  Mn110  1  0.60851334  0.41724023  0.12224052  1
  Mn  Mn111  1  0.89268273  0.58305756  0.87735760  1
  Mn  Mn112  1  0.89328339  0.58286919  0.62740441  1
  Mn  Mn113  1  0.14205768  0.91748290  0.99766594  1
  Mn  Mn114  1  0.85666028  0.08353942  0.00202489  1
  Mn  Mn115  1  0.10743214  0.41642655  0.12227441  1
  Mn  Mn116  1  0.14153141  0.91659057  0.24722675  1
  Mn  Mn117  1  0.89164015  0.91695838  0.12689849  1
  Mn  Mn118  1  0.35698788  0.41730541  0.50264165  1
  Mn  Mn119  1  0.39142355  0.58288867  0.37754014  1
  Mn  Mn120  1  0.64309472  0.91676306  0.24866470  1
  Mn  Mn121  1  0.14206038  0.25020503  0.24817615  1
  Mn  Mn122  1  0.35774646  0.75017495  0.00278745  1
  Mn  Mn123  1  0.85865040  0.41674796  0.50277001  1
  Mn  Mn124  1  0.60832591  0.75060057  0.87199715  1
  Mn  Mn125  1  0.39131975  0.25027107  0.62742549  1
  Mn  Mn126  1  0.39093614  0.91635302  0.62739133  1
  Mn  Mn127  1  0.64311890  0.58378855  0.24733847  1
  Mn  Mn128  1  0.85879313  0.41732005  0.75282176  1
  Mn  Mn129  1  0.39112030  0.58346228  0.62697544  1
  Mn  Mn130  1  0.10786498  0.75039561  0.62304236  1
  Mn  Mn131  1  0.14127043  0.24966196  0.49733311  1
  Mn  Mn132  1  0.35706435  0.08286135  0.75240948  1
  Mn  Mn133  1  0.64242266  0.24946641  0.24868981  1
  Mn  Mn134  1  0.60790457  0.74990059  0.62355595  1
  Mn  Mn135  1  0.64306477  0.24990572  0.49774990  1
  Mn  Mn136  1  0.39272403  0.25058829  0.12696854  1
  Mn  Mn137  1  0.85887002  0.75001318  0.50215191  1
  Mn  Mn138  1  0.39330574  0.91578048  0.12719618  1
  Mn  Mn139  1  0.39196252  0.58312344  0.87745385  1
  Mn  Mn140  1  0.10741519  0.41605636  0.37210147  1
  Mn  Mn141  1  0.14161594  0.58243142  0.99813223  1
  Mn  Mn142  1  0.60823895  0.75034341  0.37254838  1
  Mn  Mn143  1  0.64349606  0.91681944  0.49788555  1
  Fe  Fe144  1  0.35553727  0.08260923  0.50157981  1
  Fe  Fe145  1  0.14275259  0.58381493  0.74899894  1
  Fe  Fe146  1  0.85795543  0.08276550  0.25104580  1
  Fe  Fe147  1  0.10635615  0.75062002  0.12353290  1
  Fe  Fe148  1  0.89233275  0.58358915  0.12659032  1
  Fe  Fe149  1  0.39288854  0.91758526  0.87633363  1
  Fe  Fe150  1  0.14223752  0.58363160  0.24758417  1
  Fe  Fe151  1  0.10618560  0.08367669  0.62345176  1
  Fe  Fe152  1  0.89349008  0.91654277  0.37660859  1
  Fe  Fe153  1  0.35677769  0.75012215  0.25105315  1
  Fe  Fe154  1  0.10779063  0.41543144  0.62364018  1
  Fe  Fe155  1  0.14120471  0.91641328  0.49808592  1
  Fe  Fe156  1  0.60692114  0.08350987  0.87310702  1
  Fe  Fe157  1  0.10770933  0.08301797  0.12337080  1
  Fe  Fe158  1  0.60778789  0.08289230  0.12344749  1
  Fe  Fe159  1  0.14181499  0.58409674  0.49748742  1
  Fe  Fe160  1  0.89334624  0.24981459  0.62700942  1
  Fe  Fe161  1  0.39186219  0.24987238  0.37657573  1
  Fe  Fe162  1  0.10619409  0.08329750  0.37307334  1
  Fe  Fe163  1  0.85784474  0.08245156  0.75245342  1
  Fe  Fe164  1  0.64323551  0.58327636  0.99922527  1
  Fe  Fe165  1  0.39327563  0.58397597  0.12647051  1
  Fe  Fe166  1  0.35807326  0.08355232  0.00173029  1
  Fe  Fe167  1  0.64297570  0.58342718  0.49838408  1
  Fe  Fe168  1  0.39303093  0.24921238  0.87698673  1
  Fe  Fe169  1  0.89255324  0.24990739  0.37676337  1
  Fe  Fe170  1  0.89393550  0.58328303  0.37700253  1
  Fe  Fe171  1  0.14292142  0.24958376  0.99810840  1
  Fe  Fe172  1  0.64244869  0.25067001  0.99721400  1
  Fe  Fe173  1  0.14218312  0.91633426  0.74914770  1
  Fe  Fe174  1  0.35651192  0.41727690  0.75204315  1
  Fe  Fe175  1  0.64257768  0.91616993  0.99755257  1
  Fe  Fe176  1  0.85815476  0.75033272  0.75198793  1
  Fe  Fe177  1  0.10670938  0.75029982  0.37246769  1
  Fe  Fe178  1  0.60801726  0.74995162  0.12379454  1
  Fe  Fe179  1  0.10723818  0.41657934  0.87368395  1
  Fe  Fe180  1  0.89297369  0.25020512  0.87750422  1
  Fe  Fe181  1  0.89259135  0.91673507  0.87627252  1
  Fe  Fe182  1  0.60761860  0.41588584  0.87294510  1
  Fe  Fe183  1  0.85695908  0.41704965  0.00052021  1
  Fe  Fe184  1  0.85723608  0.74943695  0.00182769  1
  Fe  Fe185  1  0.64374076  0.91657588  0.74829647  1
  Fe  Fe186  1  0.35742281  0.08290632  0.25183626  1
  Fe  Fe187  1  0.10665203  0.74997265  0.87346639  1
  Fe  Fe188  1  0.89347487  0.91682585  0.62763149  1
  Fe  Fe189  1  0.85897673  0.08354968  0.50235291  1
  Fe  Fe190  1  0.85802476  0.75061321  0.25187626  1
  Fe  Fe191  1  0.35637491  0.74997264  0.75178522  1
  P  P192  1  0.05417401  0.24844984  0.10913716  1
  P  P193  1  0.05137692  0.24895402  0.35976249  1
  P  P194  1  0.05226144  0.24941157  0.61052570  1
  P  P195  1  0.05340913  0.25048625  0.86157932  1
  P  P196  1  0.05288188  0.58446701  0.11115573  1
  P  P197  1  0.05420954  0.58414778  0.35995285  1
  P  P198  1  0.05587286  0.58270482  0.61099798  1
  P  P199  1  0.05406619  0.58339430  0.86010017  1
  P  P200  1  0.05297142  0.91706343  0.10995662  1
  P  P201  1  0.05327535  0.91677161  0.36123932  1
  P  P202  1  0.05387698  0.91733190  0.61104633  1
  P  P203  1  0.05246319  0.91583612  0.85967169  1
  P  P204  1  0.55457717  0.24916210  0.10932681  1
  P  P205  1  0.55166768  0.24945031  0.36009750  1
  P  P206  1  0.55315252  0.24970487  0.60986615  1
  P  P207  1  0.55381718  0.24952098  0.86097567  1
  P  P208  1  0.55309077  0.58479609  0.10935650  1
  P  P209  1  0.55476209  0.58315995  0.36093598  1
  P  P210  1  0.55334759  0.58379013  0.60923112  1
  P  P211  1  0.55521513  0.58284049  0.86124573  1
  P  P212  1  0.55491930  0.91615052  0.10974712  1
  P  P213  1  0.55306361  0.91721904  0.36013118  1
  P  P214  1  0.55437287  0.91643486  0.61090724  1
  P  P215  1  0.55443527  0.91770782  0.86018415  1
  P  P216  1  0.44658184  0.08313382  0.13913725  1
  P  P217  1  0.44425059  0.08386331  0.38978923  1
  P  P218  1  0.44507558  0.08286490  0.63916116  1
  P  P219  1  0.44693860  0.08294597  0.89022220  1
  P  P220  1  0.44727768  0.41811687  0.13965795  1
  P  P221  1  0.44615328  0.41579567  0.39033003  1
  P  P222  1  0.44551052  0.41725495  0.64141512  1
  P  P223  1  0.44651024  0.41582848  0.88870220  1
  P  P224  1  0.44781788  0.74910457  0.14043386  1
  P  P225  1  0.44505753  0.75017937  0.38924260  1
  P  P226  1  0.44547767  0.74986749  0.64116536  1
  P  P227  1  0.44503497  0.75128965  0.88856833  1
  P  P228  1  0.94725146  0.08316837  0.14003516  1
  P  P229  1  0.94578730  0.08313922  0.38915042  1
  P  P230  1  0.94609692  0.08304792  0.63972077  1
  P  P231  1  0.94507396  0.08281893  0.88873800  1
  P  P232  1  0.94494678  0.41712167  0.13824635  1
  P  P233  1  0.94686594  0.41702057  0.38983219  1
  P  P234  1  0.94869817  0.41620277  0.64035144  1
  P  P235  1  0.94759731  0.41622340  0.89094201  1
  P  P236  1  0.94536681  0.74969325  0.13915762  1
  P  P237  1  0.94707811  0.74977264  0.38860345  1
  P  P238  1  0.94651852  0.75042867  0.64070767  1
  P  P239  1  0.94573749  0.75083476  0.88948325  1
  P  P240  1  0.19589017  0.08343161  0.23551123  1
  P  P241  1  0.19425046  0.08235823  0.48541811  1
  P  P242  1  0.19535324  0.08250224  0.73455815  1
  P  P243  1  0.19673948  0.08411948  0.98607109  1
  P  P244  1  0.19644411  0.41736619  0.23466927  1
  P  P245  1  0.19471162  0.41703066  0.48592560  1
  P  P246  1  0.19568558  0.41703643  0.73612085  1
  P  P247  1  0.19595763  0.41545976  0.98440174  1
  P  P248  1  0.19514481  0.74966124  0.23494024  1
  P  P249  1  0.19488263  0.75064571  0.48408936  1
  P  P250  1  0.19578409  0.75051927  0.73725579  1
  P  P251  1  0.19415082  0.75001448  0.98585650  1
  P  P252  1  0.69797794  0.08313684  0.23456061  1
  P  P253  1  0.69937512  0.08334566  0.48522271  1
  P  P254  1  0.69709070  0.08226393  0.73633853  1
  P  P255  1  0.69403926  0.08330771  0.98520470  1
  P  P256  1  0.69734268  0.41633364  0.23505541  1
  P  P257  1  0.69739781  0.41726146  0.48510516  1
  P  P258  1  0.69608163  0.41640148  0.73581419  1
  P  P259  1  0.69717868  0.41705612  0.98423359  1
  P  P260  1  0.69825812  0.75045084  0.23444694  1
  P  P261  1  0.69726089  0.74955663  0.48504121  1
  P  P262  1  0.69885366  0.75165749  0.73494114  1
  P  P263  1  0.69648350  0.74956182  0.98630355  1
  P  P264  1  0.30386422  0.24911043  0.01384422  1
  P  P265  1  0.30381924  0.24904918  0.26549059  1
  P  P266  1  0.30358850  0.24894212  0.51379845  1
  P  P267  1  0.30374877  0.25047259  0.76582509  1
  P  P268  1  0.30366362  0.58335735  0.01600521  1
  P  P269  1  0.30316001  0.58459947  0.26343643  1
  P  P270  1  0.30059934  0.58407079  0.51509477  1
  P  P271  1  0.30179295  0.58345443  0.76518072  1
  P  P272  1  0.30488370  0.91787049  0.01402751  1
  P  P273  1  0.30319349  0.91621668  0.26423141  1
  P  P274  1  0.30060955  0.91745310  0.51486305  1
  P  P275  1  0.30198752  0.91601704  0.76602593  1
  P  P276  1  0.80291950  0.25099854  0.01300848  1
  P  P277  1  0.80429092  0.24855750  0.26528217  1
  P  P278  1  0.80610847  0.24918261  0.51515548  1
  P  P279  1  0.80637480  0.24907578  0.76468393  1
  P  P280  1  0.80324329  0.58301769  0.01506182  1
  P  P281  1  0.80606994  0.58459930  0.26444218  1
  P  P282  1  0.80413075  0.58337589  0.51420058  1
  P  P283  1  0.80373710  0.58447422  0.76511921  1
  P  P284  1  0.80323997  0.91613179  0.01320675  1
  P  P285  1  0.80469514  0.91665236  0.26525546  1
  P  P286  1  0.80683584  0.91758842  0.51463035  1
  P  P287  1  0.80486098  0.91667584  0.76457143  1
  O  O288  1  0.05690762  0.24932172  0.18594856  1
  O  O289  1  0.05504147  0.24934989  0.43646269  1
  O  O290  1  0.05580019  0.24957486  0.68723300  1
  O  O291  1  0.05835619  0.24961926  0.93818882  1
  O  O292  1  0.05761160  0.58373683  0.18784126  1
  O  O293  1  0.05848693  0.58374757  0.43675731  1
  O  O294  1  0.05978574  0.58372743  0.68781850  1
  O  O295  1  0.05604808  0.58352951  0.93693627  1
  O  O296  1  0.05558133  0.91711139  0.18677896  1
  O  O297  1  0.05716661  0.91656499  0.43796116  1
  O  O298  1  0.05855138  0.91639149  0.68771376  1
  O  O299  1  0.05612923  0.91660543  0.93638678  1
  O  O300  1  0.55716781  0.24961863  0.18614943  1
  O  O301  1  0.55594127  0.24934537  0.43678996  1
  O  O302  1  0.55691167  0.24930978  0.68666948  1
  O  O303  1  0.55857903  0.25019370  0.93768480  1
  O  O304  1  0.55665100  0.58411761  0.18613533  1
  O  O305  1  0.55955564  0.58348623  0.43767084  1
  O  O306  1  0.55654448  0.58407706  0.68612281  1
  O  O307  1  0.55985357  0.58372900  0.93794787  1
  O  O308  1  0.55751088  0.91633495  0.18654915  1
  O  O309  1  0.55675806  0.91704894  0.43690567  1
  O  O310  1  0.55936260  0.91664909  0.68765785  1
  O  O311  1  0.55927011  0.91627381  0.93692688  1
  O  O312  1  0.44196682  0.08321151  0.06243578  1
  O  O313  1  0.44046349  0.08272059  0.31290754  1
  O  O314  1  0.43988555  0.08238790  0.56248243  1
  O  O315  1  0.44322938  0.08287957  0.81348934  1
  O  O316  1  0.44434170  0.41736507  0.06285389  1
  O  O317  1  0.44325690  0.41687049  0.31349989  1
  O  O318  1  0.44223477  0.41745566  0.56457479  1
  O  O319  1  0.44104317  0.41680186  0.81210170  1
  O  O320  1  0.44410566  0.74999139  0.06366497  1
  O  O321  1  0.44028687  0.75019134  0.31250842  1
  O  O322  1  0.44226106  0.75003301  0.56432490  1
  O  O323  1  0.44010207  0.75048212  0.81186163  1
  O  O324  1  0.94285725  0.08297257  0.06331854  1
  O  O325  1  0.94171582  0.08314797  0.31243451  1
  O  O326  1  0.94258388  0.08293105  0.56292557  1
  O  O327  1  0.94173556  0.08264002  0.81194001  1
  O  O328  1  0.94063266  0.41674476  0.06152394  1
  O  O329  1  0.94436712  0.41697788  0.31299101  1
  O  O330  1  0.94492269  0.41724708  0.56365761  1
  O  O331  1  0.94442073  0.41682325  0.81417304  1
  O  O332  1  0.94064143  0.75004212  0.06237410  1
  O  O333  1  0.94287511  0.75013383  0.31190458  1
  O  O334  1  0.94396608  0.74951518  0.56387971  1
  O  O335  1  0.94143198  0.75014993  0.81276308  1
  O  O336  1  0.19203062  0.08317521  0.06273702  1
  O  O337  1  0.19029390  0.08343369  0.31217462  1
  O  O338  1  0.18953163  0.08336122  0.56214507  1
  O  O339  1  0.19277849  0.08359699  0.81141515  1
  O  O340  1  0.19295950  0.41614937  0.06121208  1
  O  O341  1  0.19328315  0.41692259  0.31149252  1
  O  O342  1  0.19081958  0.41552813  0.56276037  1
  O  O343  1  0.19100346  0.41597847  0.81282829  1
  O  O344  1  0.18957440  0.75019357  0.06262181  1
  O  O345  1  0.19027399  0.75051698  0.31164814  1
  O  O346  1  0.19266301  0.75080017  0.56099155  1
  O  O347  1  0.19137724  0.75070783  0.81393443  1
  O  O348  1  0.69058109  0.08324265  0.06204342  1
  O  O349  1  0.69441312  0.08320575  0.31130387  1
  O  O350  1  0.69523477  0.08335012  0.56195251  1
  O  O351  1  0.69171810  0.08324572  0.81295682  1
  O  O352  1  0.69419128  0.41660117  0.06104216  1
  O  O353  1  0.69412155  0.41645408  0.31182012  1
  O  O354  1  0.69417624  0.41650673  0.56192431  1
  O  O355  1  0.69130161  0.41596221  0.81258237  1
  O  O356  1  0.69195557  0.74975270  0.06296648  1
  O  O357  1  0.69435994  0.75017342  0.31116479  1
  O  O358  1  0.69402792  0.75025755  0.56180208  1
  O  O359  1  0.69494834  0.75099302  0.81166783  1
  O  O360  1  0.30677002  0.24960342  0.18863353  1
  O  O361  1  0.30758522  0.24976299  0.43707661  1
  O  O362  1  0.30613843  0.24962965  0.68897216  1
  O  O363  1  0.30897503  0.24964994  0.93717599  1
  O  O364  1  0.30844777  0.58399545  0.18683084  1
  O  O365  1  0.30469476  0.58387616  0.43836305  1
  O  O366  1  0.30483519  0.58335276  0.68849695  1
  O  O367  1  0.30678311  0.58365370  0.93915827  1
  O  O368  1  0.30659564  0.91610750  0.18746889  1
  O  O369  1  0.30449439  0.91719180  0.43818275  1
  O  O370  1  0.30511482  0.91657345  0.68925067  1
  O  O371  1  0.30908773  0.91744732  0.93729788  1
  O  O372  1  0.80664925  0.24939027  0.18842972  1
  O  O373  1  0.81011289  0.24986476  0.43832197  1
  O  O374  1  0.81071690  0.25011285  0.68783462  1
  O  O375  1  0.80818525  0.25030480  0.93635557  1
  O  O376  1  0.80978249  0.58371976  0.18758866  1
  O  O377  1  0.80948485  0.58329612  0.43753914  1
  O  O378  1  0.80711534  0.58342507  0.68834530  1
  O  O379  1  0.80663532  0.58327840  0.93834116  1
  O  O380  1  0.80646404  0.91667914  0.18838104  1
  O  O381  1  0.81100131  0.91659464  0.43780872  1
  O  O382  1  0.80932318  0.91691747  0.68782006  1
  O  O383  1  0.80826005  0.91669428  0.93660401  1
  O  O384  1  0.23357465  0.24913621  0.03767268  1
  O  O385  1  0.23409563  0.24988080  0.29075856  1
  O  O386  1  0.23362600  0.24926733  0.53833774  1
  O  O387  1  0.23399539  0.24977246  0.79095039  1
  O  O388  1  0.23376134  0.58301807  0.04048579  1
  O  O389  1  0.23268826  0.58457729  0.28692716  1
  O  O390  1  0.23052080  0.58401900  0.53942854  1
  O  O391  1  0.23180515  0.58383849  0.79031824  1
  O  O392  1  0.23483442  0.91700472  0.03822100  1
  O  O393  1  0.23337767  0.91696853  0.28913680  1
  O  O394  1  0.23055804  0.91641632  0.53940912  1
  O  O395  1  0.23195543  0.91695891  0.79094595  1
  O  O396  1  0.73249194  0.25023830  0.03641379  1
  O  O397  1  0.73481157  0.24938596  0.29117963  1
  O  O398  1  0.73616623  0.24964145  0.53963169  1
  O  O399  1  0.73612765  0.24955243  0.78826060  1
  O  O400  1  0.73319425  0.58324231  0.03994281  1
  O  O401  1  0.73599057  0.58397867  0.28851076  1
  O  O402  1  0.73380105  0.58368325  0.53783169  1
  O  O403  1  0.73403885  0.58453784  0.79012785  1
  O  O404  1  0.73281981  0.91646921  0.03671294  1
  O  O405  1  0.73533986  0.91665819  0.29150490  1
  O  O406  1  0.73676408  0.91695764  0.53867964  1
  O  O407  1  0.73460654  0.91659676  0.78869460  1
  O  O408  1  0.26649395  0.08296869  0.21254565  1
  O  O409  1  0.26460626  0.08299559  0.46174150  1
  O  O410  1  0.26499820  0.08270633  0.70931562  1
  O  O411  1  0.26698587  0.08387933  0.96207567  1
  O  O412  1  0.26609909  0.41639672  0.20947558  1
  O  O413  1  0.26457339  0.41755417  0.46130745  1
  O  O414  1  0.26604219  0.41669778  0.71226925  1
  O  O415  1  0.26568855  0.41692578  0.95944130  1
  O  O416  1  0.26553131  0.74993257  0.21129037  1
  O  O417  1  0.26440089  0.75070957  0.45837030  1
  O  O418  1  0.26590300  0.75008013  0.71268019  1
  O  O419  1  0.26446401  0.75016270  0.96261659  1
  O  O420  1  0.76797600  0.08278333  0.20959505  1
  O  O421  1  0.76955676  0.08335371  0.46120802  1
  O  O422  1  0.76761751  0.08256610  0.71312744  1
  O  O423  1  0.76411965  0.08334960  0.96089008  1
  O  O424  1  0.76706786  0.41606198  0.21006725  1
  O  O425  1  0.76712942  0.41710543  0.46002453  1
  O  O426  1  0.76629022  0.41667944  0.71216724  1
  O  O427  1  0.76720952  0.41722022  0.95914660  1
  O  O428  1  0.76841470  0.75069462  0.21024185  1
  O  O429  1  0.76710142  0.74978164  0.46018467  1
  O  O430  1  0.76884151  0.75101371  0.71028363  1
  O  O431  1  0.76695024  0.74964880  0.96251460  1
  O  O432  1  0.01736753  0.08339932  0.16423636  1
  O  O433  1  0.01609793  0.08271408  0.41340150  1
  O  O434  1  0.01630597  0.08329921  0.66418363  1
  O  O435  1  0.01500703  0.08274035  0.91336327  1
  O  O436  1  0.01499729  0.41638942  0.16251694  1
  O  O437  1  0.01636020  0.41637899  0.41554477  1
  O  O438  1  0.01871543  0.41585076  0.66505011  1
  O  O439  1  0.01761402  0.41702930  0.91566052  1
  O  O440  1  0.01576972  0.75060676  0.16282183  1
  O  O441  1  0.01720556  0.74991896  0.41314736  1
  O  O442  1  0.01628566  0.75042737  0.66572866  1
  O  O443  1  0.01613195  0.74996871  0.91319135  1
  O  O444  1  0.51710037  0.08299335  0.16262905  1
  O  O445  1  0.51425106  0.08307127  0.41427870  1
  O  O446  1  0.51525609  0.08328020  0.66284876  1
  O  O447  1  0.51711564  0.08299480  0.91447836  1
  O  O448  1  0.51688439  0.41725335  0.16506966  1
  O  O449  1  0.51571181  0.41610481  0.41581901  1
  O  O450  1  0.51529820  0.41661333  0.66620600  1
  O  O451  1  0.51699663  0.41616790  0.91210891  1
  O  O452  1  0.51791701  0.75001282  0.16499649  1
  O  O453  1  0.51520510  0.75019327  0.41301245  1
  O  O454  1  0.51522419  0.75002356  0.66623990  1
  O  O455  1  0.51530988  0.75082609  0.91204157  1
  O  O456  1  0.48482465  0.24997895  0.08410027  1
  O  O457  1  0.48171709  0.24933260  0.33542441  1
  O  O458  1  0.48324652  0.24981614  0.58553981  1
  O  O459  1  0.48341323  0.24906036  0.83727312  1
  O  O460  1  0.48318770  0.58416513  0.08428746  1
  O  O461  1  0.48454160  0.58319067  0.33735826  1
  O  O462  1  0.48357712  0.58368385  0.58429525  1
  O  O463  1  0.48497811  0.58302890  0.83748995  1
  O  O464  1  0.48520065  0.91620881  0.08439244  1
  O  O465  1  0.48332959  0.91737971  0.33525148  1
  O  O466  1  0.48416631  0.91620097  0.58724636  1
  O  O467  1  0.48393176  0.91758373  0.83682585  1
  O  O468  1  0.98440420  0.24915960  0.08406785  1
  O  O469  1  0.98140688  0.24948159  0.33498509  1
  O  O470  1  0.98224990  0.24909230  0.58572521  1
  O  O471  1  0.98303585  0.25003673  0.83792385  1
  O  O472  1  0.98259877  0.58419736  0.08713549  1
  O  O473  1  0.98391142  0.58353376  0.33611914  1
  O  O474  1  0.98587643  0.58360571  0.58656260  1
  O  O475  1  0.98452498  0.58299538  0.83430753  1
  O  O476  1  0.98344136  0.91665163  0.08432552  1
  O  O477  1  0.98308540  0.91717136  0.33683427  1
  O  O478  1  0.98345556  0.91657782  0.58748195  1
  O  O479  1  0.98236813  0.91667541  0.83527899  1
  O  O480  1  0.08890389  0.31316725  0.07653809  1
  O  O481  1  0.08537605  0.31391099  0.32693182  1
  O  O482  1  0.08597819  0.31443387  0.57764076  1
  O  O483  1  0.08634773  0.31587133  0.82850045  1
  O  O484  1  0.08608699  0.64958291  0.07810963  1
  O  O485  1  0.08744653  0.64936342  0.32683140  1
  O  O486  1  0.08980052  0.64762399  0.57769952  1
  O  O487  1  0.08818808  0.64863917  0.82784248  1
  O  O488  1  0.08704283  0.98234355  0.07772539  1
  O  O489  1  0.08695590  0.98179294  0.32824506  1
  O  O490  1  0.08669439  0.98266167  0.57780029  1
  O  O491  1  0.08689439  0.98050473  0.82671661  1
  O  O492  1  0.58923090  0.31400163  0.07667763  1
  O  O493  1  0.58553280  0.31448688  0.32728277  1
  O  O494  1  0.58693803  0.31496276  0.57748434  1
  O  O495  1  0.58705022  0.31448959  0.82744196  1
  O  O496  1  0.58704829  0.65004645  0.07702350  1
  O  O497  1  0.58816002  0.64817062  0.32741310  1
  O  O498  1  0.58765558  0.64879346  0.57682172  1
  O  O499  1  0.58833176  0.64805429  0.82765741  1
  O  O500  1  0.58917930  0.98119705  0.07734221  1
  O  O501  1  0.58722633  0.98227601  0.32769854  1
  O  O502  1  0.58776195  0.98146842  0.57745809  1
  O  O503  1  0.58773864  0.98300092  0.82731646  1
  O  O504  1  0.41318724  0.01814165  0.17254180  1
  O  O505  1  0.40979529  0.01930696  0.42325944  1
  O  O506  1  0.41193583  0.01778676  0.67279836  1
  O  O507  1  0.41312865  0.01788367  0.92311471  1
  O  O508  1  0.41263702  0.35318187  0.17186469  1
  O  O509  1  0.41199880  0.35044921  0.42209272  1
  O  O510  1  0.41081380  0.35242110  0.67367722  1
  O  O511  1  0.41362164  0.35050134  0.92202574  1
  O  O512  1  0.41408012  0.68381449  0.17287623  1
  O  O513  1  0.41157471  0.68513268  0.42250853  1
  O  O514  1  0.41119632  0.68478357  0.67354470  1
  O  O515  1  0.41159039  0.68633899  0.92215551  1
  O  O516  1  0.91351522  0.01817862  0.17312034  1
  O  O517  1  0.91223187  0.01818257  0.42247516  1
  O  O518  1  0.91264100  0.01780130  0.67277788  1
  O  O519  1  0.91140100  0.01769595  0.92158638  1
  O  O520  1  0.91132248  0.35202274  0.17125074  1
  O  O521  1  0.91226216  0.35200190  0.42172628  1
  O  O522  1  0.91456713  0.35119201  0.67258907  1
  O  O523  1  0.91359113  0.35114847  0.92346152  1
  O  O524  1  0.91233499  0.68460224  0.17245613  1
  O  O525  1  0.91385832  0.68446694  0.42171161  1
  O  O526  1  0.91231368  0.68560470  0.67350191  1
  O  O527  1  0.91194412  0.68601743  0.92302191  1
  O  O528  1  0.16239016  0.01858820  0.20177267  1
  O  O529  1  0.16117459  0.01700990  0.45236740  1
  O  O530  1  0.16097693  0.01723863  0.70294698  1
  O  O531  1  0.16321298  0.01919011  0.95247101  1
  O  O532  1  0.16188275  0.35238401  0.20254165  1
  O  O533  1  0.16142197  0.35192555  0.45240320  1
  O  O534  1  0.16220238  0.35210913  0.70226043  1
  O  O535  1  0.16250496  0.34999482  0.95201940  1
  O  O536  1  0.16153468  0.68464983  0.20186201  1
  O  O537  1  0.16050610  0.68551291  0.45194961  1
  O  O538  1  0.16202887  0.68560503  0.70413284  1
  O  O539  1  0.16078660  0.68493265  0.95266785  1
  O  O540  1  0.66365451  0.01819799  0.20197030  1
  O  O541  1  0.66573245  0.01832059  0.45227170  1
  O  O542  1  0.66418317  0.01695132  0.70309610  1
  O  O543  1  0.66043671  0.01815938  0.95224972  1
  O  O544  1  0.66312687  0.35134908  0.20274183  1
  O  O545  1  0.66354927  0.35197407  0.45247917  1
  O  O546  1  0.66298961  0.35124400  0.70245158  1
  O  O547  1  0.66300215  0.35214835  0.95129383  1
  O  O548  1  0.66441663  0.68551227  0.20132368  1
  O  O549  1  0.66336704  0.68442227  0.45265788  1
  O  O550  1  0.66463820  0.68676067  0.70219789  1
  O  O551  1  0.66342590  0.68435935  0.95304079  1
  O  O552  1  0.33693390  0.31436901  0.04728841  1
  O  O553  1  0.33855078  0.31382039  0.29796743  1
  O  O554  1  0.33727563  0.31390589  0.54709713  1
  O  O555  1  0.33778251  0.31573399  0.79786099  1
  O  O556  1  0.33759690  0.64838973  0.04875291  1
  O  O557  1  0.33632679  0.64974040  0.29678751  1
  O  O558  1  0.33414755  0.64923168  0.54784301  1
  O  O559  1  0.33594998  0.64839615  0.79778864  1
  O  O560  1  0.33807267  0.98315746  0.04695067  1
  O  O561  1  0.33739909  0.98121706  0.29669403  1
  O  O562  1  0.33396587  0.98269040  0.54778246  1
  O  O563  1  0.33661621  0.98087686  0.79862086  1
  O  O564  1  0.83582090  0.31622437  0.04619879  1
  O  O565  1  0.83932018  0.31311538  0.29795071  1
  O  O566  1  0.84027119  0.31399019  0.54838346  1
  O  O567  1  0.84019170  0.31391088  0.79814646  1
  O  O568  1  0.83749101  0.64797343  0.04778503  1
  O  O569  1  0.83942446  0.65004452  0.29705417  1
  O  O570  1  0.83774523  0.64833020  0.54742024  1
  O  O571  1  0.83782378  0.64966216  0.79723875  1
  O  O572  1  0.83635875  0.98116731  0.04693741  1
  O  O573  1  0.83935587  0.98174848  0.29708025  1
  O  O574  1  0.84017688  0.98287135  0.54751526  1
  O  O575  1  0.83833634  0.98168772  0.79803665  1
  O  O576  1  0.41314586  0.14813195  0.17242313  1
  O  O577  1  0.41070291  0.14928931  0.42214425  1
  O  O578  1  0.41150549  0.14788103  0.67233997  1
  O  O579  1  0.41305814  0.14797753  0.92318338  1
  O  O580  1  0.41353058  0.48353671  0.17182330  1
  O  O581  1  0.41178744  0.48077573  0.42298671  1
  O  O582  1  0.41159117  0.48245459  0.67401306  1
  O  O583  1  0.41323676  0.48074489  0.92249251  1
  O  O584  1  0.41322769  0.81376517  0.17338151  1
  O  O585  1  0.41172484  0.81532744  0.42257048  1
  O  O586  1  0.41089852  0.81473871  0.67363343  1
  O  O587  1  0.41215889  0.81672231  0.92162818  1
  O  O588  1  0.91307496  0.14806374  0.17268837  1
  O  O589  1  0.91260627  0.14834300  0.42245881  1
  O  O590  1  0.91222471  0.14788383  0.67269198  1
  O  O591  1  0.91144425  0.14797176  0.92161887  1
  O  O592  1  0.91191683  0.48239776  0.17131053  1
  O  O593  1  0.91327662  0.48249900  0.42221318  1
  O  O594  1  0.91526830  0.48135490  0.67354791  1
  O  O595  1  0.91306362  0.48107115  0.92348865  1
  O  O596  1  0.91170152  0.81460217  0.17251415  1
  O  O597  1  0.91354237  0.81478286  0.42176407  1
  O  O598  1  0.91236918  0.81564077  0.67275605  1
  O  O599  1  0.91260218  0.81610982  0.92259006  1
  O  O600  1  0.08804063  0.18307029  0.07700592  1
  O  O601  1  0.08510333  0.18376756  0.32728208  1
  O  O602  1  0.08601504  0.18428132  0.57782215  1
  O  O603  1  0.08673894  0.18566176  0.82773051  1
  O  O604  1  0.08627913  0.51942266  0.07775101  1
  O  O605  1  0.08803008  0.51930026  0.32658485  1
  O  O606  1  0.08907678  0.51729304  0.57846007  1
  O  O607  1  0.08883785  0.51840664  0.82824078  1
  O  O608  1  0.08738772  0.85203722  0.07790574  1
  O  O609  1  0.08642570  0.85168392  0.32779113  1
  O  O610  1  0.08753462  0.85255018  0.57730430  1
  O  O611  1  0.08596023  0.85052476  0.82704524  1
  O  O612  1  0.58842594  0.18384073  0.07721226  1
  O  O613  1  0.58560117  0.18436764  0.32733424  1
  O  O614  1  0.58707601  0.18479154  0.57692947  1
  O  O615  1  0.58711990  0.18417573  0.82794981  1
  O  O616  1  0.58766882  0.51998772  0.07658173  1
  O  O617  1  0.58813299  0.51804609  0.32774413  1
  O  O618  1  0.58774457  0.51870501  0.57706985  1
  O  O619  1  0.58854642  0.51763211  0.82842451  1
  O  O620  1  0.58901863  0.85094733  0.07729436  1
  O  O621  1  0.58706942  0.85218880  0.32743163  1
  O  O622  1  0.58785383  0.85130053  0.57785746  1
  O  O623  1  0.58801570  0.85295787  0.82628700  1
  O  O624  1  0.33737577  0.18415184  0.04707861  1
  O  O625  1  0.33759255  0.18365504  0.29758344  1
  O  O626  1  0.33692787  0.18349952  0.54643978  1
  O  O627  1  0.33838501  0.18561727  0.79837333  1
  O  O628  1  0.33807633  0.51840907  0.04818381  1
  O  O629  1  0.33607692  0.51944477  0.29728589  1
  O  O630  1  0.33436907  0.51912637  0.54809705  1
  O  O631  1  0.33544553  0.51821192  0.79795766  1
  O  O632  1  0.33867469  0.85289687  0.04719423  1
  O  O633  1  0.33653751  0.85077248  0.29682522  1
  O  O634  1  0.33486848  0.85260636  0.54764338  1
  O  O635  1  0.33586291  0.85091879  0.79850712  1
  O  O636  1  0.83631001  0.18607255  0.04671262  1
  O  O637  1  0.83827045  0.18303671  0.29699040  1
  O  O638  1  0.83978327  0.18389869  0.54778735  1
  O  O639  1  0.83952091  0.18371718  0.79751957  1
  O  O640  1  0.83715351  0.51780592  0.04746634  1
  O  O641  1  0.84014688  0.51990264  0.29780736  1
  O  O642  1  0.83727004  0.51835535  0.54795082  1
  O  O643  1  0.83765343  0.51941052  0.79798346  1
  O  O644  1  0.83645702  0.85107496  0.04646765  1
  O  O645  1  0.83941768  0.85159169  0.29728584  1
  O  O646  1  0.84089076  0.85285675  0.54798825  1
  O  O647  1  0.83852291  0.85163276  0.79768696  1
  O  O648  1  0.16297716  0.14853093  0.20189680  1
  O  O649  1  0.16054590  0.14708997  0.45156865  1
  O  O650  1  0.16092782  0.14735899  0.70179568  1
  O  O651  1  0.16328708  0.14915763  0.95286608  1
  O  O652  1  0.16269688  0.48270827  0.20236870  1
  O  O653  1  0.16073137  0.48226219  0.45374692  1
  O  O654  1  0.16229533  0.48230748  0.70346903  1
  O  O655  1  0.16084755  0.48007062  0.95203642  1
  O  O656  1  0.16157943  0.81461932  0.20140402  1
  O  O657  1  0.16033014  0.81566488  0.45188077  1
  O  O658  1  0.16259948  0.81574163  0.70387797  1
  O  O659  1  0.16057039  0.81486886  0.95235620  1
  O  O660  1  0.66389932  0.14814715  0.20191603  1
  O  O661  1  0.66565282  0.14836152  0.45225592  1
  O  O662  1  0.66402458  0.14719215  0.70236765  1
  O  O663  1  0.66038897  0.14839365  0.95214696  1
  O  O664  1  0.66365272  0.48158858  0.20240962  1
  O  O665  1  0.66334268  0.48241357  0.45296947  1
  O  O666  1  0.66253473  0.48158010  0.70305478  1
  O  O667  1  0.66303683  0.48232700  0.95229779  1
  O  O668  1  0.66416680  0.81542313  0.20183435  1
  O  O669  1  0.66349999  0.81474820  0.45227213  1
  O  O670  1  0.66523989  0.81690234  0.70245201  1
  O  O671  1  0.66321102  0.81454557  0.95260657  1
