# generated using pymatgen
data_Na2MnFe(PO4)2
_symmetry_space_group_name_H-M   'P 1'
_cell_length_a   21.08650569
_cell_length_b   18.93967142
_cell_length_c   20.04534022
_cell_angle_alpha   89.99967527
_cell_angle_beta   89.99621222
_cell_angle_gamma   89.99915279
_symmetry_Int_Tables_number   1
_chemical_formula_structural   Na2MnFe(PO4)2
_chemical_formula_sum   'Na96 Mn48 Fe48 P96 O384'
_cell_volume   8005.53735373
_cell_formula_units_Z   48
loop_
 _symmetry_equiv_pos_site_id
 _symmetry_equiv_pos_as_xyz
  1  'x, y, z'
loop_
 _atom_site_type_symbol
 _atom_site_label
 _atom_site_symmetry_multiplicity
 _atom_site_fract_x
 _atom_site_fract_y
 _atom_site_fract_z
 _atom_site_occupancy
  Na  Na0  1  -0.00066318  -0.00044338  -0.00092796  1
  Na  Na1  1  -0.00102061  0.00011933  0.25118685  1
  Na  Na2  1  -0.00040922  0.00053377  0.50031834  1
  Na  Na3  1  -0.00048903  -0.00036248  0.75000463  1
  Na  Na4  1  -0.00149322  0.33258000  -0.00018291  1
  Na  Na5  1  -0.00001992  0.33394968  0.24948437  1
  Na  Na6  1  0.00020796  0.33295048  0.50034707  1
  Na  Na7  1  0.00278552  0.33436384  0.75019545  1
  Na  Na8  1  0.00157374  0.66684582  0.00064168  1
  Na  Na9  1  0.00142365  0.66710460  0.24981596  1
  Na  Na10  1  -0.00067053  0.66517936  0.50025453  1
  Na  Na11  1  0.00150226  0.66677579  0.74967006  1
  Na  Na12  1  0.50018421  -0.00000555  -0.00005272  1
  Na  Na13  1  0.50205597  0.00060239  0.24990899  1
  Na  Na14  1  0.50125920  0.00106908  0.50016198  1
  Na  Na15  1  0.49899282  0.00010367  0.74940505  1
  Na  Na16  1  0.49812471  0.33291359  0.00088703  1
  Na  Na17  1  0.50102490  0.33346068  0.24906729  1
  Na  Na18  1  0.50073106  0.33340247  0.49989524  1
  Na  Na19  1  0.49824760  0.33268160  0.75015465  1
  Na  Na20  1  0.49952954  0.66701648  0.00082518  1
  Na  Na21  1  0.49898287  0.66612632  0.24988199  1
  Na  Na22  1  0.49943768  0.66590683  0.49957860  1
  Na  Na23  1  0.50073397  0.66661536  0.74975238  1
  Na  Na24  1  0.24983346  -0.00060361  0.12546500  1
  Na  Na25  1  0.24853418  -0.00062598  0.37314193  1
  Na  Na26  1  0.24998033  0.00074548  0.62467135  1
  Na  Na27  1  0.25051400  -0.00008496  0.87590153  1
  Na  Na28  1  0.25248183  0.33390367  0.12626834  1
  Na  Na29  1  0.25036882  0.33301424  0.37488243  1
  Na  Na30  1  0.24943393  0.33218047  0.62370173  1
  Na  Na31  1  0.25205925  0.33339061  0.87440145  1
  Na  Na32  1  0.25140169  0.66700882  0.12478894  1
  Na  Na33  1  0.25182473  0.66648092  0.37525038  1
  Na  Na34  1  0.25146484  0.66718001  0.62506649  1
  Na  Na35  1  0.24926501  0.66613531  0.87520931  1
  Na  Na36  1  0.75007748  0.00027762  0.12444406  1
  Na  Na37  1  0.74867462  0.00018220  0.37433845  1
  Na  Na38  1  0.74973859  0.00060625  0.62594711  1
  Na  Na39  1  0.75089494  0.00067318  0.87589095  1
  Na  Na40  1  0.74764338  0.33290190  0.12600354  1
  Na  Na41  1  0.74819889  0.33330658  0.37556610  1
  Na  Na42  1  0.74852419  0.33289643  0.62401275  1
  Na  Na43  1  0.75105097  0.33437102  0.87524029  1
  Na  Na44  1  0.74781858  0.66581859  0.12363969  1
  Na  Na45  1  0.74927999  0.66607249  0.37482570  1
  Na  Na46  1  0.74882816  0.66590438  0.62543656  1
  Na  Na47  1  0.74871226  0.66644993  0.87584588  1
  Na  Na48  1  0.00029812  0.16566827  -0.00091322  1
  Na  Na49  1  -0.00251371  0.16694771  0.25025195  1
  Na  Na50  1  -0.00154277  0.16671053  0.50091238  1
  Na  Na51  1  -0.00022880  0.16689085  0.74942340  1
  Na  Na52  1  -0.00144878  0.50103286  0.00125061  1
  Na  Na53  1  0.00062174  0.49979438  0.24873382  1
  Na  Na54  1  0.00177934  0.49904459  0.50024195  1
  Na  Na55  1  0.00109873  0.49995827  0.75024061  1
  Na  Na56  1  0.00168593  0.83331043  -0.00066409  1
  Na  Na57  1  0.00032629  0.83430296  0.25119866  1
  Na  Na58  1  0.00124268  0.83327179  0.50026080  1
  Na  Na59  1  0.00198869  0.83361346  0.74985064  1
  Na  Na60  1  0.49922793  0.16675271  -0.00005594  1
  Na  Na61  1  0.50102406  0.16618992  0.24995986  1
  Na  Na62  1  0.49829962  0.16697112  0.50049885  1
  Na  Na63  1  0.49843347  0.16598142  0.74975876  1
  Na  Na64  1  0.49826640  0.50140012  0.00027336  1
  Na  Na65  1  0.50194014  0.49948285  0.24960132  1
  Na  Na66  1  0.50186287  0.50019930  0.49985604  1
  Na  Na67  1  0.50210426  0.49953109  0.75001319  1
  Na  Na68  1  0.49830618  0.83378389  0.00113196  1
  Na  Na69  1  0.50018116  0.83301588  0.24955520  1
  Na  Na70  1  0.50052345  0.83312850  0.49890265  1
  Na  Na71  1  0.49918350  0.83297142  0.74992773  1
  Na  Na72  1  0.25150978  0.16670175  0.12559975  1
  Na  Na73  1  0.25151807  0.16673207  0.37418723  1
  Na  Na74  1  0.25260566  0.16624600  0.62374884  1
  Na  Na75  1  0.25078416  0.16738173  0.87543169  1
  Na  Na76  1  0.25111342  0.50018661  0.12635660  1
  Na  Na77  1  0.24956332  0.50040862  0.37499095  1
  Na  Na78  1  0.24878636  0.50062989  0.62388796  1
  Na  Na79  1  0.25099849  0.49990539  0.87435204  1
  Na  Na80  1  0.25125660  0.83284235  0.12465742  1
  Na  Na81  1  0.25026792  0.83336932  0.37382480  1
  Na  Na82  1  0.24743869  0.83493417  0.62595322  1
  Na  Na83  1  0.24969355  0.83350658  0.87576208  1
  Na  Na84  1  0.74895440  0.16613134  0.12488858  1
  Na  Na85  1  0.75016578  0.16589355  0.37577320  1
  Na  Na86  1  0.75030797  0.16551274  0.62474506  1
  Na  Na87  1  0.74894948  0.16610232  0.87535308  1
  Na  Na88  1  0.74965976  0.49949854  0.12511154  1
  Na  Na89  1  0.74750634  0.50054943  0.37537878  1
  Na  Na90  1  0.74707793  0.50113661  0.62415619  1
  Na  Na91  1  0.75048355  0.49983631  0.87590515  1
  Na  Na92  1  0.74865736  0.83394507  0.12379103  1
  Na  Na93  1  0.74839398  0.83405210  0.37374381  1
  Na  Na94  1  0.75035994  0.83295403  0.62629537  1
  Na  Na95  1  0.75075795  0.83294055  0.87595249  1
  Mn  Mn96  1  0.10710299  0.08302109  0.12319597  1
  Mn  Mn97  1  0.89239546  0.25054750  0.87679075  1
  Mn  Mn98  1  0.89224424  0.25058494  0.62778308  1
  Mn  Mn99  1  0.35844654  0.41624830  0.50197396  1
  Mn  Mn100  1  0.14324865  0.58306452  0.99786974  1
  Mn  Mn101  1  0.39285928  0.91734351  0.37734062  1
  Mn  Mn102  1  0.64188233  0.91639122  0.74870668  1
  Mn  Mn103  1  0.85779606  0.41660072  0.75192082  1
  Mn  Mn104  1  0.60777360  0.75010009  0.37168077  1
  Mn  Mn105  1  0.35780701  0.41655822  0.75131237  1
  Mn  Mn106  1  0.85758635  0.75030412  0.50194283  1
  Mn  Mn107  1  0.10813016  0.41648289  0.12212388  1
  Mn  Mn108  1  0.85732148  0.74998784  0.25156016  1
  Mn  Mn109  1  0.35828831  0.08305084  0.00281882  1
  Mn  Mn110  1  0.10841375  0.08402317  0.62272767  1
  Mn  Mn111  1  0.85829886  0.74967348  0.00247533  1
  Mn  Mn112  1  0.14329068  0.25007340  0.99825675  1
  Mn  Mn113  1  0.64190352  0.91632795  0.49820567  1
  Mn  Mn114  1  0.64121353  0.25021785  0.99741234  1
  Mn  Mn115  1  0.14209698  0.25026486  0.24793730  1
  Mn  Mn116  1  0.10853117  0.41709257  0.87358649  1
  Mn  Mn117  1  0.85797747  0.75002082  0.75319262  1
  Mn  Mn118  1  0.35871707  0.08279196  0.25250204  1
  Mn  Mn119  1  0.64152192  0.24982682  0.49769012  1
  Mn  Mn120  1  0.39212988  0.58357555  0.87674531  1
  Mn  Mn121  1  0.89239012  0.58462325  0.12792162  1
  Mn  Mn122  1  0.60785713  0.75009287  0.62270346  1
  Mn  Mn123  1  0.89198879  0.58282666  0.62742947  1
  Mn  Mn124  1  0.14271768  0.24895267  0.49682122  1
  Mn  Mn125  1  0.89164263  0.91654931  0.37762157  1
  Mn  Mn126  1  0.64159928  0.91647817  0.99741461  1
  Mn  Mn127  1  0.89110982  0.24916520  0.12775278  1
  Mn  Mn128  1  0.60733145  0.41662188  0.87269963  1
  Mn  Mn129  1  0.35725001  0.75056349  0.75261376  1
  Mn  Mn130  1  0.35853281  0.41752187  0.25299799  1
  Mn  Mn131  1  0.64123930  0.25046406  0.74792586  1
  Mn  Mn132  1  0.10825486  0.08313426  0.87217694  1
  Mn  Mn133  1  0.14224168  0.91576420  0.24709304  1
  Mn  Mn134  1  0.85636787  0.41642544  0.25266951  1
  Mn  Mn135  1  0.85724091  0.41669622  0.50200158  1
  Mn  Mn136  1  0.39142635  0.91648791  0.62717903  1
  Mn  Mn137  1  0.14270852  0.58400280  0.49702124  1
  Mn  Mn138  1  0.64172486  0.58310662  0.99784628  1
  Mn  Mn139  1  0.85737731  0.08400193  0.00209761  1
  Mn  Mn140  1  0.10805435  0.74940083  0.37233829  1
  Mn  Mn141  1  0.10841831  0.74953028  0.62264649  1
  Mn  Mn142  1  0.35804108  0.75107973  0.50221545  1
  Mn  Mn143  1  0.89245985  0.91636648  0.62747847  1
  Fe  Fe144  1  0.35745099  0.08304530  0.75155214  1
  Fe  Fe145  1  0.64203745  0.58393244  0.49770465  1
  Fe  Fe146  1  0.60604870  0.08272639  0.87282739  1
  Fe  Fe147  1  0.85670003  0.08303234  0.50181307  1
  Fe  Fe148  1  0.10824712  0.41639244  0.62320700  1
  Fe  Fe149  1  0.85672250  0.08335497  0.75175120  1
  Fe  Fe150  1  0.39382548  0.25014669  0.37601117  1
  Fe  Fe151  1  0.60722227  0.08327536  0.12354557  1
  Fe  Fe152  1  0.39374353  0.24986043  0.12717913  1
  Fe  Fe153  1  0.14330593  0.58359277  0.24897677  1
  Fe  Fe154  1  0.89241153  0.58270496  0.37601713  1
  Fe  Fe155  1  0.35767012  0.08262738  0.50066703  1
  Fe  Fe156  1  0.10834243  0.75062172  0.12333771  1
  Fe  Fe157  1  0.10649046  0.08439819  0.37347281  1
  Fe  Fe158  1  0.60613302  0.75005308  0.12329864  1
  Fe  Fe159  1  0.60650018  0.75072194  0.87385067  1
  Fe  Fe160  1  0.64210028  0.24971994  0.24853761  1
  Fe  Fe161  1  0.89296309  0.58392336  0.87613556  1
  Fe  Fe162  1  0.39363907  0.58245180  0.37664408  1
  Fe  Fe163  1  0.64253162  0.91658274  0.24721383  1
  Fe  Fe164  1  0.35737656  0.74959545  0.00182413  1
  Fe  Fe165  1  0.14313017  0.91680253  0.99858754  1
  Fe  Fe166  1  0.14311834  0.91758835  0.74874645  1
  Fe  Fe167  1  0.85602761  0.08336998  0.25202063  1
  Fe  Fe168  1  0.39355114  0.58274617  0.62653043  1
  Fe  Fe169  1  0.39198625  0.91650906  0.87686305  1
  Fe  Fe170  1  0.60643446  0.41682775  0.12286698  1
  Fe  Fe171  1  0.10794373  0.74965405  0.87380387  1
  Fe  Fe172  1  0.60713581  0.41611401  0.37296047  1
  Fe  Fe173  1  0.64193916  0.58382573  0.24785114  1
  Fe  Fe174  1  0.14244905  0.58276757  0.74810126  1
  Fe  Fe175  1  0.10694659  0.41603760  0.37349991  1
  Fe  Fe176  1  0.35837596  0.41733539  0.00220038  1
  Fe  Fe177  1  0.64258278  0.58348919  0.74862558  1
  Fe  Fe178  1  0.39290319  0.25063347  0.62657193  1
  Fe  Fe179  1  0.39297256  0.58356996  0.12729193  1
  Fe  Fe180  1  0.14375990  0.24982538  0.74830596  1
  Fe  Fe181  1  0.89295240  0.91625255  0.12634959  1
  Fe  Fe182  1  0.39218283  0.24958417  0.87682831  1
  Fe  Fe183  1  0.89372780  0.91582541  0.87658273  1
  Fe  Fe184  1  0.39304448  0.91674551  0.12678257  1
  Fe  Fe185  1  0.35769894  0.74982210  0.25113083  1
  Fe  Fe186  1  0.14265085  0.91751366  0.49825308  1
  Fe  Fe187  1  0.60650566  0.08365394  0.62359580  1
  Fe  Fe188  1  0.60706494  0.41616682  0.62371796  1
  Fe  Fe189  1  0.60772271  0.08392414  0.37334924  1
  Fe  Fe190  1  0.89182649  0.25073422  0.37636773  1
  Fe  Fe191  1  0.85729250  0.41652569  0.00168761  1
  P  P192  1  0.05272067  0.24955796  0.10964493  1
  P  P193  1  0.05169669  0.24962452  0.36023911  1
  P  P194  1  0.05530101  0.25052017  0.61104047  1
  P  P195  1  0.05462713  0.25008440  0.85933041  1
  P  P196  1  0.05538127  0.58447170  0.11142565  1
  P  P197  1  0.05282087  0.58209346  0.35925396  1
  P  P198  1  0.05503782  0.58227372  0.61082802  1
  P  P199  1  0.05337468  0.58392984  0.86007049  1
  P  P200  1  0.05306117  0.91625391  0.10944070  1
  P  P201  1  0.05463948  0.91814739  0.36151514  1
  P  P202  1  0.05569543  0.91732484  0.61046277  1
  P  P203  1  0.05474768  0.91587657  0.86075644  1
  P  P204  1  0.55374128  0.24986099  0.11136746  1
  P  P205  1  0.55304606  0.24968687  0.35964302  1
  P  P206  1  0.55209700  0.24960256  0.61041378  1
  P  P207  1  0.55119538  0.24924685  0.86011919  1
  P  P208  1  0.55331587  0.58362802  0.11141069  1
  P  P209  1  0.55402563  0.58281104  0.36023463  1
  P  P210  1  0.55442625  0.58271169  0.61062314  1
  P  P211  1  0.55362374  0.58450230  0.85979364  1
  P  P212  1  0.55356253  0.91650118  0.11125830  1
  P  P213  1  0.55444702  0.91765601  0.35908005  1
  P  P214  1  0.55278686  0.91735460  0.61021172  1
  P  P215  1  0.55127498  0.91626226  0.86033018  1
  P  P216  1  0.44794084  0.08302639  0.13991228  1
  P  P217  1  0.44803086  0.08395091  0.39026046  1
  P  P218  1  0.44529357  0.08388310  0.63901372  1
  P  P219  1  0.44576734  0.08282417  0.88865691  1
  P  P220  1  0.44639194  0.41711776  0.13899051  1
  P  P221  1  0.44839663  0.41659149  0.38959608  1
  P  P222  1  0.44794294  0.41704316  0.63944722  1
  P  P223  1  0.44588065  0.41620924  0.89039217  1
  P  P224  1  0.44546585  0.74999939  0.13920571  1
  P  P225  1  0.44566523  0.74925971  0.38837260  1
  P  P226  1  0.44641354  0.74904041  0.63987894  1
  P  P227  1  0.44660495  0.75054516  0.89070101  1
  P  P228  1  0.94524586  0.08189320  0.14078624  1
  P  P229  1  0.94492761  0.08428006  0.38961670  1
  P  P230  1  0.94495467  0.08332107  0.63980161  1
  P  P231  1  0.94542047  0.08265748  0.88832113  1
  P  P232  1  0.94503383  0.41661093  0.13925029  1
  P  P233  1  0.94717251  0.41690090  0.38955126  1
  P  P234  1  0.94820472  0.41659506  0.64017316  1
  P  P235  1  0.94637509  0.41791855  0.89066812  1
  P  P236  1  0.94853805  0.75143437  0.14020746  1
  P  P237  1  0.94668917  0.74894977  0.38984162  1
  P  P238  1  0.94685572  0.74981324  0.64030656  1
  P  P239  1  0.94830996  0.74976278  0.88985442  1
  P  P240  1  0.19578418  0.08373287  0.23587599  1
  P  P241  1  0.19755890  0.08292499  0.48363189  1
  P  P242  1  0.19839753  0.08381000  0.73511676  1
  P  P243  1  0.19691506  0.08264651  0.98549356  1
  P  P244  1  0.19548265  0.41740923  0.23651719  1
  P  P245  1  0.19551422  0.41631399  0.48477758  1
  P  P246  1  0.19641017  0.41630441  0.73424736  1
  P  P247  1  0.19945630  0.41659021  0.98522065  1
  P  P248  1  0.19763372  0.74878908  0.23434874  1
  P  P249  1  0.19705911  0.75101348  0.48465279  1
  P  P250  1  0.19514217  0.75007254  0.73677497  1
  P  P251  1  0.19639887  0.75084757  0.98595012  1
  P  P252  1  0.69533320  0.08363726  0.23559417  1
  P  P253  1  0.69546580  0.08332951  0.48569799  1
  P  P254  1  0.69513978  0.08316605  0.73585641  1
  P  P255  1  0.69386473  0.08318445  0.98529640  1
  P  P256  1  0.69352901  0.41665186  0.23587864  1
  P  P257  1  0.69384583  0.41724901  0.48559755  1
  P  P258  1  0.69592033  0.41752121  0.73439968  1
  P  P259  1  0.69614063  0.41672095  0.98610849  1
  P  P260  1  0.69565306  0.74980839  0.23355422  1
  P  P261  1  0.69641993  0.74947957  0.48462138  1
  P  P262  1  0.69534310  0.74947864  0.73687971  1
  P  P263  1  0.69449783  0.75006668  0.98545352  1
  P  P264  1  0.30603287  0.25077983  0.01510126  1
  P  P265  1  0.30588624  0.25019353  0.26475604  1
  P  P266  1  0.30618619  0.24908383  0.51346657  1
  P  P267  1  0.30466021  0.24931178  0.76380028  1
  P  P268  1  0.30476121  0.58355757  0.01557851  1
  P  P269  1  0.30467939  0.58427668  0.26467665  1
  P  P270  1  0.30586916  0.58295695  0.51442159  1
  P  P271  1  0.30309147  0.58309578  0.76339732  1
  P  P272  1  0.30446510  0.91579673  0.01469063  1
  P  P273  1  0.30510321  0.91561436  0.26349191  1
  P  P274  1  0.30202099  0.91777756  0.51451477  1
  P  P275  1  0.30261401  0.91763695  0.76574679  1
  P  P276  1  0.80275457  0.25078507  0.01517906  1
  P  P277  1  0.80158488  0.24921988  0.26571863  1
  P  P278  1  0.80434092  0.24944043  0.51384003  1
  P  P279  1  0.80254516  0.24928344  0.76499387  1
  P  P280  1  0.80487556  0.58273487  0.01400330  1
  P  P281  1  0.80176240  0.58337013  0.26528194  1
  P  P282  1  0.80297048  0.58310262  0.51378977  1
  P  P283  1  0.80234766  0.58311540  0.76587575  1
  P  P284  1  0.80520920  0.91650281  0.01440787  1
  P  P285  1  0.80292767  0.91721343  0.26314523  1
  P  P286  1  0.80289871  0.91750372  0.51527831  1
  P  P287  1  0.80398577  0.91751991  0.76623908  1
  O  O288  1  0.05613585  0.24988179  0.18641132  1
  O  O289  1  0.05561483  0.24927700  0.43692878  1
  O  O290  1  0.06001974  0.24948394  0.68772877  1
  O  O291  1  0.05781436  0.24959953  0.93611640  1
  O  O292  1  0.05970839  0.58369447  0.18809351  1
  O  O293  1  0.05651936  0.58294349  0.43600420  1
  O  O294  1  0.05926122  0.58310341  0.68758813  1
  O  O295  1  0.05712325  0.58315547  0.93682138  1
  O  O296  1  0.05645720  0.91696468  0.18624577  1
  O  O297  1  0.05885878  0.91749038  0.43825146  1
  O  O298  1  0.06021002  0.91789530  0.68725721  1
  O  O299  1  0.05944256  0.91704035  0.93742631  1
  O  O300  1  0.55823664  0.24968636  0.18802636  1
  O  O301  1  0.55596322  0.24945784  0.43643538  1
  O  O302  1  0.55529595  0.24940364  0.68707821  1
  O  O303  1  0.55479612  0.24997071  0.93682503  1
  O  O304  1  0.55776436  0.58363828  0.18807281  1
  O  O305  1  0.55829798  0.58400697  0.43695221  1
  O  O306  1  0.55881713  0.58355714  0.68731886  1
  O  O307  1  0.55612871  0.58365283  0.93661911  1
  O  O308  1  0.55840026  0.91646743  0.18790558  1
  O  O309  1  0.55706226  0.91675067  0.43587807  1
  O  O310  1  0.55581210  0.91662389  0.68693528  1
  O  O311  1  0.55486644  0.91636777  0.93701735  1
  O  O312  1  0.44434773  0.08281263  0.06321142  1
  O  O313  1  0.44453069  0.08293636  0.31354853  1
  O  O314  1  0.44102481  0.08268521  0.56234942  1
  O  O315  1  0.44121683  0.08265788  0.81197452  1
  O  O316  1  0.44210581  0.41747766  0.06233191  1
  O  O317  1  0.44507755  0.41687776  0.31288271  1
  O  O318  1  0.44479882  0.41713499  0.56278890  1
  O  O319  1  0.44300937  0.41703750  0.81358715  1
  O  O320  1  0.44116007  0.74999745  0.06250841  1
  O  O321  1  0.44176479  0.74985543  0.31162946  1
  O  O322  1  0.44364153  0.75013718  0.56307666  1
  O  O323  1  0.44301658  0.74980869  0.81395783  1
  O  O324  1  0.94274455  0.08316139  0.06395777  1
  O  O325  1  0.93988609  0.08339506  0.31290687  1
  O  O326  1  0.94048425  0.08318982  0.56304973  1
  O  O327  1  0.94120527  0.08347892  0.81161670  1
  O  O328  1  0.94056679  0.41638313  0.06252869  1
  O  O329  1  0.94322992  0.41691028  0.31286176  1
  O  O330  1  0.94358680  0.41643606  0.56352016  1
  O  O331  1  0.94368741  0.41706502  0.81386354  1
  O  O332  1  0.94475791  0.75047825  0.06353098  1
  O  O333  1  0.94345592  0.75001332  0.31307819  1
  O  O334  1  0.94331117  0.74984677  0.56353623  1
  O  O335  1  0.94473075  0.74988876  0.81316675  1
  O  O336  1  0.19366864  0.08307639  0.06221872  1
  O  O337  1  0.19092576  0.08430007  0.31252581  1
  O  O338  1  0.19404075  0.08413422  0.56036320  1
  O  O339  1  0.19492213  0.08399154  0.81180779  1
  O  O340  1  0.19532008  0.41652677  0.06192822  1
  O  O341  1  0.19066183  0.41635096  0.31323132  1
  O  O342  1  0.19149138  0.41618695  0.56152049  1
  O  O343  1  0.19412341  0.41649959  0.81108192  1
  O  O344  1  0.19204165  0.75040488  0.06263314  1
  O  O345  1  0.19381202  0.74949066  0.31106647  1
  O  O346  1  0.19407662  0.74993505  0.56145282  1
  O  O347  1  0.19166197  0.74952303  0.81359020  1
  O  O348  1  0.68942487  0.08300304  0.06211959  1
  O  O349  1  0.69115458  0.08371911  0.31234304  1
  O  O350  1  0.69034016  0.08368859  0.56236706  1
  O  O351  1  0.68975239  0.08316323  0.81257298  1
  O  O352  1  0.69059976  0.41674881  0.06276661  1
  O  O353  1  0.68979746  0.41651933  0.31276624  1
  O  O354  1  0.68971669  0.41615003  0.56236054  1
  O  O355  1  0.69313151  0.41641781  0.81122863  1
  O  O356  1  0.68945616  0.75023824  0.06214698  1
  O  O357  1  0.69319962  0.74985237  0.31038171  1
  O  O358  1  0.69366891  0.74984256  0.56143814  1
  O  O359  1  0.69085538  0.75053745  0.81358206  1
  O  O360  1  0.31072518  0.25000550  0.18798177  1
  O  O361  1  0.31078311  0.25043533  0.43671947  1
  O  O362  1  0.30930963  0.25017762  0.68704450  1
  O  O363  1  0.30962560  0.24980693  0.93821480  1
  O  O364  1  0.30949317  0.58315768  0.18796743  1
  O  O365  1  0.31046044  0.58227767  0.43762945  1
  O  O366  1  0.30845635  0.58301166  0.68680328  1
  O  O367  1  0.30713664  0.58362180  0.93873911  1
  O  O368  1  0.30965646  0.91679314  0.18675111  1
  O  O369  1  0.30594592  0.91702737  0.43783046  1
  O  O370  1  0.30608418  0.91696213  0.68901675  1
  O  O371  1  0.30901387  0.91661053  0.93797049  1
  O  O372  1  0.80511443  0.24988690  0.18900942  1
  O  O373  1  0.80847480  0.25055285  0.43710810  1
  O  O374  1  0.80560913  0.24979559  0.68818426  1
  O  O375  1  0.80633395  0.25016155  0.93843585  1
  O  O376  1  0.80609228  0.58331204  0.18856367  1
  O  O377  1  0.80835825  0.58262173  0.43716898  1
  O  O378  1  0.80598862  0.58332919  0.68908882  1
  O  O379  1  0.80939278  0.58392219  0.93731716  1
  O  O380  1  0.80798340  0.91638618  0.18656692  1
  O  O381  1  0.80543068  0.91697948  0.43840563  1
  O  O382  1  0.80681202  0.91654739  0.68943544  1
  O  O383  1  0.81014079  0.91602030  0.93772764  1
  O  O384  1  0.23614761  0.24999380  0.03976481  1
  O  O385  1  0.23566759  0.25024880  0.28817803  1
  O  O386  1  0.23597491  0.24935342  0.53703071  1
  O  O387  1  0.23434629  0.25025638  0.78765306  1
  O  O388  1  0.23514161  0.58354279  0.04100129  1
  O  O389  1  0.23432471  0.58371242  0.28835784  1
  O  O390  1  0.23562884  0.58361559  0.53777464  1
  O  O391  1  0.23277518  0.58280179  0.78718259  1
  O  O392  1  0.23411084  0.91627781  0.03843280  1
  O  O393  1  0.23494732  0.91575095  0.28714275  1
  O  O394  1  0.23213980  0.91783900  0.53942051  1
  O  O395  1  0.23253039  0.91706346  0.79027898  1
  O  O396  1  0.73298047  0.24989475  0.04004052  1
  O  O397  1  0.73144121  0.24958918  0.29016104  1
  O  O398  1  0.73426581  0.24941247  0.53802343  1
  O  O399  1  0.73292602  0.24991434  0.79039216  1
  O  O400  1  0.73471323  0.58285760  0.03789637  1
  O  O401  1  0.73141322  0.58334442  0.28886929  1
  O  O402  1  0.73251386  0.58323708  0.53708364  1
  O  O403  1  0.73228463  0.58302261  0.79038999  1
  O  O404  1  0.73482519  0.91678683  0.03752150  1
  O  O405  1  0.73244744  0.91702861  0.28661390  1
  O  O406  1  0.73350020  0.91713856  0.54117136  1
  O  O407  1  0.73425363  0.91694688  0.79143524  1
  O  O408  1  0.26597203  0.08334063  0.21212520  1
  O  O409  1  0.26763048  0.08328332  0.45898338  1
  O  O410  1  0.26831133  0.08337150  0.71004104  1
  O  O411  1  0.26672247  0.08309802  0.96060787  1
  O  O412  1  0.26576925  0.41714574  0.21305718  1
  O  O413  1  0.26566814  0.41633812  0.46085614  1
  O  O414  1  0.26597780  0.41634228  0.70843987  1
  O  O415  1  0.26942466  0.41702107  0.96067903  1
  O  O416  1  0.26774494  0.74960561  0.21003980  1
  O  O417  1  0.26667238  0.75043208  0.45937896  1
  O  O418  1  0.26496005  0.75083997  0.71177038  1
  O  O419  1  0.26678189  0.74994349  0.96215800  1
  O  O420  1  0.76565075  0.08340970  0.21153432  1
  O  O421  1  0.76582119  0.08327357  0.46218465  1
  O  O422  1  0.76562898  0.08299642  0.71272770  1
  O  O423  1  0.76411169  0.08327501  0.96199725  1
  O  O424  1  0.76359770  0.41654600  0.21173145  1
  O  O425  1  0.76390217  0.41675278  0.46147623  1
  O  O426  1  0.76544526  0.41703174  0.70870890  1
  O  O427  1  0.76645040  0.41706684  0.96268119  1
  O  O428  1  0.76523706  0.74973899  0.20791856  1
  O  O429  1  0.76582721  0.74996766  0.45880144  1
  O  O430  1  0.76533593  0.74969050  0.71260823  1
  O  O431  1  0.76483196  0.74993640  0.96233275  1
  O  O432  1  0.01483297  0.08310789  0.16620157  1
  O  O433  1  0.01533075  0.08373921  0.41331152  1
  O  O434  1  0.01519896  0.08347997  0.66337190  1
  O  O435  1  0.01547978  0.08282232  0.91249527  1
  O  O436  1  0.01520317  0.41688468  0.16288823  1
  O  O437  1  0.01724460  0.41614859  0.41418260  1
  O  O438  1  0.01831155  0.41686132  0.66419930  1
  O  O439  1  0.01605727  0.41695465  0.91608964  1
  O  O440  1  0.01849191  0.75119979  0.16499332  1
  O  O441  1  0.01638563  0.74910344  0.41501455  1
  O  O442  1  0.01665544  0.75019555  0.66485310  1
  O  O443  1  0.01832625  0.74975427  0.91467001  1
  O  O444  1  0.51800754  0.08310444  0.16445852  1
  O  O445  1  0.51812041  0.08392974  0.41469990  1
  O  O446  1  0.51561322  0.08342318  0.66302467  1
  O  O447  1  0.51598132  0.08305772  0.91286099  1
  O  O448  1  0.51667717  0.41677700  0.16295554  1
  O  O449  1  0.51836469  0.41649462  0.41443399  1
  O  O450  1  0.51778490  0.41618436  0.66473449  1
  O  O451  1  0.51557882  0.41713834  0.91566280  1
  O  O452  1  0.51584728  0.74969673  0.16308371  1
  O  O453  1  0.51561300  0.74968949  0.41283228  1
  O  O454  1  0.51599132  0.74950971  0.66514674  1
  O  O455  1  0.51657704  0.75039051  0.91546537  1
  O  O456  1  0.48342420  0.25000267  0.08742273  1
  O  O457  1  0.48308861  0.24975625  0.33462514  1
  O  O458  1  0.48218808  0.25019799  0.58537210  1
  O  O459  1  0.48121629  0.24937375  0.83536440  1
  O  O460  1  0.48299116  0.58404731  0.08756756  1
  O  O461  1  0.48368760  0.58282381  0.33632501  1
  O  O462  1  0.48417007  0.58319008  0.58652754  1
  O  O463  1  0.48394974  0.58329444  0.83451740  1
  O  O464  1  0.48317534  0.91667047  0.08753795  1
  O  O465  1  0.48474524  0.91709469  0.33394368  1
  O  O466  1  0.48322416  0.91718652  0.58468806  1
  O  O467  1  0.48130427  0.91623300  0.83538143  1
  O  O468  1  0.98298330  0.24906323  0.08480011  1
  O  O469  1  0.98159817  0.25038796  0.33562641  1
  O  O470  1  0.98519064  0.24999043  0.58719485  1
  O  O471  1  0.98480617  0.25053053  0.83454069  1
  O  O472  1  0.98531129  0.58408137  0.08740989  1
  O  O473  1  0.98275863  0.58301932  0.33459054  1
  O  O474  1  0.98505026  0.58224859  0.58656598  1
  O  O475  1  0.98329219  0.58359508  0.83546415  1
  O  O476  1  0.98314281  0.91646468  0.08462577  1
  O  O477  1  0.98453493  0.91746459  0.33745624  1
  O  O478  1  0.98552808  0.91683238  0.58680980  1
  O  O479  1  0.98436378  0.91631167  0.83702329  1
  O  O480  1  0.08662699  0.31469818  0.07699693  1
  O  O481  1  0.08600829  0.31448452  0.32767538  1
  O  O482  1  0.08853734  0.31575437  0.57812862  1
  O  O483  1  0.08909775  0.31513449  0.82735486  1
  O  O484  1  0.08859061  0.64990614  0.07872761  1
  O  O485  1  0.08755636  0.64677042  0.32647592  1
  O  O486  1  0.08840442  0.64739416  0.57743960  1
  O  O487  1  0.08734555  0.64902089  0.82766629  1
  O  O488  1  0.08721021  0.98113092  0.07651439  1
  O  O489  1  0.08774406  0.98344827  0.32859816  1
  O  O490  1  0.08895677  0.98237030  0.57698001  1
  O  O491  1  0.08831829  0.98060218  0.82676305  1
  O  O492  1  0.58684052  0.31508643  0.07809039  1
  O  O493  1  0.58707252  0.31469559  0.32717858  1
  O  O494  1  0.58646276  0.31442910  0.57799037  1
  O  O495  1  0.58499902  0.31439545  0.82747516  1
  O  O496  1  0.58682180  0.64854788  0.07820093  1
  O  O497  1  0.58742586  0.64759048  0.32634624  1
  O  O498  1  0.58813579  0.64748083  0.57688104  1
  O  O499  1  0.58710843  0.65007830  0.82785100  1
  O  O500  1  0.58688161  0.98149125  0.07797113  1
  O  O501  1  0.58842065  0.98304733  0.32725842  1
  O  O502  1  0.58696092  0.98257841  0.57829266  1
  O  O503  1  0.58517650  0.98125286  0.82759871  1
  O  O504  1  0.41422859  0.01800809  0.17272480  1
  O  O505  1  0.41410094  0.01903055  0.42342133  1
  O  O506  1  0.41145629  0.01928396  0.67284634  1
  O  O507  1  0.41261696  0.01772343  0.92208208  1
  O  O508  1  0.41299612  0.35206051  0.17206891  1
  O  O509  1  0.41458695  0.35144593  0.42199104  1
  O  O510  1  0.41339751  0.35216313  0.67166272  1
  O  O511  1  0.41219110  0.35078912  0.92239973  1
  O  O512  1  0.41187280  0.68507497  0.17252622  1
  O  O513  1  0.41231844  0.68401434  0.42100210  1
  O  O514  1  0.41249126  0.68373383  0.67190585  1
  O  O515  1  0.41253234  0.68556144  0.92350818  1
  O  O516  1  0.91175056  0.01616869  0.17258306  1
  O  O517  1  0.91127357  0.01939337  0.42322899  1
  O  O518  1  0.91145706  0.01837156  0.67310133  1
  O  O519  1  0.91202055  0.01745752  0.92115923  1
  O  O520  1  0.91169152  0.35154997  0.17260754  1
  O  O521  1  0.91291824  0.35207348  0.42228404  1
  O  O522  1  0.91471286  0.35155820  0.67332402  1
  O  O523  1  0.91132138  0.35322312  0.92307712  1
  O  O524  1  0.91440540  0.68655472  0.17315015  1
  O  O525  1  0.91270775  0.68355429  0.42163795  1
  O  O526  1  0.91316526  0.68460137  0.67285632  1
  O  O527  1  0.91443657  0.68466604  0.92250820  1
  O  O528  1  0.16236096  0.01848733  0.20297675  1
  O  O529  1  0.16342934  0.01785879  0.45151904  1
  O  O530  1  0.16420830  0.01873946  0.70284407  1
  O  O531  1  0.16324566  0.01730440  0.95312698  1
  O  O532  1  0.16221173  0.35254720  0.20270700  1
  O  O533  1  0.16183731  0.35135317  0.45159064  1
  O  O534  1  0.16224357  0.35111683  0.70205620  1
  O  O535  1  0.16582152  0.35156416  0.95241381  1
  O  O536  1  0.16410526  0.68356807  0.20186538  1
  O  O537  1  0.16292509  0.68603977  0.45190463  1
  O  O538  1  0.16191794  0.68488614  0.70356100  1
  O  O539  1  0.16251286  0.68610582  0.95249790  1
  O  O540  1  0.66174903  0.01874411  0.20211682  1
  O  O541  1  0.66204442  0.01848554  0.45221865  1
  O  O542  1  0.66178795  0.01817099  0.70249747  1
  O  O543  1  0.66048397  0.01816976  0.95192228  1
  O  O544  1  0.65986654  0.35147623  0.20308450  1
  O  O545  1  0.65997442  0.35237738  0.45222698  1
  O  O546  1  0.66115807  0.35274982  0.70177691  1
  O  O547  1  0.66311110  0.35165901  0.95249484  1
  O  O548  1  0.66115263  0.68468735  0.20158381  1
  O  O549  1  0.66219289  0.68436255  0.45247141  1
  O  O550  1  0.66200318  0.68410272  0.70414101  1
  O  O551  1  0.66092691  0.68519064  0.95224678  1
  O  O552  1  0.33957311  0.31608717  0.04754821  1
  O  O553  1  0.33939781  0.31520657  0.29801896  1
  O  O554  1  0.33971970  0.31384462  0.54745487  1
  O  O555  1  0.33863717  0.31397679  0.79721773  1
  O  O556  1  0.33895628  0.64877080  0.04775050  1
  O  O557  1  0.33794577  0.64954173  0.29733880  1
  O  O558  1  0.33971983  0.64778579  0.54745750  1
  O  O559  1  0.33605633  0.64817670  0.79708993  1
  O  O560  1  0.33817709  0.98059322  0.04835707  1
  O  O561  1  0.33839127  0.98051196  0.29721935  1
  O  O562  1  0.33598840  0.98293692  0.54677702  1
  O  O563  1  0.33637991  0.98281626  0.79817117  1
  O  O564  1  0.83626883  0.31599687  0.04772279  1
  O  O565  1  0.83559293  0.31415153  0.29872147  1
  O  O566  1  0.83770613  0.31446331  0.54730663  1
  O  O567  1  0.83698136  0.31432487  0.79713248  1
  O  O568  1  0.83810539  0.64785972  0.04763720  1
  O  O569  1  0.83557027  0.64838537  0.29797861  1
  O  O570  1  0.83615288  0.64813105  0.54724943  1
  O  O571  1  0.83638912  0.64800807  0.79886012  1
  O  O572  1  0.83854255  0.98152354  0.04764628  1
  O  O573  1  0.83591291  0.98238725  0.29662483  1
  O  O574  1  0.83710656  0.98270254  0.54716567  1
  O  O575  1  0.83794888  0.98284773  0.79811678  1
  O  O576  1  0.41425140  0.14812459  0.17251652  1
  O  O577  1  0.41392087  0.14893859  0.42244152  1
  O  O578  1  0.41214044  0.14930525  0.67177307  1
  O  O579  1  0.41230189  0.14789808  0.92173166  1
  O  O580  1  0.41330249  0.48222018  0.17251133  1
  O  O581  1  0.41452398  0.48152327  0.42235486  1
  O  O582  1  0.41449871  0.48229492  0.67225941  1
  O  O583  1  0.41118029  0.48095452  0.92295783  1
  O  O584  1  0.41225571  0.81511605  0.17246104  1
  O  O585  1  0.41208037  0.81435010  0.42155392  1
  O  O586  1  0.41197425  0.81394116  0.67239235  1
  O  O587  1  0.41242664  0.81552688  0.92310822  1
  O  O588  1  0.90987553  0.14617233  0.17358358  1
  O  O589  1  0.91177760  0.14958058  0.42254664  1
  O  O590  1  0.91117294  0.14821122  0.67298456  1
  O  O591  1  0.91187656  0.14764720  0.92175341  1
  O  O592  1  0.91146986  0.48162780  0.17240409  1
  O  O593  1  0.91389889  0.48232598  0.42233622  1
  O  O594  1  0.91427902  0.48148347  0.67304834  1
  O  O595  1  0.91261107  0.48337018  0.92262912  1
  O  O596  1  0.91457566  0.81658234  0.17255642  1
  O  O597  1  0.91265985  0.81407524  0.42246596  1
  O  O598  1  0.91280524  0.81474848  0.67295057  1
  O  O599  1  0.91444357  0.81482100  0.92255731  1
  O  O600  1  0.08698384  0.18455159  0.07738842  1
  O  O601  1  0.08507644  0.18434490  0.32735439  1
  O  O602  1  0.08876069  0.18560945  0.57736389  1
  O  O603  1  0.08865233  0.18515406  0.82637014  1
  O  O604  1  0.08895959  0.51962943  0.07777845  1
  O  O605  1  0.08649524  0.51680107  0.32693611  1
  O  O606  1  0.08887599  0.51727432  0.57817179  1
  O  O607  1  0.08755698  0.51901927  0.82724041  1
  O  O608  1  0.08743439  0.85121194  0.07724379  1
  O  O609  1  0.08837481  0.85321107  0.32815694  1
  O  O610  1  0.08960636  0.85243303  0.57750028  1
  O  O611  1  0.08796422  0.85055264  0.82807830  1
  O  O612  1  0.58676907  0.18471010  0.07808725  1
  O  O613  1  0.58715882  0.18471183  0.32705489  1
  O  O614  1  0.58565203  0.18439268  0.57761791  1
  O  O615  1  0.58501102  0.18423882  0.82758270  1
  O  O616  1  0.58633983  0.51840971  0.07804006  1
  O  O617  1  0.58745810  0.51760998  0.32760247  1
  O  O618  1  0.58766549  0.51740068  0.57782359  1
  O  O619  1  0.58864999  0.51996373  0.82732851  1
  O  O620  1  0.58645406  0.85128374  0.07784528  1
  O  O621  1  0.58900252  0.85296343  0.32625903  1
  O  O622  1  0.58696621  0.85236290  0.57760792  1
  O  O623  1  0.58522205  0.85112412  0.82788294  1
  O  O624  1  0.34028384  0.18594908  0.04819244  1
  O  O625  1  0.33949970  0.18526901  0.29796413  1
  O  O626  1  0.33944228  0.18371199  0.54603577  1
  O  O627  1  0.33754270  0.18394059  0.79696427  1
  O  O628  1  0.33916695  0.51865929  0.04805078  1
  O  O629  1  0.33830342  0.51949858  0.29852051  1
  O  O630  1  0.33897433  0.51782359  0.54797938  1
  O  O631  1  0.33658859  0.51819416  0.79670178  1
  O  O632  1  0.33783320  0.85056682  0.04747141  1
  O  O633  1  0.33837077  0.85033615  0.29615758  1
  O  O634  1  0.33569291  0.85282581  0.54776029  1
  O  O635  1  0.33677977  0.85284244  0.79876854  1
  O  O636  1  0.83683559  0.18567537  0.04777172  1
  O  O637  1  0.83553641  0.18412961  0.29807231  1
  O  O638  1  0.83788516  0.18421718  0.54636118  1
  O  O639  1  0.83641733  0.18409363  0.79727749  1
  O  O640  1  0.83821402  0.51763808  0.04690821  1
  O  O641  1  0.83531091  0.51840212  0.29856279  1
  O  O642  1  0.83589760  0.51804899  0.54764177  1
  O  O643  1  0.83647669  0.51811033  0.79827472  1
  O  O644  1  0.83846173  0.85154903  0.04810525  1
  O  O645  1  0.83614581  0.85229783  0.29698183  1
  O  O646  1  0.83736219  0.85251101  0.54749320  1
  O  O647  1  0.83864197  0.85277479  0.79899034  1
  O  O648  1  0.16265267  0.14873367  0.20237617  1
  O  O649  1  0.16337871  0.14772462  0.45043384  1
  O  O650  1  0.16487424  0.14888889  0.70208062  1
  O  O651  1  0.16287117  0.14750826  0.95269556  1
  O  O652  1  0.16254580  0.48283667  0.20366072  1
  O  O653  1  0.16182669  0.48129834  0.45177590  1
  O  O654  1  0.16190098  0.48128485  0.70205756  1
  O  O655  1  0.16545733  0.48157682  0.95251277  1
  O  O656  1  0.16336975  0.81355521  0.20122947  1
  O  O657  1  0.16318455  0.81631151  0.45275376  1
  O  O658  1  0.16119342  0.81534313  0.70460759  1
  O  O659  1  0.16320525  0.81610361  0.95293950  1
  O  O660  1  0.66199322  0.14886197  0.20247783  1
  O  O661  1  0.66215370  0.14830021  0.45199570  1
  O  O662  1  0.66198211  0.14817166  0.70213240  1
  O  O663  1  0.66025943  0.14805471  0.95206079  1
  O  O664  1  0.65997267  0.48178283  0.20285591  1
  O  O665  1  0.66034226  0.48245354  0.45291727  1
  O  O666  1  0.66170007  0.48286608  0.70275753  1
  O  O667  1  0.66270819  0.48157427  0.95268568  1
  O  O668  1  0.66119058  0.81485538  0.20138968  1
  O  O669  1  0.66193013  0.81444376  0.45241239  1
  O  O670  1  0.66176409  0.81436969  0.70336494  1
  O  O671  1  0.66115727  0.81504138  0.95189147  1
