# generated using pymatgen
data_Na2MnFe(PO4)2
_symmetry_space_group_name_H-M   'P 1'
_cell_length_a   21.08232902
_cell_length_b   18.93389357
_cell_length_c   20.04133334
_cell_angle_alpha   90.00025650
_cell_angle_beta   89.99671187
_cell_angle_gamma   90.00095880
_symmetry_Int_Tables_number   1
_chemical_formula_structural   Na2MnFe(PO4)2
_chemical_formula_sum   'Na96 Mn48 Fe48 P96 O384'
_cell_volume   7999.91051818
_cell_formula_units_Z   48
loop_
 _symmetry_equiv_pos_site_id
 _symmetry_equiv_pos_as_xyz
  1  'x, y, z'
loop_
 _atom_site_type_symbol
 _atom_site_label
 _atom_site_symmetry_multiplicity
 _atom_site_fract_x
 _atom_site_fract_y
 _atom_site_fract_z
 _atom_site_occupancy
  Na  Na0  1  0.00082118  -0.00007123  0.00093636  1
  Na  Na1  1  0.00009402  0.00035314  0.25044883  1
  Na  Na2  1  -0.00329415  -0.00139375  0.49878217  1
  Na  Na3  1  -0.00094672  0.00011711  0.74922353  1
  Na  Na4  1  -0.00185382  0.33267480  -0.00060209  1
  Na  Na5  1  0.00116671  0.33388493  0.25081317  1
  Na  Na6  1  0.00151874  0.33420467  0.49981079  1
  Na  Na7  1  -0.00174112  0.33241055  0.75007360  1
  Na  Na8  1  -0.00136641  0.66664780  -0.00030885  1
  Na  Na9  1  -0.00129458  0.66678228  0.24927280  1
  Na  Na10  1  -0.00104431  0.66728078  0.49959647  1
  Na  Na11  1  -0.00292916  0.66616712  0.75121553  1
  Na  Na12  1  0.50001117  -0.00096961  0.00079568  1
  Na  Na13  1  0.50144582  0.00000491  0.25101663  1
  Na  Na14  1  0.50262521  0.00027831  0.49944408  1
  Na  Na15  1  0.50230527  -0.00022622  0.74980682  1
  Na  Na16  1  0.50063614  0.33358319  0.00043285  1
  Na  Na17  1  0.50310805  0.33416404  0.24893557  1
  Na  Na18  1  0.50195977  0.33358636  0.50095464  1
  Na  Na19  1  0.49978389  0.33369714  0.75000153  1
  Na  Na20  1  0.50052581  0.66753395  0.00061780  1
  Na  Na21  1  0.50016932  0.66726000  0.24948800  1
  Na  Na22  1  0.49877490  0.66638239  0.49921996  1
  Na  Na23  1  0.49828043  0.66646699  0.75030241  1
  Na  Na24  1  0.24958334  -0.00033389  0.12407115  1
  Na  Na25  1  0.24958685  -0.00024306  0.37462460  1
  Na  Na26  1  0.25118180  0.00067426  0.62611619  1
  Na  Na27  1  0.24962842  -0.00023499  0.87481248  1
  Na  Na28  1  0.24962104  0.33378317  0.12561146  1
  Na  Na29  1  0.24736071  0.33255751  0.37520544  1
  Na  Na30  1  0.24901939  0.33369695  0.62440982  1
  Na  Na31  1  0.25105569  0.33481696  0.87580581  1
  Na  Na32  1  0.25063683  0.66778161  0.12570875  1
  Na  Na33  1  0.24987325  0.66731957  0.37512257  1
  Na  Na34  1  0.25119570  0.66756694  0.62529656  1
  Na  Na35  1  0.24971327  0.66662751  0.87374911  1
  Na  Na36  1  0.74924764  -0.00084265  0.12457497  1
  Na  Na37  1  0.75046602  0.00024709  0.37533908  1
  Na  Na38  1  0.74895821  -0.00089672  0.62474296  1
  Na  Na39  1  0.75014420  -0.00012698  0.87524126  1
  Na  Na40  1  0.74854306  0.33296657  0.12457821  1
  Na  Na41  1  0.74808296  0.33259602  0.37371922  1
  Na  Na42  1  0.75116539  0.33371553  0.62571115  1
  Na  Na43  1  0.75024986  0.33317354  0.87549420  1
  Na  Na44  1  0.75079477  0.66705863  0.12390475  1
  Na  Na45  1  0.74936786  0.66628055  0.37438608  1
  Na  Na46  1  0.75262922  0.66741345  0.62642710  1
  Na  Na47  1  0.75227514  0.66732814  0.87494266  1
  Na  Na48  1  -0.00003295  0.16605037  0.00027303  1
  Na  Na49  1  -0.00158552  0.16714620  0.25168186  1
  Na  Na50  1  -0.00202375  0.16649823  0.49913632  1
  Na  Na51  1  -0.00156895  0.16655134  0.74879079  1
  Na  Na52  1  0.00036781  0.49977311  -0.00113277  1
  Na  Na53  1  0.00155715  0.49982821  0.24979925  1
  Na  Na54  1  0.00024256  0.49992250  0.50020950  1
  Na  Na55  1  -0.00179351  0.50081425  0.75136713  1
  Na  Na56  1  -0.00133472  0.83365872  0.00112321  1
  Na  Na57  1  -0.00049985  0.83305125  0.24876640  1
  Na  Na58  1  -0.00073319  0.83311331  0.49908570  1
  Na  Na59  1  -0.00234484  0.83398611  0.75030121  1
  Na  Na60  1  0.50110982  0.16643771  0.00076323  1
  Na  Na61  1  0.50155145  0.16569852  0.25018026  1
  Na  Na62  1  0.50255616  0.16607301  0.49995987  1
  Na  Na63  1  0.50256568  0.16613730  0.74976017  1
  Na  Na64  1  0.50088734  0.49973271  0.00037919  1
  Na  Na65  1  0.50311480  0.49872715  0.24887679  1
  Na  Na66  1  0.50002855  0.50009482  0.50007941  1
  Na  Na67  1  0.49844306  0.50019972  0.75063968  1
  Na  Na68  1  0.49955706  0.83320814  0.00073305  1
  Na  Na69  1  0.50053129  0.83358967  0.25033497  1
  Na  Na70  1  0.50099732  0.83331943  0.49965898  1
  Na  Na71  1  0.49946512  0.83346308  0.74973672  1
  Na  Na72  1  0.24998665  0.16595885  0.12430449  1
  Na  Na73  1  0.24933297  0.16631873  0.37481367  1
  Na  Na74  1  0.24838458  0.16709095  0.62583995  1
  Na  Na75  1  0.24908416  0.16655669  0.87531545  1
  Na  Na76  1  0.24870335  0.49995512  0.12553628  1
  Na  Na77  1  0.24795897  0.50015185  0.37547690  1
  Na  Na78  1  0.25055855  0.49947050  0.62443059  1
  Na  Na79  1  0.25020969  0.49993592  0.87470785  1
  Na  Na80  1  0.25147263  0.83281072  0.12534315  1
  Na  Na81  1  0.24943935  0.83440820  0.37472061  1
  Na  Na82  1  0.25203266  0.83266895  0.62567974  1
  Na  Na83  1  0.25084888  0.83309629  0.87424688  1
  Na  Na84  1  0.75031310  0.16637700  0.12486588  1
  Na  Na85  1  0.74978769  0.16653225  0.37472988  1
  Na  Na86  1  0.75056509  0.16636849  0.62522377  1
  Na  Na87  1  0.75016832  0.16705469  0.87548241  1
  Na  Na88  1  0.74858930  0.50064878  0.12430940  1
  Na  Na89  1  0.74806592  0.50100620  0.37368709  1
  Na  Na90  1  0.75188567  0.49916925  0.62611526  1
  Na  Na91  1  0.75174055  0.49963977  0.87509763  1
  Na  Na92  1  0.75027087  0.83287111  0.12363425  1
  Na  Na93  1  0.74933222  0.83385679  0.37511642  1
  Na  Na94  1  0.75101219  0.83318684  0.62529553  1
  Na  Na95  1  0.75016149  0.83345296  0.87515487  1
  Mn  Mn96  1  0.39283087  0.24912093  0.12758304  1
  Mn  Mn97  1  0.35854022  0.08369206  0.50210292  1
  Mn  Mn98  1  0.10691341  0.08255000  0.37273334  1
  Mn  Mn99  1  0.14155413  0.25061481  0.99777905  1
  Mn  Mn100  1  0.35773292  0.08326392  0.00250937  1
  Mn  Mn101  1  0.35785145  0.41630885  0.25274160  1
  Mn  Mn102  1  0.35835271  0.08395863  0.75228909  1
  Mn  Mn103  1  0.64197022  0.58351454  0.49873944  1
  Mn  Mn104  1  0.14172972  0.58424210  0.24743886  1
  Mn  Mn105  1  0.85790879  0.41710093  0.00278009  1
  Mn  Mn106  1  0.14143467  0.58362590  0.49848434  1
  Mn  Mn107  1  0.89169454  0.25026117  0.37731876  1
  Mn  Mn108  1  0.14125380  0.25062481  0.74807628  1
  Mn  Mn109  1  0.10761682  0.74972914  0.12229342  1
  Mn  Mn110  1  0.64262398  0.24993824  0.99763640  1
  Mn  Mn111  1  0.60854517  0.08325273  0.87251557  1
  Mn  Mn112  1  0.39294373  0.91732587  0.37722785  1
  Mn  Mn113  1  0.89229485  0.91707825  0.12835792  1
  Mn  Mn114  1  0.60779186  0.74971605  0.62347926  1
  Mn  Mn115  1  0.89159050  0.58339940  0.37680862  1
  Mn  Mn116  1  0.10653226  0.08332445  0.62218084  1
  Mn  Mn117  1  0.14198581  0.58327956  0.74763714  1
  Mn  Mn118  1  0.85809231  0.41631480  0.50208297  1
  Mn  Mn119  1  0.64229593  0.91617511  0.99798776  1
  Mn  Mn120  1  0.14175830  0.24865245  0.24729333  1
  Mn  Mn121  1  0.39320197  0.25020036  0.37691170  1
  Mn  Mn122  1  0.85804462  0.75020762  0.50213733  1
  Mn  Mn123  1  0.39276473  0.24978343  0.87706618  1
  Mn  Mn124  1  0.39206796  0.58329035  0.87802878  1
  Mn  Mn125  1  0.39275740  0.58233257  0.37651130  1
  Mn  Mn126  1  0.39301698  0.91680054  0.87694236  1
  Mn  Mn127  1  0.35748400  0.41618746  0.50153532  1
  Mn  Mn128  1  0.64266278  0.25001840  0.49781648  1
  Mn  Mn129  1  0.14156553  0.91718562  0.49837173  1
  Mn  Mn130  1  0.64284477  0.58373436  0.99729167  1
  Mn  Mn131  1  0.39237699  0.58365456  0.12740081  1
  Mn  Mn132  1  0.85728144  0.08325021  0.75235575  1
  Mn  Mn133  1  0.60812562  0.41712798  0.62338396  1
  Mn  Mn134  1  0.85874053  0.08298438  0.00270028  1
  Mn  Mn135  1  0.10678818  0.75000851  0.62336523  1
  Mn  Mn136  1  0.60848445  0.74954121  0.37208856  1
  Mn  Mn137  1  0.14251001  0.91544560  0.99753229  1
  Mn  Mn138  1  0.10728335  0.41632858  0.87240838  1
  Mn  Mn139  1  0.35768963  0.75039211  0.50191725  1
  Mn  Mn140  1  0.39216853  0.24962602  0.62735963  1
  Mn  Mn141  1  0.14176901  0.91643009  0.74765546  1
  Mn  Mn142  1  0.85710832  0.41688677  0.25175535  1
  Mn  Mn143  1  0.64321323  0.58337895  0.74782737  1
  Fe  Fe144  1  0.89249715  0.25045561  0.62664248  1
  Fe  Fe145  1  0.89278083  0.25049296  0.12703791  1
  Fe  Fe146  1  0.64351311  0.24997632  0.74857317  1
  Fe  Fe147  1  0.64273078  0.58426710  0.24733944  1
  Fe  Fe148  1  0.89223146  0.58290312  0.62683811  1
  Fe  Fe149  1  0.35724011  0.41733980  0.00197987  1
  Fe  Fe150  1  0.89310524  0.58372923  0.87741990  1
  Fe  Fe151  1  0.85757191  0.75013815  0.75264792  1
  Fe  Fe152  1  0.35727124  0.41668006  0.75156610  1
  Fe  Fe153  1  0.85739449  0.75002769  0.00155621  1
  Fe  Fe154  1  0.14290781  0.91692463  0.24862151  1
  Fe  Fe155  1  0.10664787  0.75069103  0.87358871  1
  Fe  Fe156  1  0.10692563  0.75020534  0.37304192  1
  Fe  Fe157  1  0.85623553  0.08325786  0.50156721  1
  Fe  Fe158  1  0.14256170  0.58389050  0.99871754  1
  Fe  Fe159  1  0.10659357  0.41675563  0.62417929  1
  Fe  Fe160  1  0.85792340  0.41652959  0.75179619  1
  Fe  Fe161  1  0.60754193  0.41678623  0.12246373  1
  Fe  Fe162  1  0.60840560  0.41641580  0.37290546  1
  Fe  Fe163  1  0.89304232  0.58231446  0.12657295  1
  Fe  Fe164  1  0.60876540  0.08377628  0.37233936  1
  Fe  Fe165  1  0.35750556  0.74947054  0.00155704  1
  Fe  Fe166  1  0.10705121  0.41635039  0.12324277  1
  Fe  Fe167  1  0.60723259  0.75027211  0.12315888  1
  Fe  Fe168  1  0.89225434  0.24936224  0.87661139  1
  Fe  Fe169  1  0.39308360  0.91692081  0.12725718  1
  Fe  Fe170  1  0.60761548  0.08278455  0.12392004  1
  Fe  Fe171  1  0.39186123  0.58356151  0.62663200  1
  Fe  Fe172  1  0.64297949  0.24950364  0.24772646  1
  Fe  Fe173  1  0.10722518  0.41739425  0.37337703  1
  Fe  Fe174  1  0.89128990  0.91651036  0.62703408  1
  Fe  Fe175  1  0.64324638  0.91634164  0.24819963  1
  Fe  Fe176  1  0.35763898  0.08300910  0.25154297  1
  Fe  Fe177  1  0.85668046  0.08256018  0.25117850  1
  Fe  Fe178  1  0.89200634  0.91614735  0.37577036  1
  Fe  Fe179  1  0.64336548  0.91655461  0.74799587  1
  Fe  Fe180  1  0.60808220  0.08312960  0.62321019  1
  Fe  Fe181  1  0.35763899  0.74972411  0.75223653  1
  Fe  Fe182  1  0.60717403  0.41732559  0.87276413  1
  Fe  Fe183  1  0.85650196  0.75041349  0.25093752  1
  Fe  Fe184  1  0.35737051  0.75059751  0.25187498  1
  Fe  Fe185  1  0.39380360  0.91670529  0.62638787  1
  Fe  Fe186  1  0.60758652  0.74933240  0.87300137  1
  Fe  Fe187  1  0.89255364  0.91679536  0.87639964  1
  Fe  Fe188  1  0.10672325  0.08270594  0.87369288  1
  Fe  Fe189  1  0.14154939  0.24936384  0.49883783  1
  Fe  Fe190  1  0.64333766  0.91624315  0.49857864  1
  Fe  Fe191  1  0.10709625  0.08409475  0.12400140  1
  P  P192  1  0.05193048  0.24983066  0.11041386  1
  P  P193  1  0.05425891  0.25021546  0.36136630  1
  P  P194  1  0.05195597  0.25062471  0.60960631  1
  P  P195  1  0.05149984  0.24893377  0.86002357  1
  P  P196  1  0.05270340  0.58285559  0.10902875  1
  P  P197  1  0.05313334  0.58410037  0.36000846  1
  P  P198  1  0.05123295  0.58302072  0.61085510  1
  P  P199  1  0.05364665  0.58470823  0.86161004  1
  P  P200  1  0.05473058  0.91757468  0.11160414  1
  P  P201  1  0.05249411  0.91571391  0.35916125  1
  P  P202  1  0.05063612  0.91643703  0.60985525  1
  P  P203  1  0.05202333  0.91619594  0.86038864  1
  P  P204  1  0.55545810  0.24927798  0.11130382  1
  P  P205  1  0.55510189  0.24994908  0.35923205  1
  P  P206  1  0.55515267  0.24952267  0.61153993  1
  P  P207  1  0.55460934  0.25120451  0.85938591  1
  P  P208  1  0.55510057  0.58417567  0.11091456  1
  P  P209  1  0.55454820  0.58259805  0.35892738  1
  P  P210  1  0.55163221  0.58367891  0.61053774  1
  P  P211  1  0.55372931  0.58357957  0.86020512  1
  P  P212  1  0.55413164  0.91637105  0.11184920  1
  P  P213  1  0.55629479  0.91723641  0.36055313  1
  P  P214  1  0.55493116  0.91682704  0.61060821  1
  P  P215  1  0.55484657  0.91515453  0.85939601  1
  P  P216  1  0.44763776  0.08210005  0.14085328  1
  P  P217  1  0.44797293  0.08359096  0.38892237  1
  P  P218  1  0.44858032  0.08240381  0.63979997  1
  P  P219  1  0.44764864  0.08325775  0.89045155  1
  P  P220  1  0.44671621  0.41676788  0.13881290  1
  P  P221  1  0.44897641  0.41610625  0.38982126  1
  P  P222  1  0.44588783  0.41722109  0.64048885  1
  P  P223  1  0.44623570  0.41661005  0.88991048  1
  P  P224  1  0.44586977  0.75095344  0.13950555  1
  P  P225  1  0.44587735  0.75020992  0.38862794  1
  P  P226  1  0.44588610  0.75035479  0.64025783  1
  P  P227  1  0.44649174  0.75000190  0.88988379  1
  P  P228  1  0.94722594  0.08428092  0.14120474  1
  P  P229  1  0.94346662  0.08199808  0.38897218  1
  P  P230  1  0.94415255  0.08328984  0.63806975  1
  P  P231  1  0.94723171  0.08281148  0.88973939  1
  P  P232  1  0.94775141  0.41683440  0.13987773  1
  P  P233  1  0.94763324  0.41704367  0.38973415  1
  P  P234  1  0.94692930  0.41645355  0.64047534  1
  P  P235  1  0.94493962  0.41644250  0.88871556  1
  P  P236  1  0.94455611  0.74884466  0.13914949  1
  P  P237  1  0.94587559  0.75095672  0.38786980  1
  P  P238  1  0.94517690  0.75008392  0.64078664  1
  P  P239  1  0.94557781  0.75063640  0.88970222  1
  P  P240  1  0.19715074  0.08208836  0.23430344  1
  P  P241  1  0.19642556  0.08373293  0.48504551  1
  P  P242  1  0.19485148  0.08332290  0.73612245  1
  P  P243  1  0.19459875  0.08318573  0.98535209  1
  P  P244  1  0.19451403  0.41657979  0.23541877  1
  P  P245  1  0.19387195  0.41593523  0.48595994  1
  P  P246  1  0.19692165  0.41699823  0.73431225  1
  P  P247  1  0.19606115  0.41788587  0.98626861  1
  P  P248  1  0.19635962  0.75139925  0.23614553  1
  P  P249  1  0.19557707  0.75051372  0.48448792  1
  P  P250  1  0.19658136  0.75005284  0.73602459  1
  P  P251  1  0.19736672  0.74910520  0.98416842  1
  P  P252  1  0.69639814  0.08276981  0.23544212  1
  P  P253  1  0.69591902  0.08256491  0.48561648  1
  P  P254  1  0.69617459  0.08321623  0.73465899  1
  P  P255  1  0.69615011  0.08300350  0.98613944  1
  P  P256  1  0.69470948  0.41678977  0.23484164  1
  P  P257  1  0.69671201  0.41697555  0.48433106  1
  P  P258  1  0.69733426  0.41619916  0.73664529  1
  P  P259  1  0.69510065  0.41688235  0.98496542  1
  P  P260  1  0.69719433  0.75046140  0.23392476  1
  P  P261  1  0.69686699  0.75025233  0.48532034  1
  P  P262  1  0.69733303  0.75046735  0.73655120  1
  P  P263  1  0.69634334  0.74994878  0.98508637  1
  P  P264  1  0.30338184  0.25104450  0.01524272  1
  P  P265  1  0.30340812  0.24876989  0.26507367  1
  P  P266  1  0.30180626  0.24983963  0.51491157  1
  P  P267  1  0.30296206  0.25113109  0.76537083  1
  P  P268  1  0.30220972  0.58369717  0.01510741  1
  P  P269  1  0.30319793  0.58401339  0.26514570  1
  P  P270  1  0.30361235  0.58326013  0.51528780  1
  P  P271  1  0.30478888  0.58305158  0.76377319  1
  P  P272  1  0.30456213  0.91554994  0.01540899  1
  P  P273  1  0.30407616  0.91724305  0.26361708  1
  P  P274  1  0.30396057  0.91724636  0.51595104  1
  P  P275  1  0.30502162  0.91634183  0.76391848  1
  P  P276  1  0.80553483  0.24995461  0.01501339  1
  P  P277  1  0.80331813  0.24947245  0.26327899  1
  P  P278  1  0.80377580  0.24940884  0.51547626  1
  P  P279  1  0.80419372  0.25055414  0.76460824  1
  P  P280  1  0.80562858  0.58420014  0.01440580  1
  P  P281  1  0.80307308  0.58406608  0.26289638  1
  P  P282  1  0.80359371  0.58314451  0.51586768  1
  P  P283  1  0.80607891  0.58315704  0.76482520  1
  P  P284  1  0.80512224  0.91596282  0.01390283  1
  P  P285  1  0.80250698  0.91630405  0.26492826  1
  P  P286  1  0.80376964  0.91728742  0.51412256  1
  P  P287  1  0.80387669  0.91624017  0.76471833  1
  O  O288  1  0.05538851  0.24982034  0.18714769  1
  O  O289  1  0.05798355  0.24914795  0.43809829  1
  O  O290  1  0.05539504  0.24968818  0.68635891  1
  O  O291  1  0.05538915  0.24990111  0.93672298  1
  O  O292  1  0.05632974  0.58401992  0.18577224  1
  O  O293  1  0.05574842  0.58433789  0.43678636  1
  O  O294  1  0.05487094  0.58368039  0.68758243  1
  O  O295  1  0.05858348  0.58416424  0.93822137  1
  O  O296  1  0.05900454  0.91666615  0.18830498  1
  O  O297  1  0.05583261  0.91643308  0.43589233  1
  O  O298  1  0.05512812  0.91667571  0.68652647  1
  O  O299  1  0.05576873  0.91586997  0.93710562  1
  O  O300  1  0.55939414  0.24921433  0.18806664  1
  O  O301  1  0.55751108  0.24979122  0.43608569  1
  O  O302  1  0.55955911  0.25029539  0.68824290  1
  O  O303  1  0.55718359  0.25030263  0.93623477  1
  O  O304  1  0.55908756  0.58439697  0.18766812  1
  O  O305  1  0.55688700  0.58377986  0.43576718  1
  O  O306  1  0.55620527  0.58368108  0.68718679  1
  O  O307  1  0.55684014  0.58379205  0.93697000  1
  O  O308  1  0.55889090  0.91626067  0.18850544  1
  O  O309  1  0.56033709  0.91636177  0.43733646  1
  O  O310  1  0.55958697  0.91596328  0.68733314  1
  O  O311  1  0.55729777  0.91576462  0.93626052  1
  O  O312  1  0.44370108  0.08276626  0.06413522  1
  O  O313  1  0.44229886  0.08322344  0.31235733  1
  O  O314  1  0.44500941  0.08321038  0.56305319  1
  O  O315  1  0.44445007  0.08335623  0.81367469  1
  O  O316  1  0.44115647  0.41712134  0.06216145  1
  O  O317  1  0.44487913  0.41603880  0.31309607  1
  O  O318  1  0.44299061  0.41637853  0.56366811  1
  O  O319  1  0.44113031  0.41670080  0.81326337  1
  O  O320  1  0.44125831  0.74989722  0.06278489  1
  O  O321  1  0.44136404  0.75068148  0.31184399  1
  O  O322  1  0.44344194  0.75026060  0.56341815  1
  O  O323  1  0.44136624  0.74982305  0.81321779  1
  O  O324  1  0.94409469  0.08307030  0.06444997  1
  O  O325  1  0.93934738  0.08293854  0.31219642  1
  O  O326  1  0.94041898  0.08292220  0.56131563  1
  O  O327  1  0.94346561  0.08290234  0.81302049  1
  O  O328  1  0.94415091  0.41687427  0.06317865  1
  O  O329  1  0.94335861  0.41687264  0.31306872  1
  O  O330  1  0.94403339  0.41658638  0.56373055  1
  O  O331  1  0.94125092  0.41634682  0.81194938  1
  O  O332  1  0.94081409  0.74998553  0.06239672  1
  O  O333  1  0.94082725  0.75041453  0.31123007  1
  O  O334  1  0.94300643  0.75030731  0.56389985  1
  O  O335  1  0.94122581  0.75070580  0.81295389  1
  O  O336  1  0.19020224  0.08353845  0.06209549  1
  O  O337  1  0.19293971  0.08279608  0.31100033  1
  O  O338  1  0.19298159  0.08306179  0.56184835  1
  O  O339  1  0.18995715  0.08288816  0.81290137  1
  O  O340  1  0.19075020  0.41670676  0.06294125  1
  O  O341  1  0.19008191  0.41675843  0.31222810  1
  O  O342  1  0.18964986  0.41694326  0.56274599  1
  O  O343  1  0.19282097  0.41710655  0.81109890  1
  O  O344  1  0.19355532  0.75002194  0.06094397  1
  O  O345  1  0.19122304  0.75083664  0.31275501  1
  O  O346  1  0.19248616  0.75038325  0.56133227  1
  O  O347  1  0.19093980  0.75037021  0.81262526  1
  O  O348  1  0.69159823  0.08277659  0.06287450  1
  O  O349  1  0.69264289  0.08326859  0.31223953  1
  O  O350  1  0.69160585  0.08314188  0.56233614  1
  O  O351  1  0.69392493  0.08334191  0.81152081  1
  O  O352  1  0.69058179  0.41695658  0.06177632  1
  O  O353  1  0.69152365  0.41673377  0.31168773  1
  O  O354  1  0.69386859  0.41692019  0.56119509  1
  O  O355  1  0.69239019  0.41701491  0.81326423  1
  O  O356  1  0.69123415  0.74995161  0.06173535  1
  O  O357  1  0.69411945  0.75000691  0.31064459  1
  O  O358  1  0.69397353  0.74978978  0.56211807  1
  O  O359  1  0.69251766  0.74962831  0.81317334  1
  O  O360  1  0.30685727  0.24960081  0.18829273  1
  O  O361  1  0.30618385  0.24977986  0.43822832  1
  O  O362  1  0.30606155  0.25008073  0.68857429  1
  O  O363  1  0.30661880  0.25049144  0.93847817  1
  O  O364  1  0.30643858  0.58330077  0.18833878  1
  O  O365  1  0.30682113  0.58306400  0.43849345  1
  O  O366  1  0.30856710  0.58338572  0.68702299  1
  O  O367  1  0.30563376  0.58337327  0.93835163  1
  O  O368  1  0.30866490  0.91711332  0.18693769  1
  O  O369  1  0.30720987  0.91741586  0.43909933  1
  O  O370  1  0.30960532  0.91711993  0.68723344  1
  O  O371  1  0.30750228  0.91658951  0.93861543  1
  O  O372  1  0.80845793  0.25043402  0.18661822  1
  O  O373  1  0.80626110  0.25036457  0.43859319  1
  O  O374  1  0.80882228  0.25029143  0.68791045  1
  O  O375  1  0.80975906  0.24963786  0.93817554  1
  O  O376  1  0.80816246  0.58278474  0.18628328  1
  O  O377  1  0.80616013  0.58309706  0.43898356  1
  O  O378  1  0.80972635  0.58285036  0.68797815  1
  O  O379  1  0.80980928  0.58337680  0.93760966  1
  O  O380  1  0.80593507  0.91643785  0.18821338  1
  O  O381  1  0.80806148  0.91633109  0.43745710  1
  O  O382  1  0.80809221  0.91666253  0.68795380  1
  O  O383  1  0.80922520  0.91699786  0.93713861  1
  O  O384  1  0.23360428  0.25043675  0.04023956  1
  O  O385  1  0.23358869  0.24903377  0.28972836  1
  O  O386  1  0.23170612  0.25000758  0.53931455  1
  O  O387  1  0.23335041  0.25093612  0.79082192  1
  O  O388  1  0.23234623  0.58399840  0.04031003  1
  O  O389  1  0.23348315  0.58398967  0.29012889  1
  O  O390  1  0.23380083  0.58357559  0.54024741  1
  O  O391  1  0.23484271  0.58306626  0.78837057  1
  O  O392  1  0.23469970  0.91586683  0.04015195  1
  O  O393  1  0.23381200  0.91721194  0.28777068  1
  O  O394  1  0.23419683  0.91685512  0.54095287  1
  O  O395  1  0.23493334  0.91646432  0.78808569  1
  O  O396  1  0.73539087  0.24992448  0.03859991  1
  O  O397  1  0.73287707  0.24959705  0.28674825  1
  O  O398  1  0.73418733  0.24996820  0.54080299  1
  O  O399  1  0.73385576  0.24978437  0.78845271  1
  O  O400  1  0.73547582  0.58365180  0.03804718  1
  O  O401  1  0.73265099  0.58402053  0.28641212  1
  O  O402  1  0.73415085  0.58339344  0.54172217  1
  O  O403  1  0.73604703  0.58341112  0.78922676  1
  O  O404  1  0.73511756  0.91593839  0.03808173  1
  O  O405  1  0.73246024  0.91660194  0.28957585  1
  O  O406  1  0.73348161  0.91640411  0.53823182  1
  O  O407  1  0.73358872  0.91698074  0.78859789  1
  O  O408  1  0.26728014  0.08266121  0.20998336  1
  O  O409  1  0.26609056  0.08322635  0.45984429  1
  O  O410  1  0.26503918  0.08374182  0.71252166  1
  O  O411  1  0.26482771  0.08304081  0.96166077  1
  O  O412  1  0.26472143  0.41660668  0.21179914  1
  O  O413  1  0.26394959  0.41652003  0.46158831  1
  O  O414  1  0.26698891  0.41686351  0.71013194  1
  O  O415  1  0.26647515  0.41763642  0.96273746  1
  O  O416  1  0.26678657  0.75084516  0.21257631  1
  O  O417  1  0.26536345  0.75069893  0.45962076  1
  O  O418  1  0.26707252  0.74987039  0.71293948  1
  O  O419  1  0.26751040  0.74981029  0.95985290  1
  O  O420  1  0.76669679  0.08245906  0.21111335  1
  O  O421  1  0.76622134  0.08349609  0.46169503  1
  O  O422  1  0.76580462  0.08281745  0.70928235  1
  O  O423  1  0.76615765  0.08335361  0.96205892  1
  O  O424  1  0.76467058  0.41683706  0.20999893  1
  O  O425  1  0.76626733  0.41669463  0.45875340  1
  O  O426  1  0.76773491  0.41664506  0.71296137  1
  O  O427  1  0.76535723  0.41692491  0.96171701  1
  O  O428  1  0.76722558  0.75041259  0.20904854  1
  O  O429  1  0.76643034  0.75012747  0.45980060  1
  O  O430  1  0.76771571  0.75013054  0.71292657  1
  O  O431  1  0.76684130  0.75007438  0.96190886  1
  O  O432  1  0.01718157  0.08393428  0.16611891  1
  O  O433  1  0.01359294  0.08241619  0.41291655  1
  O  O434  1  0.01398381  0.08353052  0.66290855  1
  O  O435  1  0.01715596  0.08270193  0.91469212  1
  O  O436  1  0.01777091  0.41681764  0.16457279  1
  O  O437  1  0.01768296  0.41718217  0.41402252  1
  O  O438  1  0.01685838  0.41640001  0.66584832  1
  O  O439  1  0.01492026  0.41643154  0.91319787  1
  O  O440  1  0.01470928  0.74977672  0.16307627  1
  O  O441  1  0.01606606  0.75056146  0.41194259  1
  O  O442  1  0.01470596  0.75003957  0.66661813  1
  O  O443  1  0.01586665  0.75032296  0.91383273  1
  O  O444  1  0.51786602  0.08253501  0.16495972  1
  O  O445  1  0.51850981  0.08351027  0.41195086  1
  O  O446  1  0.51862673  0.08268006  0.66442605  1
  O  O447  1  0.51734562  0.08284363  0.91549149  1
  O  O448  1  0.51741286  0.41666928  0.16135168  1
  O  O449  1  0.51900117  0.41640970  0.41426862  1
  O  O450  1  0.51570236  0.41692749  0.66551778  1
  O  O451  1  0.51673532  0.41694991  0.91316619  1
  O  O452  1  0.51632050  0.75058457  0.16309705  1
  O  O453  1  0.51593992  0.75004023  0.41255415  1
  O  O454  1  0.51557781  0.75010660  0.66571431  1
  O  O455  1  0.51692647  0.74997561  0.91324190  1
  O  O456  1  0.48552009  0.24964262  0.08675930  1
  O  O457  1  0.48558332  0.25000184  0.33346656  1
  O  O458  1  0.48520222  0.24988691  0.58704388  1
  O  O459  1  0.48499870  0.25014182  0.83405017  1
  O  O460  1  0.48514007  0.58375749  0.08643285  1
  O  O461  1  0.48500025  0.58287555  0.33317957  1
  O  O462  1  0.48158003  0.58357725  0.58618961  1
  O  O463  1  0.48399235  0.58344374  0.83536248  1
  O  O464  1  0.48389184  0.91637114  0.08780779  1
  O  O465  1  0.48616479  0.91684980  0.33664827  1
  O  O466  1  0.48463390  0.91650593  0.58664657  1
  O  O467  1  0.48520870  0.91631432  0.83420621  1
  O  O468  1  0.98197582  0.24975925  0.08546660  1
  O  O469  1  0.98423239  0.25010466  0.33694172  1
  O  O470  1  0.98186919  0.25046514  0.58500181  1
  O  O471  1  0.98143076  0.24944444  0.83547983  1
  O  O472  1  0.98261859  0.58310437  0.08462272  1
  O  O473  1  0.98357378  0.58363026  0.33430409  1
  O  O474  1  0.98126616  0.58333196  0.58591697  1
  O  O475  1  0.98313704  0.58408110  0.83832535  1
  O  O476  1  0.98459379  0.91685908  0.08770965  1
  O  O477  1  0.98242008  0.91660360  0.33447223  1
  O  O478  1  0.98046867  0.91604782  0.58576892  1
  O  O479  1  0.98195626  0.91648836  0.83569341  1
  O  O480  1  0.08571929  0.31491846  0.07753869  1
  O  O481  1  0.08785526  0.31538597  0.32886340  1
  O  O482  1  0.08604772  0.31584570  0.57769946  1
  O  O483  1  0.08537629  0.31401343  0.82712441  1
  O  O484  1  0.08679220  0.64778404  0.07600247  1
  O  O485  1  0.08700719  0.64931736  0.32739087  1
  O  O486  1  0.08516426  0.64793738  0.57791943  1
  O  O487  1  0.08637174  0.64997805  0.82816114  1
  O  O488  1  0.08767315  0.98304222  0.07893874  1
  O  O489  1  0.08709455  0.98051550  0.32647730  1
  O  O490  1  0.08400845  0.98152823  0.57664657  1
  O  O491  1  0.08588870  0.98121948  0.82769636  1
  O  O492  1  0.58926016  0.31428906  0.07839436  1
  O  O493  1  0.58967262  0.31495757  0.32717459  1
  O  O494  1  0.58893722  0.31446074  0.57836294  1
  O  O495  1  0.58841256  0.31667323  0.82734908  1
  O  O496  1  0.58833448  0.64959441  0.07800247  1
  O  O497  1  0.58911104  0.64746599  0.32616810  1
  O  O498  1  0.58524994  0.64873862  0.57753333  1
  O  O499  1  0.58770205  0.64873209  0.82763674  1
  O  O500  1  0.58761767  0.98143117  0.07864522  1
  O  O501  1  0.58981523  0.98243101  0.32770919  1
  O  O502  1  0.58847406  0.98199088  0.57768743  1
  O  O503  1  0.58986284  0.97976997  0.82698212  1
  O  O504  1  0.41404866  0.01695409  0.17369614  1
  O  O505  1  0.41489370  0.01862146  0.42266366  1
  O  O506  1  0.41489824  0.01720361  0.67226539  1
  O  O507  1  0.41339194  0.01829079  0.92282690  1
  O  O508  1  0.41390223  0.35167204  0.17247503  1
  O  O509  1  0.41531495  0.35106916  0.42282166  1
  O  O510  1  0.41155462  0.35233143  0.67326437  1
  O  O511  1  0.41306093  0.35155897  0.92338107  1
  O  O512  1  0.41219168  0.68616708  0.17310865  1
  O  O513  1  0.41229603  0.68506008  0.42133806  1
  O  O514  1  0.41136065  0.68548139  0.67270868  1
  O  O515  1  0.41305163  0.68507389  0.92354463  1
  O  O516  1  0.91283382  0.01941112  0.17402650  1
  O  O517  1  0.91006162  0.01659658  0.42149880  1
  O  O518  1  0.91060143  0.01822014  0.67126306  1
  O  O519  1  0.91342557  0.01772091  0.92249809  1
  O  O520  1  0.91385170  0.35180839  0.17264801  1
  O  O521  1  0.91403527  0.35197914  0.42270001  1
  O  O522  1  0.91262633  0.35131024  0.67278920  1
  O  O523  1  0.91130858  0.35138012  0.92155312  1
  O  O524  1  0.91144938  0.68332446  0.17174906  1
  O  O525  1  0.91229940  0.68612717  0.42144267  1
  O  O526  1  0.91078173  0.68499394  0.67283148  1
  O  O527  1  0.91181460  0.68559700  0.92268817  1
  O  O528  1  0.16328364  0.01703048  0.20171895  1
  O  O529  1  0.16214442  0.01871661  0.45246331  1
  O  O530  1  0.16162017  0.01830037  0.70252058  1
  O  O531  1  0.16109300  0.01802053  0.95225607  1
  O  O532  1  0.16094592  0.35152404  0.20221549  1
  O  O533  1  0.16049760  0.35061287  0.45329885  1
  O  O534  1  0.16268044  0.35207658  0.70172582  1
  O  O535  1  0.16275048  0.35295807  0.95240680  1
  O  O536  1  0.16299647  0.68646849  0.20237507  1
  O  O537  1  0.16139582  0.68543425  0.45203886  1
  O  O538  1  0.16350453  0.68492561  0.70254021  1
  O  O539  1  0.16356315  0.68390486  0.95178265  1
  O  O540  1  0.66277102  0.01757722  0.20263207  1
  O  O541  1  0.66295381  0.01729664  0.45251292  1
  O  O542  1  0.66175817  0.01812369  0.70252970  1
  O  O543  1  0.66284256  0.01789110  0.95299169  1
  O  O544  1  0.66098462  0.35160977  0.20207599  1
  O  O545  1  0.66221524  0.35202306  0.45202410  1
  O  O546  1  0.66434520  0.35100268  0.70339724  1
  O  O547  1  0.66172291  0.35186542  0.95181206  1
  O  O548  1  0.66297761  0.68572103  0.20094449  1
  O  O549  1  0.66273177  0.68521180  0.45284092  1
  O  O550  1  0.66404691  0.68558207  0.70274325  1
  O  O551  1  0.66322969  0.68496352  0.95135872  1
  O  O552  1  0.33716748  0.31625428  0.04764248  1
  O  O553  1  0.33731770  0.31382289  0.29792969  1
  O  O554  1  0.33569660  0.31489348  0.54755100  1
  O  O555  1  0.33699204  0.31657359  0.79716627  1
  O  O556  1  0.33639679  0.64894865  0.04721315  1
  O  O557  1  0.33736794  0.64922250  0.29699628  1
  O  O558  1  0.33790748  0.64825042  0.54770225  1
  O  O559  1  0.33851632  0.64807434  0.79692353  1
  O  O560  1  0.33893405  0.98032128  0.04841680  1
  O  O561  1  0.33742180  0.98247962  0.29684357  1
  O  O562  1  0.33824206  0.98220198  0.54849693  1
  O  O563  1  0.33848884  0.98131258  0.79743768  1
  O  O564  1  0.83890778  0.31513003  0.04816639  1
  O  O565  1  0.83637720  0.31449188  0.29713537  1
  O  O566  1  0.83842151  0.31416095  0.54808491  1
  O  O567  1  0.83746514  0.31552326  0.79799126  1
  O  O568  1  0.83889115  0.64943230  0.04712679  1
  O  O569  1  0.83615545  0.64940031  0.29591762  1
  O  O570  1  0.83834769  0.64805062  0.54788403  1
  O  O571  1  0.83985673  0.64836879  0.79756817  1
  O  O572  1  0.83854284  0.98080315  0.04758398  1
  O  O573  1  0.83667808  0.98115144  0.29763184  1
  O  O574  1  0.83655033  0.98272883  0.54721828  1
  O  O575  1  0.83772938  0.98110168  0.79803487  1
  O  O576  1  0.41363983  0.14696591  0.17393934  1
  O  O577  1  0.41502948  0.14872951  0.42253406  1
  O  O578  1  0.41456545  0.14736128  0.67272714  1
  O  O579  1  0.41379970  0.14841103  0.92297756  1
  O  O580  1  0.41395168  0.48179335  0.17268313  1
  O  O581  1  0.41482084  0.48106222  0.42235122  1
  O  O582  1  0.41185088  0.48241248  0.67271319  1
  O  O583  1  0.41273441  0.48156627  0.92354066  1
  O  O584  1  0.41262222  0.81619717  0.17260518  1
  O  O585  1  0.41259330  0.81524319  0.42198080  1
  O  O586  1  0.41192409  0.81568687  0.67249305  1
  O  O587  1  0.41309977  0.81496246  0.92322613  1
  O  O588  1  0.91303668  0.14938983  0.17327111  1
  O  O589  1  0.90953011  0.14673990  0.42239157  1
  O  O590  1  0.91051615  0.14856840  0.67078175  1
  O  O591  1  0.91338303  0.14793650  0.92234781  1
  O  O592  1  0.91394334  0.48205629  0.17250064  1
  O  O593  1  0.91386784  0.48205080  0.42246914  1
  O  O594  1  0.91271738  0.48137133  0.67310445  1
  O  O595  1  0.91152888  0.48167360  0.92164489  1
  O  O596  1  0.91035117  0.81339144  0.17273755  1
  O  O597  1  0.91270125  0.81625269  0.42100952  1
  O  O598  1  0.91063537  0.81513409  0.67296018  1
  O  O599  1  0.91214483  0.81569875  0.92287693  1
  O  O600  1  0.08592037  0.18466855  0.07808246  1
  O  O601  1  0.08759611  0.18509888  0.32794989  1
  O  O602  1  0.08594076  0.18578186  0.57636421  1
  O  O603  1  0.08497580  0.18374532  0.82752645  1
  O  O604  1  0.08661474  0.51767932  0.07675857  1
  O  O605  1  0.08762409  0.51901183  0.32806052  1
  O  O606  1  0.08504342  0.51781415  0.57861034  1
  O  O607  1  0.08691253  0.51971358  0.82800058  1
  O  O608  1  0.08829106  0.85269963  0.07796766  1
  O  O609  1  0.08631220  0.85060739  0.32651409  1
  O  O610  1  0.08452614  0.85142593  0.57725297  1
  O  O611  1  0.08562194  0.85096982  0.82751468  1
  O  O612  1  0.58874944  0.18383756  0.07860472  1
  O  O613  1  0.58962171  0.18483908  0.32699786  1
  O  O614  1  0.58857389  0.18421049  0.57871534  1
  O  O615  1  0.58971332  0.18660808  0.82697928  1
  O  O616  1  0.58903484  0.51921584  0.07811825  1
  O  O617  1  0.58892722  0.51737929  0.32727793  1
  O  O618  1  0.58555182  0.51864627  0.57782014  1
  O  O619  1  0.58779697  0.51842366  0.82775615  1
  O  O620  1  0.58742491  0.85122394  0.07841404  1
  O  O621  1  0.59003154  0.85244945  0.32693304  1
  O  O622  1  0.58854306  0.85191375  0.57708536  1
  O  O623  1  0.58853411  0.84974392  0.82717501  1
  O  O624  1  0.33767103  0.18592459  0.04763783  1
  O  O625  1  0.33726430  0.18333506  0.29708504  1
  O  O626  1  0.33555949  0.18481366  0.54795082  1
  O  O627  1  0.33729695  0.18618178  0.79798628  1
  O  O628  1  0.33626541  0.51875514  0.04788725  1
  O  O629  1  0.33704202  0.51876882  0.29775757  1
  O  O630  1  0.33771664  0.51822320  0.54774632  1
  O  O631  1  0.33824633  0.51772278  0.79661212  1
  O  O632  1  0.33847987  0.85019868  0.04744119  1
  O  O633  1  0.33752919  0.85226028  0.29697679  1
  O  O634  1  0.33850216  0.85228117  0.54813096  1
  O  O635  1  0.33847136  0.85101288  0.79674350  1
  O  O636  1  0.83922869  0.18516840  0.04834265  1
  O  O637  1  0.83634162  0.18426879  0.29636240  1
  O  O638  1  0.83774263  0.18412726  0.54739416  1
  O  O639  1  0.83775340  0.18547635  0.79801863  1
  O  O640  1  0.83928777  0.51936831  0.04804474  1
  O  O641  1  0.83613637  0.51918668  0.29697262  1
  O  O642  1  0.83802869  0.51810616  0.54808564  1
  O  O643  1  0.83977978  0.51816774  0.79786489  1
  O  O644  1  0.83862909  0.85073885  0.04648015  1
  O  O645  1  0.83625831  0.85106493  0.29756699  1
  O  O646  1  0.83772053  0.85268855  0.54778489  1
  O  O647  1  0.83725399  0.85119579  0.79792312  1
  O  O648  1  0.16298924  0.14697481  0.20115190  1
  O  O649  1  0.16235570  0.14890865  0.45288481  1
  O  O650  1  0.16123179  0.14843052  0.70320967  1
  O  O651  1  0.16093408  0.14811567  0.95204990  1
  O  O652  1  0.16084601  0.48150620  0.20215514  1
  O  O653  1  0.15994649  0.48086814  0.45268591  1
  O  O654  1  0.16296045  0.48194426  0.70140649  1
  O  O655  1  0.16302034  0.48318337  0.95321237  1
  O  O656  1  0.16339729  0.81648549  0.20264750  1
  O  O657  1  0.16131068  0.81548287  0.45199223  1
  O  O658  1  0.16352034  0.81499488  0.70221176  1
  O  O659  1  0.16308381  0.81389105  0.95107142  1
  O  O660  1  0.66286839  0.14765913  0.20206127  1
  O  O661  1  0.66213052  0.14732391  0.45206831  1
  O  O662  1  0.66215225  0.14838064  0.70235507  1
  O  O663  1  0.66257540  0.14797834  0.95304442  1
  O  O664  1  0.66083451  0.48188065  0.20208803  1
  O  O665  1  0.66237881  0.48201788  0.45215958  1
  O  O666  1  0.66403556  0.48113273  0.70284541  1
  O  O667  1  0.66164164  0.48183462  0.95163127  1
  O  O668  1  0.66333699  0.81577331  0.20152112  1
  O  O669  1  0.66272548  0.81529155  0.45306940  1
  O  O670  1  0.66429203  0.81572868  0.70338110  1
  O  O671  1  0.66289562  0.81482239  0.95170411  1
