# generated using pymatgen
data_Na2MnFe(PO4)2
_symmetry_space_group_name_H-M   'P 1'
_cell_length_a   21.08214018
_cell_length_b   18.93403413
_cell_length_c   20.04155074
_cell_angle_alpha   89.99968877
_cell_angle_beta   90.00202814
_cell_angle_gamma   90.00001512
_symmetry_Int_Tables_number   1
_chemical_formula_structural   Na2MnFe(PO4)2
_chemical_formula_sum   'Na96 Mn48 Fe48 P96 O384'
_cell_volume   7999.98503445
_cell_formula_units_Z   48
loop_
 _symmetry_equiv_pos_site_id
 _symmetry_equiv_pos_as_xyz
  1  'x, y, z'
loop_
 _atom_site_type_symbol
 _atom_site_label
 _atom_site_symmetry_multiplicity
 _atom_site_fract_x
 _atom_site_fract_y
 _atom_site_fract_z
 _atom_site_occupancy
  Na  Na0  1  -0.00154131  -0.00056518  -0.00070633  1
  Na  Na1  1  0.00037249  0.00082825  0.24960638  1
  Na  Na2  1  -0.00084948  0.00006801  0.50081177  1
  Na  Na3  1  -0.00080526  0.00019615  0.74961300  1
  Na  Na4  1  -0.00067558  0.33340575  0.00022336  1
  Na  Na5  1  0.00158774  0.33410397  0.24947548  1
  Na  Na6  1  0.00246774  0.33461734  0.49988721  1
  Na  Na7  1  0.00090261  0.33410992  0.75047615  1
  Na  Na8  1  -0.00069430  0.66613174  -0.00057937  1
  Na  Na9  1  -0.00058469  0.66645093  0.24879259  1
  Na  Na10  1  -0.00233668  0.66529617  0.50088244  1
  Na  Na11  1  -0.00053770  0.66632575  0.75054990  1
  Na  Na12  1  0.50161149  0.00024070  0.00020577  1
  Na  Na13  1  0.50196704  0.00061829  0.24930929  1
  Na  Na14  1  0.49936000  -0.00105714  0.49999259  1
  Na  Na15  1  0.50276053  0.00137552  0.75130644  1
  Na  Na16  1  0.49925299  0.33318150  -0.00047839  1
  Na  Na17  1  0.50205096  0.33427409  0.24900781  1
  Na  Na18  1  0.50043527  0.33319098  0.50083324  1
  Na  Na19  1  0.49855006  0.33294815  0.75082815  1
  Na  Na20  1  0.49883262  0.66583306  -0.00010536  1
  Na  Na21  1  0.50043729  0.66619669  0.25034533  1
  Na  Na22  1  0.49990933  0.66628844  0.49923277  1
  Na  Na23  1  0.49796678  0.66592343  0.75009404  1
  Na  Na24  1  0.25058638  0.00034660  0.12635559  1
  Na  Na25  1  0.24993828  0.00030807  0.37563100  1
  Na  Na26  1  0.24778674  -0.00069020  0.62361972  1
  Na  Na27  1  0.24997704  0.00001053  0.87461249  1
  Na  Na28  1  0.25062731  0.33404787  0.12496862  1
  Na  Na29  1  0.24660017  0.33253773  0.37565781  1
  Na  Na30  1  0.24893592  0.33406467  0.62557719  1
  Na  Na31  1  0.25164814  0.33411840  0.87516361  1
  Na  Na32  1  0.25165097  0.66620018  0.12471645  1
  Na  Na33  1  0.25102957  0.66601587  0.37510372  1
  Na  Na34  1  0.25115361  0.66653302  0.62421385  1
  Na  Na35  1  0.24988748  0.66557086  0.87468913  1
  Na  Na36  1  0.74621982  -0.00138403  0.12356293  1
  Na  Na37  1  0.74980640  0.00036236  0.37572449  1
  Na  Na38  1  0.75163805  0.00068180  0.62630604  1
  Na  Na39  1  0.74991018  0.00058457  0.87462606  1
  Na  Na40  1  0.74788578  0.33293205  0.12512381  1
  Na  Na41  1  0.74861038  0.33316321  0.37446810  1
  Na  Na42  1  0.75033855  0.33333909  0.62463351  1
  Na  Na43  1  0.75054516  0.33400847  0.87570957  1
  Na  Na44  1  0.75115793  0.66689536  0.12561253  1
  Na  Na45  1  0.75002804  0.66592095  0.37469557  1
  Na  Na46  1  0.75240890  0.66691106  0.62547436  1
  Na  Na47  1  0.75151966  0.66648009  0.87420740  1
  Na  Na48  1  -0.00151779  0.16697746  -0.00013880  1
  Na  Na49  1  0.00078798  0.16674167  0.25061310  1
  Na  Na50  1  0.00123205  0.16624783  0.50025117  1
  Na  Na51  1  0.00066421  0.16627152  0.74987518  1
  Na  Na52  1  0.00057361  0.50007152  -0.00016571  1
  Na  Na53  1  0.00040817  0.50051306  0.24815557  1
  Na  Na54  1  0.00080966  0.50039579  0.50041800  1
  Na  Na55  1  0.00119585  0.49981275  0.75137419  1
  Na  Na56  1  -0.00087942  0.83296193  -0.00050727  1
  Na  Na57  1  -0.00084185  0.83294683  0.24896501  1
  Na  Na58  1  -0.00294200  0.83376487  0.50099071  1
  Na  Na59  1  -0.00315269  0.83411680  0.74924411  1
  Na  Na60  1  0.50253447  0.16646497  0.00042844  1
  Na  Na61  1  0.50255152  0.16618988  0.24903878  1
  Na  Na62  1  0.50137713  0.16616291  0.50071172  1
  Na  Na63  1  0.50050693  0.16732717  0.75071934  1
  Na  Na64  1  0.49769327  0.50039076  -0.00056384  1
  Na  Na65  1  0.50054711  0.50020957  0.25004237  1
  Na  Na66  1  0.49917181  0.50075237  0.49988366  1
  Na  Na67  1  0.49716431  0.50103791  0.75020197  1
  Na  Na68  1  0.50132950  0.83220918  0.00000494  1
  Na  Na69  1  0.49990399  0.83349654  0.24935009  1
  Na  Na70  1  0.50126248  0.83233839  0.49992755  1
  Na  Na71  1  0.49944441  0.83389876  0.75065513  1
  Na  Na72  1  0.25083406  0.16668270  0.12524657  1
  Na  Na73  1  0.24677525  0.16709907  0.37527644  1
  Na  Na74  1  0.24664789  0.16722973  0.62490650  1
  Na  Na75  1  0.25180477  0.16597096  0.87457310  1
  Na  Na76  1  0.24948606  0.50072787  0.12566545  1
  Na  Na77  1  0.25018081  0.50009517  0.37558718  1
  Na  Na78  1  0.25037207  0.50012341  0.62473634  1
  Na  Na79  1  0.25062871  0.50017062  0.87421174  1
  Na  Na80  1  0.25192130  0.83286052  0.12539631  1
  Na  Na81  1  0.25173389  0.83266683  0.37527442  1
  Na  Na82  1  0.24996759  0.83338148  0.62382761  1
  Na  Na83  1  0.24994182  0.83325950  0.87542275  1
  Na  Na84  1  0.74799201  0.16739097  0.12479260  1
  Na  Na85  1  0.74965641  0.16671745  0.37504611  1
  Na  Na86  1  0.75038863  0.16614499  0.62545061  1
  Na  Na87  1  0.74772182  0.16767062  0.87585231  1
  Na  Na88  1  0.75115611  0.49986407  0.12486607  1
  Na  Na89  1  0.74925415  0.50125052  0.37462883  1
  Na  Na90  1  0.75117735  0.50014196  0.62456440  1
  Na  Na91  1  0.75210254  0.49928997  0.87526941  1
  Na  Na92  1  0.74750232  0.83318484  0.12450819  1
  Na  Na93  1  0.74860859  0.83340623  0.37539935  1
  Na  Na94  1  0.75345969  0.83160462  0.62595526  1
  Na  Na95  1  0.75073343  0.83314695  0.87388684  1
  Mn  Mn96  1  0.14264924  0.24976300  0.74819761  1
  Mn  Mn97  1  0.60737363  0.41724950  0.87248289  1
  Mn  Mn98  1  0.64308482  0.91591869  0.49855603  1
  Mn  Mn99  1  0.60854161  0.08267022  0.37319270  1
  Mn  Mn100  1  0.89172801  0.24987670  0.87724128  1
  Mn  Mn101  1  0.35715288  0.41572982  0.50196901  1
  Mn  Mn102  1  0.64241753  0.25050776  0.49789161  1
  Mn  Mn103  1  0.39322670  0.25032615  0.12760849  1
  Mn  Mn104  1  0.64244687  0.58338705  0.99761953  1
  Mn  Mn105  1  0.14112840  0.91638667  0.49703663  1
  Mn  Mn106  1  0.14180785  0.58358757  0.49759318  1
  Mn  Mn107  1  0.89269032  0.25059259  0.62758646  1
  Mn  Mn108  1  0.10683357  0.74992703  0.62308718  1
  Mn  Mn109  1  0.64345961  0.91673189  0.74764294  1
  Mn  Mn110  1  0.60796597  0.41703773  0.37287140  1
  Mn  Mn111  1  0.89113043  0.91641308  0.37705620  1
  Mn  Mn112  1  0.14250889  0.91593861  0.24798956  1
  Mn  Mn113  1  0.89280259  0.25066613  0.37686867  1
  Mn  Mn114  1  0.39324674  0.91642139  0.12717788  1
  Mn  Mn115  1  0.35764415  0.41645258  0.25258084  1
  Mn  Mn116  1  0.39213518  0.91668856  0.62780256  1
  Mn  Mn117  1  0.10717552  0.74980469  0.37238508  1
  Mn  Mn118  1  0.35813198  0.08336293  0.25282183  1
  Mn  Mn119  1  0.60752284  0.74921072  0.12229297  1
  Mn  Mn120  1  0.10768153  0.75023918  0.87226674  1
  Mn  Mn121  1  0.35880045  0.75014215  0.50203990  1
  Mn  Mn122  1  0.89302887  0.58339178  0.87741539  1
  Mn  Mn123  1  0.10790461  0.08312196  0.87307210  1
  Mn  Mn124  1  0.85622738  0.08354883  0.00256662  1
  Mn  Mn125  1  0.35765866  0.08285186  0.75166527  1
  Mn  Mn126  1  0.39175793  0.24967369  0.62722662  1
  Mn  Mn127  1  0.89059916  0.91709419  0.12727729  1
  Mn  Mn128  1  0.85700656  0.75033752  0.25232927  1
  Mn  Mn129  1  0.10803964  0.75039945  0.12290416  1
  Mn  Mn130  1  0.14270928  0.25028366  0.99774960  1
  Mn  Mn131  1  0.39188884  0.24972381  0.37717560  1
  Mn  Mn132  1  0.85870748  0.41681263  0.50208187  1
  Mn  Mn133  1  0.60771904  0.41709361  0.62359129  1
  Mn  Mn134  1  0.64245419  0.58252798  0.74783173  1
  Mn  Mn135  1  0.85716365  0.41652697  0.25223032  1
  Mn  Mn136  1  0.39254502  0.91724218  0.87716244  1
  Mn  Mn137  1  0.14228760  0.91668545  0.99772293  1
  Mn  Mn138  1  0.85656148  0.08312848  0.25167671  1
  Mn  Mn139  1  0.10777118  0.08311738  0.12221697  1
  Mn  Mn140  1  0.35710494  0.08393476  0.50219660  1
  Mn  Mn141  1  0.35812480  0.75015412  0.00205156  1
  Mn  Mn142  1  0.10764347  0.41669212  0.12219871  1
  Mn  Mn143  1  0.60813095  0.74986645  0.62336973  1
  Fe  Fe144  1  0.39353167  0.91662943  0.37619218  1
  Fe  Fe145  1  0.60743582  0.74941008  0.87307297  1
  Fe  Fe146  1  0.64249138  0.58300499  0.24766878  1
  Fe  Fe147  1  0.35804728  0.74972502  0.25205432  1
  Fe  Fe148  1  0.39318552  0.24989194  0.87709470  1
  Fe  Fe149  1  0.89254835  0.91677780  0.62716458  1
  Fe  Fe150  1  0.14143631  0.25004913  0.49823044  1
  Fe  Fe151  1  0.89302837  0.58294668  0.12652463  1
  Fe  Fe152  1  0.89178548  0.25023228  0.12704508  1
  Fe  Fe153  1  0.60723347  0.41724034  0.12255472  1
  Fe  Fe154  1  0.10761123  0.41676655  0.62419095  1
  Fe  Fe155  1  0.85705311  0.74998910  0.50133923  1
  Fe  Fe156  1  0.60761405  0.74971910  0.37361541  1
  Fe  Fe157  1  0.85818698  0.08323449  0.50210914  1
  Fe  Fe158  1  0.10628071  0.08341268  0.62344276  1
  Fe  Fe159  1  0.60719640  0.08333933  0.87312331  1
  Fe  Fe160  1  0.14182875  0.91565939  0.74846166  1
  Fe  Fe161  1  0.64269130  0.25066001  0.74880356  1
  Fe  Fe162  1  0.60822877  0.08322954  0.62360702  1
  Fe  Fe163  1  0.10648261  0.08310416  0.37308217  1
  Fe  Fe164  1  0.89274500  0.58263274  0.62707718  1
  Fe  Fe165  1  0.89243407  0.91694134  0.87677422  1
  Fe  Fe166  1  0.14211302  0.25021912  0.24764054  1
  Fe  Fe167  1  0.85716618  0.08421090  0.75228290  1
  Fe  Fe168  1  0.64217039  0.25034156  0.24791328  1
  Fe  Fe169  1  0.85756689  0.41690859  0.00204461  1
  Fe  Fe170  1  0.64306462  0.58354263  0.49860613  1
  Fe  Fe171  1  0.85668895  0.74972365  0.00138107  1
  Fe  Fe172  1  0.89250179  0.58304639  0.37613889  1
  Fe  Fe173  1  0.14303174  0.58369371  0.24835412  1
  Fe  Fe174  1  0.35715846  0.41630628  0.00178865  1
  Fe  Fe175  1  0.14369000  0.58402612  0.74815124  1
  Fe  Fe176  1  0.39242996  0.58289759  0.12719125  1
  Fe  Fe177  1  0.85831700  0.41598825  0.75173218  1
  Fe  Fe178  1  0.64258908  0.91597481  0.99706007  1
  Fe  Fe179  1  0.14342519  0.58326371  0.99860749  1
  Fe  Fe180  1  0.10730736  0.41743720  0.37273446  1
  Fe  Fe181  1  0.85778442  0.74958373  0.75259821  1
  Fe  Fe182  1  0.39194932  0.58337105  0.87667453  1
  Fe  Fe183  1  0.10788017  0.41644905  0.87351555  1
  Fe  Fe184  1  0.35683863  0.41697132  0.75167806  1
  Fe  Fe185  1  0.39344249  0.58352181  0.37641796  1
  Fe  Fe186  1  0.35709912  0.75023472  0.75145735  1
  Fe  Fe187  1  0.64148348  0.91640285  0.24828910  1
  Fe  Fe188  1  0.64283176  0.25067270  0.99795213  1
  Fe  Fe189  1  0.60774094  0.08397034  0.12279921  1
  Fe  Fe190  1  0.35856751  0.08377565  0.00162245  1
  Fe  Fe191  1  0.39248896  0.58331692  0.62648469  1
  P  P192  1  0.05284912  0.24998544  0.11053391  1
  P  P193  1  0.05506570  0.25025604  0.36052128  1
  P  P194  1  0.05413124  0.25045306  0.61013101  1
  P  P195  1  0.05334994  0.25076646  0.86028486  1
  P  P196  1  0.05426592  0.58372351  0.10997353  1
  P  P197  1  0.05248235  0.58309951  0.35900452  1
  P  P198  1  0.05359686  0.58287146  0.61187119  1
  P  P199  1  0.05611518  0.58255424  0.86085922  1
  P  P200  1  0.05246114  0.91656253  0.10942425  1
  P  P201  1  0.05207250  0.91694842  0.35967067  1
  P  P202  1  0.05290810  0.91681239  0.61142563  1
  P  P203  1  0.05223870  0.91648201  0.85901465  1
  P  P204  1  0.55582966  0.25088400  0.11017774  1
  P  P205  1  0.55384651  0.24996252  0.35921762  1
  P  P206  1  0.55482642  0.24965267  0.61168993  1
  P  P207  1  0.55427346  0.24992140  0.86093537  1
  P  P208  1  0.55297276  0.58237477  0.11057962  1
  P  P209  1  0.55450053  0.58414681  0.36064594  1
  P  P210  1  0.55264356  0.58339448  0.60960958  1
  P  P211  1  0.55193128  0.58384206  0.85998363  1
  P  P212  1  0.55568309  0.91695843  0.10999013  1
  P  P213  1  0.55332967  0.91553726  0.35980009  1
  P  P214  1  0.55379905  0.91720670  0.61041426  1
  P  P215  1  0.55524620  0.91621169  0.86125180  1
  P  P216  1  0.44744856  0.08361052  0.13885893  1
  P  P217  1  0.44719280  0.08271166  0.39013435  1
  P  P218  1  0.44837929  0.08327321  0.64043102  1
  P  P219  1  0.44756988  0.08418101  0.89048533  1
  P  P220  1  0.44658968  0.41738216  0.13882238  1
  P  P221  1  0.44681202  0.41707133  0.39000681  1
  P  P222  1  0.44562773  0.41720542  0.64062418  1
  P  P223  1  0.44424769  0.41671415  0.88909466  1
  P  P224  1  0.44595554  0.74877326  0.14055029  1
  P  P225  1  0.44699036  0.75002971  0.38837456  1
  P  P226  1  0.44627554  0.74924305  0.64079732  1
  P  P227  1  0.44653635  0.74960211  0.88866959  1
  P  P228  1  0.94586678  0.08446183  0.13998695  1
  P  P229  1  0.94674859  0.08364692  0.39037353  1
  P  P230  1  0.94563304  0.08321836  0.63964696  1
  P  P231  1  0.94504769  0.08286611  0.88901497  1
  P  P232  1  0.94491028  0.41663117  0.13857343  1
  P  P233  1  0.94815737  0.41772347  0.38931158  1
  P  P234  1  0.94777461  0.41751316  0.64079762  1
  P  P235  1  0.94635403  0.41662077  0.88989675  1
  P  P236  1  0.94481656  0.74917383  0.13840931  1
  P  P237  1  0.94564971  0.74878900  0.39043896  1
  P  P238  1  0.94406880  0.74927162  0.63942059  1
  P  P239  1  0.94481400  0.75073792  0.88947913  1
  P  P240  1  0.19520014  0.08382135  0.23616915  1
  P  P241  1  0.19361090  0.08392929  0.48558670  1
  P  P242  1  0.19560935  0.08198895  0.73426931  1
  P  P243  1  0.19867664  0.08365241  0.98495724  1
  P  P244  1  0.19498533  0.41728225  0.23624697  1
  P  P245  1  0.19408646  0.41635038  0.48581376  1
  P  P246  1  0.19616609  0.41773422  0.73609454  1
  P  P247  1  0.19741314  0.41755358  0.98459873  1
  P  P248  1  0.19833782  0.74882041  0.23521135  1
  P  P249  1  0.19660320  0.74968327  0.48456643  1
  P  P250  1  0.19767217  0.74983631  0.73481927  1
  P  P251  1  0.19693003  0.74901795  0.98497763  1
  P  P252  1  0.69533205  0.08315295  0.23429294  1
  P  P253  1  0.69752199  0.08297670  0.48672075  1
  P  P254  1  0.69606383  0.08444451  0.73619500  1
  P  P255  1  0.69406251  0.08356408  0.98539752  1
  P  P256  1  0.69541140  0.41738062  0.23425354  1
  P  P257  1  0.69712052  0.41798304  0.48516277  1
  P  P258  1  0.69839378  0.41608722  0.73522417  1
  P  P259  1  0.69674746  0.41670219  0.98606930  1
  P  P260  1  0.69462750  0.74948839  0.23631839  1
  P  P261  1  0.69731627  0.74880328  0.48509142  1
  P  P262  1  0.69736770  0.74942690  0.73627396  1
  P  P263  1  0.69696580  0.74962807  0.98386235  1
  P  P264  1  0.30529996  0.25000158  0.01395471  1
  P  P265  1  0.30167816  0.25032521  0.26535383  1
  P  P266  1  0.30097761  0.24987895  0.51528585  1
  P  P267  1  0.30416105  0.25053222  0.76555321  1
  P  P268  1  0.30451396  0.58213754  0.01438150  1
  P  P269  1  0.30435838  0.58366507  0.26470107  1
  P  P270  1  0.30533240  0.58305362  0.51429536  1
  P  P271  1  0.30440732  0.58369543  0.76376843  1
  P  P272  1  0.30382198  0.91791038  0.01528891  1
  P  P273  1  0.30457727  0.91587659  0.26583586  1
  P  P274  1  0.30446462  0.91693710  0.51374750  1
  P  P275  1  0.30180019  0.91586466  0.76474154  1
  P  P276  1  0.80254844  0.25087323  0.01565915  1
  P  P277  1  0.80250018  0.25005890  0.26384757  1
  P  P278  1  0.80390176  0.24955606  0.51496532  1
  P  P279  1  0.80234475  0.25014438  0.76508235  1
  P  P280  1  0.80428473  0.58352986  0.01534091  1
  P  P281  1  0.80369158  0.58316248  0.26424692  1
  P  P282  1  0.80449850  0.58407500  0.51420275  1
  P  P283  1  0.80532039  0.58231693  0.76389751  1
  P  P284  1  0.80248939  0.91565043  0.01325489  1
  P  P285  1  0.80049003  0.91678944  0.26488442  1
  P  P286  1  0.80437838  0.91641253  0.51591518  1
  P  P287  1  0.80600098  0.91720273  0.76441113  1
  O  O288  1  0.05803676  0.25011546  0.18721506  1
  O  O289  1  0.05812991  0.25027161  0.43736263  1
  O  O290  1  0.05691351  0.25031849  0.68693813  1
  O  O291  1  0.05633956  0.25017770  0.93707146  1
  O  O292  1  0.05921010  0.58396165  0.18663798  1
  O  O293  1  0.05594119  0.58385520  0.43577799  1
  O  O294  1  0.05880410  0.58378340  0.68850749  1
  O  O295  1  0.06002849  0.58331510  0.93759288  1
  O  O296  1  0.05656135  0.91642591  0.18616754  1
  O  O297  1  0.05474467  0.91617486  0.43650499  1
  O  O298  1  0.05787539  0.91591244  0.68806113  1
  O  O299  1  0.05644792  0.91625272  0.93573141  1
  O  O300  1  0.55951414  0.25075864  0.18700523  1
  O  O301  1  0.55683982  0.25010760  0.43608894  1
  O  O302  1  0.55894521  0.25059079  0.68847152  1
  O  O303  1  0.55905748  0.25106187  0.93763881  1
  O  O304  1  0.55793816  0.58283869  0.18722135  1
  O  O305  1  0.55915333  0.58360125  0.43732203  1
  O  O306  1  0.55660669  0.58325304  0.68634923  1
  O  O307  1  0.55609159  0.58320572  0.93664609  1
  O  O308  1  0.55903547  0.91630020  0.18684831  1
  O  O309  1  0.55706901  0.91588752  0.43653247  1
  O  O310  1  0.55732453  0.91679617  0.68720523  1
  O  O311  1  0.55886588  0.91560918  0.93808674  1
  O  O312  1  0.44254211  0.08373880  0.06221839  1
  O  O313  1  0.44431711  0.08366400  0.31328732  1
  O  O314  1  0.44384319  0.08329932  0.56377024  1
  O  O315  1  0.44356449  0.08353995  0.81380103  1
  O  O316  1  0.44161753  0.41672430  0.06217830  1
  O  O317  1  0.44396991  0.41644346  0.31318777  1
  O  O318  1  0.44293198  0.41617154  0.56382262  1
  O  O319  1  0.44021042  0.41680241  0.81232382  1
  O  O320  1  0.44306149  0.74943295  0.06370105  1
  O  O321  1  0.44261468  0.74982634  0.31170431  1
  O  O322  1  0.44383651  0.75008721  0.56395028  1
  O  O323  1  0.44142812  0.75042654  0.81205316  1
  O  O324  1  0.94224959  0.08370319  0.06318092  1
  O  O325  1  0.94252914  0.08369277  0.31367154  1
  O  O326  1  0.94130412  0.08378555  0.56290344  1
  O  O327  1  0.94106922  0.08408188  0.81223365  1
  O  O328  1  0.94097232  0.41650678  0.06177544  1
  O  O329  1  0.94408289  0.41698569  0.31263188  1
  O  O330  1  0.94418473  0.41711684  0.56406749  1
  O  O331  1  0.94161936  0.41633330  0.81318812  1
  O  O332  1  0.94065476  0.74991193  0.06166305  1
  O  O333  1  0.94284931  0.74979750  0.31358036  1
  O  O334  1  0.94051592  0.74925213  0.56262831  1
  O  O335  1  0.94082593  0.74971503  0.81262894  1
  O  O336  1  0.19462581  0.08369829  0.06167875  1
  O  O337  1  0.19063594  0.08300293  0.31290052  1
  O  O338  1  0.18923672  0.08284690  0.56237664  1
  O  O339  1  0.19309684  0.08279485  0.81111086  1
  O  O340  1  0.19364050  0.41695059  0.06138162  1
  O  O341  1  0.19111907  0.41749089  0.31303359  1
  O  O342  1  0.19043697  0.41750789  0.56265508  1
  O  O343  1  0.19190774  0.41685797  0.81276018  1
  O  O344  1  0.19406921  0.74956783  0.06175582  1
  O  O345  1  0.19425592  0.74932769  0.31186749  1
  O  O346  1  0.19255584  0.74964864  0.56130542  1
  O  O347  1  0.19415296  0.74987678  0.81151468  1
  O  O348  1  0.69058116  0.08344966  0.06221291  1
  O  O349  1  0.69354453  0.08327619  0.31120431  1
  O  O350  1  0.69267833  0.08289125  0.56339089  1
  O  O351  1  0.69111598  0.08373483  0.81290357  1
  O  O352  1  0.69163782  0.41763104  0.06264993  1
  O  O353  1  0.69289468  0.41753846  0.31107923  1
  O  O354  1  0.69397265  0.41738220  0.56189460  1
  O  O355  1  0.69426189  0.41703376  0.81193858  1
  O  O356  1  0.69310664  0.74873890  0.06061763  1
  O  O357  1  0.69102130  0.74946206  0.31309896  1
  O  O358  1  0.69423585  0.74928148  0.56185028  1
  O  O359  1  0.69168955  0.74918246  0.81285666  1
  O  O360  1  0.30665256  0.25050216  0.18865737  1
  O  O361  1  0.30512989  0.24969582  0.43861807  1
  O  O362  1  0.30635911  0.24986523  0.68871263  1
  O  O363  1  0.30920338  0.24963365  0.93720313  1
  O  O364  1  0.30877408  0.58285960  0.18792601  1
  O  O365  1  0.31005503  0.58319176  0.43755040  1
  O  O366  1  0.30850817  0.58351517  0.68705167  1
  O  O367  1  0.30882863  0.58306615  0.93761010  1
  O  O368  1  0.30777789  0.91682981  0.18902155  1
  O  O369  1  0.30967155  0.91684004  0.43708526  1
  O  O370  1  0.30550664  0.91665678  0.68801479  1
  O  O371  1  0.30676095  0.91730089  0.93846062  1
  O  O372  1  0.80738314  0.25028140  0.18721050  1
  O  O373  1  0.80692373  0.25011195  0.43814328  1
  O  O374  1  0.80611715  0.24994569  0.68841518  1
  O  O375  1  0.80636936  0.25033346  0.93893703  1
  O  O376  1  0.80887764  0.58314407  0.18765938  1
  O  O377  1  0.80873800  0.58285914  0.43746559  1
  O  O378  1  0.80898463  0.58228691  0.68714717  1
  O  O379  1  0.80730187  0.58310387  0.93846796  1
  O  O380  1  0.80414375  0.91656013  0.18813967  1
  O  O381  1  0.80619111  0.91680106  0.43903265  1
  O  O382  1  0.80972376  0.91708828  0.68757429  1
  O  O383  1  0.80751053  0.91659349  0.93663966  1
  O  O384  1  0.23540728  0.25057323  0.03872912  1
  O  O385  1  0.23144475  0.25027023  0.28899755  1
  O  O386  1  0.23092548  0.25038945  0.53965348  1
  O  O387  1  0.23448297  0.24991371  0.79095533  1
  O  O388  1  0.23416896  0.58295285  0.03823284  1
  O  O389  1  0.23402640  0.58302416  0.28857677  1
  O  O390  1  0.23509209  0.58329758  0.53777409  1
  O  O391  1  0.23407302  0.58335549  0.78781542  1
  O  O392  1  0.23428732  0.91701406  0.04088375  1
  O  O393  1  0.23477138  0.91632017  0.29074631  1
  O  O394  1  0.23416687  0.91673444  0.53701460  1
  O  O395  1  0.23182012  0.91615259  0.78956537  1
  O  O396  1  0.73223030  0.25016544  0.03944353  1
  O  O397  1  0.73209697  0.25028642  0.28739299  1
  O  O398  1  0.73427970  0.24982606  0.54023655  1
  O  O399  1  0.73243543  0.25048335  0.79013901  1
  O  O400  1  0.73451158  0.58348552  0.04030366  1
  O  O401  1  0.73317357  0.58323073  0.28735436  1
  O  O402  1  0.73426795  0.58369497  0.53849504  1
  O  O403  1  0.73546048  0.58274035  0.78878285  1
  O  O404  1  0.73201567  0.91589141  0.03669848  1
  O  O405  1  0.73058671  0.91681354  0.28975296  1
  O  O406  1  0.73496909  0.91597472  0.54211743  1
  O  O407  1  0.73587626  0.91713926  0.78846598  1
  O  O408  1  0.26536559  0.08343841  0.21225342  1
  O  O409  1  0.26374587  0.08352121  0.46163763  1
  O  O410  1  0.26526758  0.08306305  0.70879317  1
  O  O411  1  0.26867989  0.08349873  0.96036797  1
  O  O412  1  0.26490036  0.41731129  0.21162127  1
  O  O413  1  0.26408617  0.41654516  0.46138242  1
  O  O414  1  0.26654518  0.41737679  0.71222337  1
  O  O415  1  0.26752575  0.41699623  0.96034554  1
  O  O416  1  0.26840327  0.74934604  0.21072272  1
  O  O417  1  0.26653588  0.74941095  0.46037309  1
  O  O418  1  0.26758863  0.74976207  0.70976619  1
  O  O419  1  0.26660209  0.74935126  0.95971055  1
  O  O420  1  0.76469449  0.08292130  0.20799854  1
  O  O421  1  0.76778187  0.08314538  0.46276442  1
  O  O422  1  0.76661555  0.08352438  0.71299133  1
  O  O423  1  0.76409989  0.08392860  0.96104742  1
  O  O424  1  0.76511562  0.41690738  0.20913109  1
  O  O425  1  0.76669731  0.41749892  0.45963677  1
  O  O426  1  0.76839847  0.41629256  0.71056830  1
  O  O427  1  0.76723834  0.41694609  0.96267023  1
  O  O428  1  0.76445095  0.74954992  0.21146384  1
  O  O429  1  0.76725560  0.74972629  0.46014241  1
  O  O430  1  0.76797458  0.74951288  0.71353064  1
  O  O431  1  0.76713435  0.74939062  0.95969428  1
  O  O432  1  0.01557186  0.08405724  0.16484975  1
  O  O433  1  0.01693850  0.08333582  0.41443403  1
  O  O434  1  0.01611525  0.08362742  0.66320676  1
  O  O435  1  0.01497189  0.08299909  0.91356211  1
  O  O436  1  0.01494525  0.41705124  0.16271709  1
  O  O437  1  0.01819321  0.41748651  0.41382284  1
  O  O438  1  0.01788321  0.41687830  0.66526051  1
  O  O439  1  0.01674076  0.41682186  0.91347321  1
  O  O440  1  0.01478841  0.74966576  0.16283423  1
  O  O441  1  0.01513712  0.74953773  0.41616943  1
  O  O442  1  0.01405362  0.74972252  0.66412085  1
  O  O443  1  0.01489277  0.74967440  0.91339009  1
  O  O444  1  0.51793022  0.08395428  0.16209939  1
  O  O445  1  0.51685780  0.08266213  0.41544748  1
  O  O446  1  0.51845582  0.08380556  0.66481482  1
  O  O447  1  0.51785226  0.08340899  0.91444631  1
  O  O448  1  0.51690208  0.41703774  0.16249005  1
  O  O449  1  0.51636605  0.41703302  0.41552237  1
  O  O450  1  0.51527150  0.41703897  0.66614313  1
  O  O451  1  0.51439352  0.41675187  0.91320542  1
  O  O452  1  0.51576066  0.74935037  0.16521508  1
  O  O453  1  0.51718195  0.74942667  0.41282716  1
  O  O454  1  0.51591960  0.74978250  0.66619380  1
  O  O455  1  0.51682670  0.74922073  0.91268348  1
  O  O456  1  0.48578277  0.25037791  0.08597066  1
  O  O457  1  0.48426145  0.25003383  0.33375280  1
  O  O458  1  0.48485946  0.24983135  0.58718660  1
  O  O459  1  0.48375513  0.25035503  0.83764823  1
  O  O460  1  0.48265200  0.58303441  0.08685616  1
  O  O461  1  0.48403717  0.58355064  0.33699482  1
  O  O462  1  0.48246312  0.58339221  0.58549473  1
  O  O463  1  0.48170498  0.58335603  0.83601313  1
  O  O464  1  0.48569472  0.91586664  0.08555351  1
  O  O465  1  0.48337079  0.91669303  0.33493904  1
  O  O466  1  0.48413773  0.91610234  0.58537022  1
  O  O467  1  0.48533030  0.91732369  0.83658460  1
  O  O468  1  0.98253097  0.25040456  0.08693992  1
  O  O469  1  0.98515820  0.25056830  0.33553926  1
  O  O470  1  0.98447107  0.25065806  0.58472411  1
  O  O471  1  0.98376195  0.25046653  0.83487829  1
  O  O472  1  0.98382682  0.58295195  0.08655587  1
  O  O473  1  0.98245100  0.58336213  0.33423768  1
  O  O474  1  0.98319964  0.58284896  0.58828442  1
  O  O475  1  0.98589201  0.58329236  0.83704575  1
  O  O476  1  0.98257578  0.91637417  0.08498178  1
  O  O477  1  0.98247523  0.91680733  0.33406640  1
  O  O478  1  0.98239973  0.91662948  0.58804352  1
  O  O479  1  0.98205203  0.91684476  0.83506040  1
  O  O480  1  0.08648279  0.31496138  0.07728146  1
  O  O481  1  0.08908187  0.31527385  0.32775168  1
  O  O482  1  0.08846942  0.31556807  0.57803398  1
  O  O483  1  0.08748377  0.31604356  0.82831787  1
  O  O484  1  0.08736667  0.64875381  0.07641406  1
  O  O485  1  0.08661691  0.64798497  0.32596309  1
  O  O486  1  0.08654957  0.64780343  0.57779832  1
  O  O487  1  0.08992683  0.64723575  0.82713962  1
  O  O488  1  0.08612054  0.98175337  0.07663838  1
  O  O489  1  0.08636068  0.98212635  0.32785948  1
  O  O490  1  0.08590092  0.98203953  0.57831740  1
  O  O491  1  0.08639731  0.98133797  0.82632097  1
  O  O492  1  0.58909360  0.31619037  0.07705586  1
  O  O493  1  0.58834972  0.31490563  0.32688134  1
  O  O494  1  0.58836604  0.31472661  0.57844026  1
  O  O495  1  0.58777339  0.31468159  0.82705904  1
  O  O496  1  0.58644414  0.64736378  0.07712807  1
  O  O497  1  0.58766886  0.64921895  0.32728758  1
  O  O498  1  0.58652196  0.64844851  0.57682531  1
  O  O499  1  0.58560081  0.64883500  0.82711346  1
  O  O500  1  0.58896163  0.98231118  0.07741680  1
  O  O501  1  0.58788833  0.98031057  0.32713266  1
  O  O502  1  0.58744211  0.98254406  0.57805636  1
  O  O503  1  0.58947241  0.98133783  0.82902266  1
  O  O504  1  0.41459185  0.01839545  0.17222487  1
  O  O505  1  0.41303120  0.01747258  0.42196438  1
  O  O506  1  0.41504447  0.01802637  0.67352099  1
  O  O507  1  0.41351440  0.01936061  0.92359882  1
  O  O508  1  0.41323340  0.35246180  0.17256316  1
  O  O509  1  0.41265197  0.35200217  0.42252482  1
  O  O510  1  0.41101737  0.35249147  0.67332052  1
  O  O511  1  0.41078340  0.35157845  0.92225509  1
  O  O512  1  0.41201524  0.68360212  0.17285291  1
  O  O513  1  0.41320726  0.68509541  0.42148785  1
  O  O514  1  0.41212414  0.68388048  0.67254421  1
  O  O515  1  0.41283307  0.68455636  0.92159401  1
  O  O516  1  0.91175212  0.01931115  0.17254344  1
  O  O517  1  0.91269286  0.01871120  0.42322363  1
  O  O518  1  0.91231198  0.01817493  0.67271702  1
  O  O519  1  0.91137076  0.01754041  0.92148690  1
  O  O520  1  0.91163115  0.35146842  0.17182777  1
  O  O521  1  0.91443424  0.35278205  0.42248397  1
  O  O522  1  0.91361562  0.35255703  0.67367325  1
  O  O523  1  0.91262395  0.35181241  0.92324666  1
  O  O524  1  0.91159610  0.68371682  0.17113833  1
  O  O525  1  0.91172573  0.68326051  0.42219341  1
  O  O526  1  0.91067939  0.68401580  0.67245373  1
  O  O527  1  0.91068091  0.68602535  0.92272905  1
  O  O528  1  0.16174155  0.01875540  0.20281908  1
  O  O529  1  0.15973603  0.01924523  0.45192447  1
  O  O530  1  0.16166147  0.01667818  0.70221962  1
  O  O531  1  0.16451468  0.01868153  0.95236333  1
  O  O532  1  0.16134815  0.35213195  0.20325958  1
  O  O533  1  0.16033578  0.35112860  0.45344515  1
  O  O534  1  0.16248782  0.35284798  0.70266383  1
  O  O535  1  0.16325495  0.35270728  0.95163250  1
  O  O536  1  0.16474195  0.68355832  0.20253994  1
  O  O537  1  0.16273909  0.68464490  0.45186982  1
  O  O538  1  0.16376337  0.68464153  0.70222875  1
  O  O539  1  0.16307805  0.68379345  0.95278478  1
  O  O540  1  0.66052219  0.01818181  0.20247344  1
  O  O541  1  0.66429477  0.01778736  0.45349326  1
  O  O542  1  0.66251954  0.01964739  0.70239769  1
  O  O543  1  0.66065862  0.01843909  0.95227178  1
  O  O544  1  0.66085246  0.35250092  0.20204943  1
  O  O545  1  0.66269710  0.35306253  0.45270210  1
  O  O546  1  0.66448388  0.35094875  0.70290562  1
  O  O547  1  0.66364226  0.35147096  0.95292375  1
  O  O548  1  0.66108357  0.68426862  0.20324874  1
  O  O549  1  0.66353634  0.68360496  0.45255031  1
  O  O550  1  0.66447498  0.68447570  0.70243219  1
  O  O551  1  0.66307636  0.68465550  0.95073782  1
  O  O552  1  0.33902606  0.31533562  0.04662739  1
  O  O553  1  0.33501252  0.31544413  0.29849286  1
  O  O554  1  0.33506228  0.31481866  0.54791967  1
  O  O555  1  0.33813047  0.31583127  0.79750623  1
  O  O556  1  0.33856879  0.64676936  0.04780894  1
  O  O557  1  0.33774959  0.64893058  0.29760381  1
  O  O558  1  0.33910718  0.64787585  0.54762597  1
  O  O559  1  0.33759625  0.64890334  0.79713295  1
  O  O560  1  0.33779583  0.98315819  0.04744384  1
  O  O561  1  0.33905844  0.98064966  0.29859078  1
  O  O562  1  0.33749956  0.98201100  0.54740501  1
  O  O563  1  0.33597492  0.98086884  0.79746202  1
  O  O564  1  0.83605015  0.31601225  0.04845604  1
  O  O565  1  0.83589826  0.31501071  0.29737050  1
  O  O566  1  0.83804982  0.31475142  0.54733353  1
  O  O567  1  0.83655452  0.31520662  0.79750104  1
  O  O568  1  0.83828479  0.64876827  0.04750791  1
  O  O569  1  0.83706028  0.64800946  0.29790422  1
  O  O570  1  0.83782752  0.64944407  0.54685677  1
  O  O571  1  0.83938061  0.64727960  0.79669129  1
  O  O572  1  0.83543447  0.98068314  0.04717093  1
  O  O573  1  0.83446013  0.98180161  0.29742007  1
  O  O574  1  0.83886253  0.98142671  0.54813687  1
  O  O575  1  0.83936013  0.98240242  0.79740115  1
  O  O576  1  0.41410393  0.14842586  0.17258720  1
  O  O577  1  0.41314332  0.14781207  0.42280975  1
  O  O578  1  0.41422152  0.14811980  0.67319082  1
  O  O579  1  0.41428784  0.14946137  0.92335870  1
  O  O580  1  0.41333955  0.48251045  0.17205099  1
  O  O581  1  0.41261487  0.48231860  0.42176812  1
  O  O582  1  0.41144326  0.48260947  0.67241124  1
  O  O583  1  0.41059161  0.48179804  0.92211185  1
  O  O584  1  0.41159070  0.81364773  0.17312960  1
  O  O585  1  0.41401217  0.81537061  0.42157279  1
  O  O586  1  0.41151127  0.81391105  0.67349199  1
  O  O587  1  0.41361637  0.81481311  0.92232053  1
  O  O588  1  0.91207713  0.14978183  0.17228262  1
  O  O589  1  0.91328028  0.14879279  0.42340102  1
  O  O590  1  0.91221556  0.14818724  0.67324954  1
  O  O591  1  0.91128250  0.14772023  0.92230315  1
  O  O592  1  0.91137803  0.48188362  0.17136039  1
  O  O593  1  0.91449058  0.48290865  0.42190311  1
  O  O594  1  0.91399148  0.48245169  0.67365173  1
  O  O595  1  0.91288246  0.48171184  0.92311070  1
  O  O596  1  0.91082869  0.81394490  0.17178189  1
  O  O597  1  0.91055103  0.81339682  0.42287326  1
  O  O598  1  0.91004857  0.81426860  0.67219226  1
  O  O599  1  0.91154766  0.81613968  0.92209600  1
  O  O600  1  0.08608641  0.18497310  0.07706984  1
  O  O601  1  0.08861967  0.18491961  0.32786173  1
  O  O602  1  0.08815250  0.18529200  0.57773886  1
  O  O603  1  0.08763248  0.18579910  0.82786598  1
  O  O604  1  0.08805621  0.51884874  0.07662582  1
  O  O605  1  0.08658620  0.51804999  0.32657826  1
  O  O606  1  0.08687105  0.51773870  0.57880739  1
  O  O607  1  0.08924389  0.51716471  0.82805090  1
  O  O608  1  0.08648542  0.85153098  0.07680445  1
  O  O609  1  0.08627830  0.85186586  0.32718202  1
  O  O610  1  0.08597615  0.85189819  0.57750536  1
  O  O611  1  0.08573205  0.85133302  0.82583128  1
  O  O612  1  0.58983439  0.18597992  0.07728838  1
  O  O613  1  0.58838376  0.18492246  0.32717947  1
  O  O614  1  0.58851262  0.18443174  0.57904296  1
  O  O615  1  0.58739898  0.18461499  0.82798018  1
  O  O616  1  0.58602430  0.51730155  0.07701194  1
  O  O617  1  0.58802874  0.51932340  0.32693622  1
  O  O618  1  0.58659271  0.51843423  0.57679289  1
  O  O619  1  0.58561258  0.51877613  0.82690540  1
  O  O620  1  0.58993177  0.85214246  0.07694959  1
  O  O621  1  0.58676699  0.85024160  0.32712288  1
  O  O622  1  0.58826553  0.85219433  0.57806795  1
  O  O623  1  0.58838491  0.85096016  0.82806099  1
  O  O624  1  0.33879093  0.18486448  0.04706874  1
  O  O625  1  0.33528965  0.18526862  0.29832602  1
  O  O626  1  0.33457552  0.18483148  0.54834886  1
  O  O627  1  0.33892955  0.18569923  0.79789375  1
  O  O628  1  0.33747342  0.51674353  0.04750032  1
  O  O629  1  0.33823456  0.51894914  0.29820856  1
  O  O630  1  0.33855218  0.51797579  0.54766155  1
  O  O631  1  0.33798965  0.51877623  0.79718383  1
  O  O632  1  0.33843304  0.85282668  0.04732469  1
  O  O633  1  0.33850869  0.85044126  0.29782320  1
  O  O634  1  0.33780055  0.85186387  0.54706493  1
  O  O635  1  0.33578900  0.85076947  0.79721393  1
  O  O636  1  0.83646314  0.18598103  0.04872599  1
  O  O637  1  0.83563243  0.18496050  0.29712151  1
  O  O638  1  0.83796861  0.18455413  0.54737582  1
  O  O639  1  0.83593675  0.18497816  0.79799890  1
  O  O640  1  0.83858313  0.51859133  0.04784716  1
  O  O641  1  0.83692408  0.51817092  0.29795184  1
  O  O642  1  0.83855760  0.51943817  0.54786582  1
  O  O643  1  0.83886607  0.51712352  0.79679448  1
  O  O644  1  0.83542965  0.85043749  0.04652594  1
  O  O645  1  0.83448352  0.85183649  0.29759126  1
  O  O646  1  0.83908985  0.85119892  0.54742525  1
  O  O647  1  0.83962159  0.85213954  0.79738517  1
  O  O648  1  0.16202106  0.14918798  0.20316791  1
  O  O649  1  0.16029474  0.14940276  0.45309580  1
  O  O650  1  0.16061385  0.14684258  0.70215816  1
  O  O651  1  0.16486595  0.14871858  0.95219778  1
  O  O652  1  0.16142236  0.48253676  0.20339714  1
  O  O653  1  0.16035336  0.48120419  0.45226456  1
  O  O654  1  0.16285279  0.48285847  0.70284803  1
  O  O655  1  0.16372148  0.48271112  0.95207167  1
  O  O656  1  0.16429569  0.81377756  0.20229258  1
  O  O657  1  0.16287472  0.81475432  0.45180842  1
  O  O658  1  0.16356778  0.81489351  0.70225861  1
  O  O659  1  0.16262086  0.81398381  0.95244805  1
  O  O660  1  0.66095016  0.14836122  0.20228422  1
  O  O661  1  0.66390460  0.14782604  0.45338561  1
  O  O662  1  0.66324993  0.14977081  0.70305318  1
  O  O663  1  0.66029209  0.14874224  0.95272892  1
  O  O664  1  0.66144638  0.48262964  0.20173388  1
  O  O665  1  0.66316423  0.48332041  0.45307881  1
  O  O666  1  0.66448377  0.48105935  0.70222507  1
  O  O667  1  0.66354881  0.48154872  0.95208242  1
  O  O668  1  0.66096228  0.81459178  0.20352820  1
  O  O669  1  0.66264072  0.81354160  0.45245968  1
  O  O670  1  0.66465490  0.81462964  0.70266007  1
  O  O671  1  0.66303199  0.81462245  0.95121526  1
