# generated using pymatgen
data_Na2MnFe(PO4)2
_symmetry_space_group_name_H-M   'P 1'
_cell_length_a   21.08727519
_cell_length_b   18.93916827
_cell_length_c   20.04620000
_cell_angle_alpha   90.00041734
_cell_angle_beta   89.99784551
_cell_angle_gamma   89.99867608
_symmetry_Int_Tables_number   1
_chemical_formula_structural   Na2MnFe(PO4)2
_chemical_formula_sum   'Na96 Mn48 Fe48 P96 O384'
_cell_volume   8005.96019908
_cell_formula_units_Z   48
loop_
 _symmetry_equiv_pos_site_id
 _symmetry_equiv_pos_as_xyz
  1  'x, y, z'
loop_
 _atom_site_type_symbol
 _atom_site_label
 _atom_site_symmetry_multiplicity
 _atom_site_fract_x
 _atom_site_fract_y
 _atom_site_fract_z
 _atom_site_occupancy
  Na  Na0  1  -0.00157761  -0.00069412  0.00035900  1
  Na  Na1  1  -0.00006691  -0.00062122  0.24942233  1
  Na  Na2  1  0.00101802  -0.00020093  0.49975591  1
  Na  Na3  1  0.00150405  0.00046927  0.75099652  1
  Na  Na4  1  -0.00025315  0.33386950  0.00050012  1
  Na  Na5  1  0.00044750  0.33281759  0.25042748  1
  Na  Na6  1  0.00237039  0.33352894  0.49985188  1
  Na  Na7  1  0.00021360  0.33324556  0.74975265  1
  Na  Na8  1  -0.00054410  0.66674024  0.00052871  1
  Na  Na9  1  -0.00051655  0.66661719  0.24996910  1
  Na  Na10  1  0.00227911  0.66756195  0.50022315  1
  Na  Na11  1  0.00071400  0.66696954  0.74922563  1
  Na  Na12  1  0.49965080  -0.00094812  0.00049671  1
  Na  Na13  1  0.50229926  0.00048644  0.24920859  1
  Na  Na14  1  0.50236026  0.00064965  0.49983987  1
  Na  Na15  1  0.49933495  -0.00049909  0.74990012  1
  Na  Na16  1  0.50191944  0.33444146  -0.00129253  1
  Na  Na17  1  0.50145594  0.33366178  0.24960252  1
  Na  Na18  1  0.50135966  0.33368496  0.50094373  1
  Na  Na19  1  0.50023784  0.33314160  0.75059258  1
  Na  Na20  1  0.49969369  0.66727777  -0.00065988  1
  Na  Na21  1  0.49842963  0.66660040  0.25072119  1
  Na  Na22  1  0.49833184  0.66636190  0.50005910  1
  Na  Na23  1  0.50072061  0.66752602  0.75011828  1
  Na  Na24  1  0.24790058  -0.00139120  0.12431010  1
  Na  Na25  1  0.24796567  -0.00048238  0.37539233  1
  Na  Na26  1  0.24915444  -0.00057674  0.62524939  1
  Na  Na27  1  0.25149728  0.00012321  0.87480677  1
  Na  Na28  1  0.24985028  0.33303979  0.12506532  1
  Na  Na29  1  0.24874154  0.33276953  0.37487229  1
  Na  Na30  1  0.25027114  0.33301723  0.62540765  1
  Na  Na31  1  0.25303434  0.33426975  0.87474074  1
  Na  Na32  1  0.25087592  0.66730403  0.12520177  1
  Na  Na33  1  0.24749918  0.66606947  0.37495409  1
  Na  Na34  1  0.24879202  0.66689931  0.62528356  1
  Na  Na35  1  0.24883213  0.66591619  0.87441187  1
  Na  Na36  1  0.75180110  0.00012778  0.12597352  1
  Na  Na37  1  0.74944126  -0.00057444  0.37554976  1
  Na  Na38  1  0.74874044  -0.00052478  0.62346532  1
  Na  Na39  1  0.75183703  0.00048905  0.87437356  1
  Na  Na40  1  0.74776903  0.33294696  0.12478478  1
  Na  Na41  1  0.74908640  0.33393759  0.37576754  1
  Na  Na42  1  0.74667414  0.33288233  0.62477387  1
  Na  Na43  1  0.74762430  0.33302540  0.87525329  1
  Na  Na44  1  0.75105303  0.66759011  0.12384438  1
  Na  Na45  1  0.75169862  0.66788590  0.37563981  1
  Na  Na46  1  0.75019248  0.66704277  0.62551246  1
  Na  Na47  1  0.75049811  0.66743295  0.87521622  1
  Na  Na48  1  -0.00159006  0.16776427  0.00082905  1
  Na  Na49  1  -0.00007091  0.16699092  0.24933648  1
  Na  Na50  1  0.00246707  0.16637970  0.49970163  1
  Na  Na51  1  -0.00014133  0.16723634  0.74998266  1
  Na  Na52  1  -0.00137107  0.50121247  0.00015026  1
  Na  Na53  1  0.00280078  0.49914195  0.25109812  1
  Na  Na54  1  0.00203172  0.50011766  0.50025513  1
  Na  Na55  1  0.00181225  0.49951594  0.74979369  1
  Na  Na56  1  -0.00100905  0.83292428  -0.00015543  1
  Na  Na57  1  -0.00138615  0.83352174  0.24972268  1
  Na  Na58  1  0.00112422  0.83245777  0.49978516  1
  Na  Na59  1  0.00059940  0.83247850  0.75027528  1
  Na  Na60  1  0.49948204  0.16705578  -0.00133476  1
  Na  Na61  1  0.50052777  0.16693921  0.25046400  1
  Na  Na62  1  0.50117259  0.16657176  0.50068737  1
  Na  Na63  1  0.50088756  0.16655931  0.75077401  1
  Na  Na64  1  0.50028576  0.49989633  -0.00088366  1
  Na  Na65  1  0.50090862  0.49926426  0.24921242  1
  Na  Na66  1  0.50091616  0.49981616  0.50086658  1
  Na  Na67  1  0.50109393  0.49959024  0.75000631  1
  Na  Na68  1  0.50127726  0.83224975  0.00041234  1
  Na  Na69  1  0.50068210  0.83278048  0.24995699  1
  Na  Na70  1  0.50012552  0.83244256  0.49916288  1
  Na  Na71  1  0.49868632  0.83311255  0.74988309  1
  Na  Na72  1  0.25117783  0.16655829  0.12497412  1
  Na  Na73  1  0.24829225  0.16763704  0.37497269  1
  Na  Na74  1  0.25114853  0.16624752  0.62521013  1
  Na  Na75  1  0.25178463  0.16680637  0.87461452  1
  Na  Na76  1  0.25009042  0.50004021  0.12480713  1
  Na  Na77  1  0.24805065  0.50082122  0.37471472  1
  Na  Na78  1  0.24904353  0.50068551  0.62510133  1
  Na  Na79  1  0.25173101  0.49966123  0.87493025  1
  Na  Na80  1  0.24850373  0.83330414  0.12465064  1
  Na  Na81  1  0.24781082  0.83330517  0.37572222  1
  Na  Na82  1  0.24821739  0.83319179  0.62556358  1
  Na  Na83  1  0.24918832  0.83318650  0.87458891  1
  Na  Na84  1  0.75053131  0.16655975  0.12591571  1
  Na  Na85  1  0.74939449  0.16690541  0.37598405  1
  Na  Na86  1  0.74720277  0.16805271  0.62389077  1
  Na  Na87  1  0.74978782  0.16721607  0.87444569  1
  Na  Na88  1  0.74846533  0.50041788  0.12418106  1
  Na  Na89  1  0.74838848  0.50022397  0.37564129  1
  Na  Na90  1  0.74778619  0.50047074  0.62527517  1
  Na  Na91  1  0.74894368  0.50008990  0.87552769  1
  Na  Na92  1  0.75104501  0.83303833  0.12449090  1
  Na  Na93  1  0.75143419  0.83277231  0.37541044  1
  Na  Na94  1  0.75038312  0.83237538  0.62452849  1
  Na  Na95  1  0.75047245  0.83259902  0.87501742  1
  Mn  Mn96  1  0.35742082  0.08244464  0.25226372  1
  Mn  Mn97  1  0.39192150  0.91660275  0.62667916  1
  Mn  Mn98  1  0.39264965  0.58403321  0.87654068  1
  Mn  Mn99  1  0.64178067  0.58476926  0.24737242  1
  Mn  Mn100  1  0.10740463  0.08379723  0.87311810  1
  Mn  Mn101  1  0.10720072  0.74960596  0.12285137  1
  Mn  Mn102  1  0.85729136  0.41708142  0.50272591  1
  Mn  Mn103  1  0.14255237  0.58331414  0.99746552  1
  Mn  Mn104  1  0.14274452  0.91663434  0.74803977  1
  Mn  Mn105  1  0.60803935  0.74994019  0.37220641  1
  Mn  Mn106  1  0.39234355  0.24983302  0.37714372  1
  Mn  Mn107  1  0.10734869  0.08364222  0.12227676  1
  Mn  Mn108  1  0.39195696  0.91642354  0.12790825  1
  Mn  Mn109  1  0.85703700  0.41647698  0.00227058  1
  Mn  Mn110  1  0.64190160  0.91651352  0.74745852  1
  Mn  Mn111  1  0.10815858  0.41695732  0.87315328  1
  Mn  Mn112  1  0.35769444  0.41678397  0.50229073  1
  Mn  Mn113  1  0.14288774  0.25019805  0.74830035  1
  Mn  Mn114  1  0.35625157  0.75016599  0.50206913  1
  Mn  Mn115  1  0.89329043  0.91717859  0.62721236  1
  Mn  Mn116  1  0.10766272  0.08288069  0.37227699  1
  Mn  Mn117  1  0.89322762  0.58283299  0.62748498  1
  Mn  Mn118  1  0.35767572  0.41682758  0.25211220  1
  Mn  Mn119  1  0.35779675  0.08302469  0.50195724  1
  Mn  Mn120  1  0.85747451  0.41734280  0.25225287  1
  Mn  Mn121  1  0.35763136  0.74977329  0.00197300  1
  Mn  Mn122  1  0.60821262  0.08341978  0.12198566  1
  Mn  Mn123  1  0.85723489  0.41703021  0.75160132  1
  Mn  Mn124  1  0.89205375  0.58299310  0.12783945  1
  Mn  Mn125  1  0.85766423  0.08325506  0.25328760  1
  Mn  Mn126  1  0.64228066  0.91636870  0.49754970  1
  Mn  Mn127  1  0.39142663  0.58267460  0.37711479  1
  Mn  Mn128  1  0.64156277  0.58362006  0.49808100  1
  Mn  Mn129  1  0.89228753  0.91661737  0.87718078  1
  Mn  Mn130  1  0.89257742  0.25011992  0.62657789  1
  Mn  Mn131  1  0.85755913  0.08354752  0.50256879  1
  Mn  Mn132  1  0.85785831  0.08361648  0.75114135  1
  Mn  Mn133  1  0.89182082  0.25073506  0.12749062  1
  Mn  Mn134  1  0.39200291  0.91712692  0.37652477  1
  Mn  Mn135  1  0.89290947  0.58295595  0.37748505  1
  Mn  Mn136  1  0.14287378  0.24980600  0.99725622  1
  Mn  Mn137  1  0.60841171  0.08249900  0.87241892  1
  Mn  Mn138  1  0.10812229  0.41667128  0.37263082  1
  Mn  Mn139  1  0.39339210  0.24962518  0.87713981  1
  Mn  Mn140  1  0.64190653  0.58366469  0.99758585  1
  Mn  Mn141  1  0.64288898  0.91727733  0.99787158  1
  Mn  Mn142  1  0.35797555  0.08330442  0.00266997  1
  Mn  Mn143  1  0.64212342  0.24970706  0.24770207  1
  Fe  Fe144  1  0.60730875  0.74946533  0.12370954  1
  Fe  Fe145  1  0.10897590  0.08368061  0.62353935  1
  Fe  Fe146  1  0.60724756  0.41751436  0.87255165  1
  Fe  Fe147  1  0.89261057  0.91659414  0.12703729  1
  Fe  Fe148  1  0.85745010  0.74948300  0.75161840  1
  Fe  Fe149  1  0.39217770  0.58325485  0.62720342  1
  Fe  Fe150  1  0.10794715  0.41660811  0.12297721  1
  Fe  Fe151  1  0.10654138  0.75037289  0.37261092  1
  Fe  Fe152  1  0.64370659  0.91597901  0.24841517  1
  Fe  Fe153  1  0.85754277  0.08344512  0.00129255  1
  Fe  Fe154  1  0.14174862  0.91681239  0.49797774  1
  Fe  Fe155  1  0.14194487  0.91654200  0.99790049  1
  Fe  Fe156  1  0.39321787  0.25025525  0.62656203  1
  Fe  Fe157  1  0.60674958  0.41714662  0.12317468  1
  Fe  Fe158  1  0.60766820  0.08341628  0.37299865  1
  Fe  Fe159  1  0.14246050  0.25013365  0.24758135  1
  Fe  Fe160  1  0.35849209  0.41671199  0.00215538  1
  Fe  Fe161  1  0.89247663  0.58283202  0.87562205  1
  Fe  Fe162  1  0.35778849  0.41709684  0.75101474  1
  Fe  Fe163  1  0.85809158  0.74953997  0.50212612  1
  Fe  Fe164  1  0.10880373  0.41622420  0.62345011  1
  Fe  Fe165  1  0.64174459  0.25009714  0.49793856  1
  Fe  Fe166  1  0.64242431  0.25019822  0.74770053  1
  Fe  Fe167  1  0.60695913  0.08303438  0.62364028  1
  Fe  Fe168  1  0.35648869  0.75039973  0.25137387  1
  Fe  Fe169  1  0.60772805  0.74995745  0.87270500  1
  Fe  Fe170  1  0.35694933  0.74992604  0.75152310  1
  Fe  Fe171  1  0.60629228  0.41708529  0.62385355  1
  Fe  Fe172  1  0.60689749  0.74984216  0.62362961  1
  Fe  Fe173  1  0.35825820  0.08287653  0.75126031  1
  Fe  Fe174  1  0.14313676  0.24990643  0.49872516  1
  Fe  Fe175  1  0.39337012  0.25052540  0.12643890  1
  Fe  Fe176  1  0.10662870  0.74938517  0.87348118  1
  Fe  Fe177  1  0.14270924  0.58303216  0.74862869  1
  Fe  Fe178  1  0.89136687  0.25090087  0.87656159  1
  Fe  Fe179  1  0.14176893  0.91643841  0.24789324  1
  Fe  Fe180  1  0.60733458  0.41672138  0.37300910  1
  Fe  Fe181  1  0.14288670  0.58340730  0.24753187  1
  Fe  Fe182  1  0.85718818  0.74979123  0.25185399  1
  Fe  Fe183  1  0.64264212  0.58363532  0.74815524  1
  Fe  Fe184  1  0.64246661  0.24923321  0.99854451  1
  Fe  Fe185  1  0.85720411  0.75045232  0.00147362  1
  Fe  Fe186  1  0.39262165  0.91605540  0.87665878  1
  Fe  Fe187  1  0.10757732  0.75013981  0.62333858  1
  Fe  Fe188  1  0.89303414  0.91684293  0.37665733  1
  Fe  Fe189  1  0.14278288  0.58321384  0.49850514  1
  Fe  Fe190  1  0.89305022  0.24990990  0.37716057  1
  Fe  Fe191  1  0.39282649  0.58314904  0.12659281  1
  P  P192  1  0.05465850  0.25103594  0.11075547  1
  P  P193  1  0.05427027  0.24977048  0.36035507  1
  P  P194  1  0.05486533  0.25008862  0.60976014  1
  P  P195  1  0.05161183  0.25043619  0.86023234  1
  P  P196  1  0.05463515  0.58255259  0.11109129  1
  P  P197  1  0.05567066  0.58445005  0.36068981  1
  P  P198  1  0.05607375  0.58316146  0.61102320  1
  P  P199  1  0.05282506  0.58409634  0.85957718  1
  P  P200  1  0.05355342  0.91624566  0.11021488  1
  P  P201  1  0.05360385  0.91571413  0.36031826  1
  P  P202  1  0.05470427  0.91665502  0.60986731  1
  P  P203  1  0.05440439  0.91572085  0.86136053  1
  P  P204  1  0.55300219  0.25059313  0.10909532  1
  P  P205  1  0.55459047  0.25016925  0.36129098  1
  P  P206  1  0.55412182  0.25015468  0.61134740  1
  P  P207  1  0.55602143  0.25054095  0.86058042  1
  P  P208  1  0.55206843  0.58404727  0.10991125  1
  P  P209  1  0.55294846  0.58269134  0.35994178  1
  P  P210  1  0.55301677  0.58393154  0.61182161  1
  P  P211  1  0.55432925  0.58376610  0.85930952  1
  P  P212  1  0.55471882  0.91527404  0.11125657  1
  P  P213  1  0.55425073  0.91714086  0.35897856  1
  P  P214  1  0.55319236  0.91585909  0.60999740  1
  P  P215  1  0.55242895  0.91565077  0.85999879  1
  P  P216  1  0.44690866  0.08440769  0.14002769  1
  P  P217  1  0.44814263  0.08312025  0.38995837  1
  P  P218  1  0.44741801  0.08407911  0.64010368  1
  P  P219  1  0.44577473  0.08189725  0.88881204  1
  P  P220  1  0.44664576  0.41664393  0.13838870  1
  P  P221  1  0.44793651  0.41642233  0.39020046  1
  P  P222  1  0.44690394  0.41673869  0.64029617  1
  P  P223  1  0.44616650  0.41709021  0.88882860  1
  P  P224  1  0.44679333  0.74912208  0.14051464  1
  P  P225  1  0.44489393  0.75020578  0.38887746  1
  P  P226  1  0.44635908  0.74919810  0.64018128  1
  P  P227  1  0.44662040  0.75071014  0.88853707  1
  P  P228  1  0.94486698  0.08271796  0.13896194  1
  P  P229  1  0.94650717  0.08343001  0.38993670  1
  P  P230  1  0.94905277  0.08357557  0.63975744  1
  P  P231  1  0.94561446  0.08447843  0.89055945  1
  P  P232  1  0.94801800  0.41694911  0.14059008  1
  P  P233  1  0.94672356  0.41582127  0.39036107  1
  P  P234  1  0.94869825  0.41651302  0.63975675  1
  P  P235  1  0.94620977  0.41712546  0.88968643  1
  P  P236  1  0.94441022  0.75063296  0.13944287  1
  P  P237  1  0.94589816  0.75052005  0.38935902  1
  P  P238  1  0.94670653  0.74989613  0.63934857  1
  P  P239  1  0.94555018  0.74855177  0.88906467  1
  P  P240  1  0.19602417  0.08312137  0.23470050  1
  P  P241  1  0.19536034  0.08360301  0.48617124  1
  P  P242  1  0.19800695  0.08345197  0.73506203  1
  P  P243  1  0.19675265  0.08275120  0.98461034  1
  P  P244  1  0.19589674  0.41672950  0.23424495  1
  P  P245  1  0.19574111  0.41644505  0.48629977  1
  P  P246  1  0.19766961  0.41723580  0.73504258  1
  P  P247  1  0.19789800  0.41663144  0.98573934  1
  P  P248  1  0.19581184  0.75014067  0.23613956  1
  P  P249  1  0.19367320  0.74984975  0.48574372  1
  P  P250  1  0.19564577  0.74901520  0.73612943  1
  P  P251  1  0.19554718  0.75037535  0.98417729  1
  P  P252  1  0.69564763  0.08235231  0.23629943  1
  P  P253  1  0.69422801  0.08395490  0.48564501  1
  P  P254  1  0.69628561  0.08393168  0.73379818  1
  P  P255  1  0.69833091  0.08362902  0.98491746  1
  P  P256  1  0.69470829  0.41713018  0.23503124  1
  P  P257  1  0.69377769  0.41631002  0.48604368  1
  P  P258  1  0.69442153  0.41721712  0.73572357  1
  P  P259  1  0.69391838  0.41603991  0.98561030  1
  P  P260  1  0.69765018  0.75096737  0.23426240  1
  P  P261  1  0.69666928  0.74978723  0.48609425  1
  P  P262  1  0.69606284  0.74919629  0.73552857  1
  P  P263  1  0.69600609  0.75025771  0.98547771  1
  P  P264  1  0.30491217  0.25088876  0.01560321  1
  P  P265  1  0.30319365  0.25008765  0.26384744  1
  P  P266  1  0.30310864  0.24991758  0.51551930  1
  P  P267  1  0.30570563  0.25013687  0.76348839  1
  P  P268  1  0.30457463  0.58287826  0.01543480  1
  P  P269  1  0.30319737  0.58401742  0.26365106  1
  P  P270  1  0.30236582  0.58350844  0.51564087  1
  P  P271  1  0.30362452  0.58343315  0.76346207  1
  P  P272  1  0.30297474  0.91597357  0.01396350  1
  P  P273  1  0.30119025  0.91576174  0.26504594  1
  P  P274  1  0.30115798  0.91650906  0.51482892  1
  P  P275  1  0.30448243  0.91619607  0.76519979  1
  P  P276  1  0.80294033  0.24960214  0.01403212  1
  P  P277  1  0.80373444  0.25058957  0.26641352  1
  P  P278  1  0.80267326  0.25038987  0.51411938  1
  P  P279  1  0.80214984  0.25056849  0.76472899  1
  P  P280  1  0.80456466  0.58395569  0.01349404  1
  P  P281  1  0.80290736  0.58414485  0.26528135  1
  P  P282  1  0.80351969  0.58395778  0.51553426  1
  P  P283  1  0.80262024  0.58375124  0.76524877  1
  P  P284  1  0.80450224  0.91671640  0.01530610  1
  P  P285  1  0.80433770  0.91558697  0.26476337  1
  P  P286  1  0.80519302  0.91578885  0.51382192  1
  P  P287  1  0.80351953  0.91578640  0.76428644  1
  O  O288  1  0.05900016  0.25008283  0.18752370  1
  O  O289  1  0.05938864  0.24989921  0.43698460  1
  O  O290  1  0.05751039  0.25011878  0.68657652  1
  O  O291  1  0.05586142  0.25045672  0.93689078  1
  O  O292  1  0.05899655  0.58335667  0.18785706  1
  O  O293  1  0.05947845  0.58361737  0.43747132  1
  O  O294  1  0.05975172  0.58307516  0.68783688  1
  O  O295  1  0.05630137  0.58358723  0.93631542  1
  O  O296  1  0.05839830  0.91618935  0.18697462  1
  O  O297  1  0.05831900  0.91644689  0.43698486  1
  O  O298  1  0.05729952  0.91654432  0.68672199  1
  O  O299  1  0.05793165  0.91631494  0.93812652  1
  O  O300  1  0.55651297  0.24966812  0.18585272  1
  O  O301  1  0.55780702  0.25004989  0.43810097  1
  O  O302  1  0.55826502  0.24998226  0.68810449  1
  O  O303  1  0.55970347  0.24938695  0.93733010  1
  O  O304  1  0.55544014  0.58411507  0.18659116  1
  O  O305  1  0.55591042  0.58388727  0.43672583  1
  O  O306  1  0.55781115  0.58416355  0.68842231  1
  O  O307  1  0.55670004  0.58403299  0.93611890  1
  O  O308  1  0.55943319  0.91598841  0.18788436  1
  O  O309  1  0.55699374  0.91592914  0.43580731  1
  O  O310  1  0.55577078  0.91580492  0.68674712  1
  O  O311  1  0.55643820  0.91622761  0.93669187  1
  O  O312  1  0.44376180  0.08333149  0.06321567  1
  O  O313  1  0.44377315  0.08293062  0.31328741  1
  O  O314  1  0.44382305  0.08344870  0.56337434  1
  O  O315  1  0.44168491  0.08268061  0.81206255  1
  O  O316  1  0.44259207  0.41672439  0.06166758  1
  O  O317  1  0.44385306  0.41644554  0.31346757  1
  O  O318  1  0.44356437  0.41686841  0.56358332  1
  O  O319  1  0.44115789  0.41708451  0.81217233  1
  O  O320  1  0.44333269  0.75015166  0.06376240  1
  O  O321  1  0.43994960  0.75043830  0.31218383  1
  O  O322  1  0.44239211  0.74956883  0.56346245  1
  O  O323  1  0.44121309  0.74995325  0.81196004  1
  O  O324  1  0.94078576  0.08347135  0.06222130  1
  O  O325  1  0.94376569  0.08335780  0.31312847  1
  O  O326  1  0.94456407  0.08354796  0.56311970  1
  O  O327  1  0.94307696  0.08372570  0.81373113  1
  O  O328  1  0.94330008  0.41718452  0.06392115  1
  O  O329  1  0.94358855  0.41656009  0.31364679  1
  O  O330  1  0.94434485  0.41679306  0.56313098  1
  O  O331  1  0.94328572  0.41683494  0.81294515  1
  O  O332  1  0.94056310  0.74993227  0.06266045  1
  O  O333  1  0.94123623  0.74975712  0.31265036  1
  O  O334  1  0.94196727  0.74957223  0.56266798  1
  O  O335  1  0.94114146  0.74938587  0.81230940  1
  O  O336  1  0.19329232  0.08340446  0.06134958  1
  O  O337  1  0.19326107  0.08343552  0.31152248  1
  O  O338  1  0.19212518  0.08338658  0.56296016  1
  O  O339  1  0.19381263  0.08376007  0.81171058  1
  O  O340  1  0.19253198  0.41666492  0.06230360  1
  O  O341  1  0.19316112  0.41653496  0.31119577  1
  O  O342  1  0.19251972  0.41636794  0.56306021  1
  O  O343  1  0.19422743  0.41664687  0.81178462  1
  O  O344  1  0.19257706  0.74979579  0.06096403  1
  O  O345  1  0.19135334  0.75019026  0.31280031  1
  O  O346  1  0.19055728  0.75013015  0.56260830  1
  O  O347  1  0.19090583  0.74933232  0.81275191  1
  O  O348  1  0.69467486  0.08309613  0.06164821  1
  O  O349  1  0.69160888  0.08313356  0.31304151  1
  O  O350  1  0.68977130  0.08326280  0.56240461  1
  O  O351  1  0.69387410  0.08288973  0.81062333  1
  O  O352  1  0.68970373  0.41708165  0.06243088  1
  O  O353  1  0.69083575  0.41720266  0.31183416  1
  O  O354  1  0.68924869  0.41711205  0.56283943  1
  O  O355  1  0.69117315  0.41729034  0.81254160  1
  O  O356  1  0.69102759  0.74975759  0.06209313  1
  O  O357  1  0.69403613  0.75009089  0.31100019  1
  O  O358  1  0.69115455  0.74967384  0.56269846  1
  O  O359  1  0.69131332  0.75013381  0.81224671  1
  O  O360  1  0.30886096  0.25029729  0.18728863  1
  O  O361  1  0.30659676  0.25006714  0.43873260  1
  O  O362  1  0.30947906  0.25008449  0.68673619  1
  O  O363  1  0.30824172  0.25037685  0.93875363  1
  O  O364  1  0.30856426  0.58334081  0.18704152  1
  O  O365  1  0.30598425  0.58326882  0.43887906  1
  O  O366  1  0.30810634  0.58359369  0.68678225  1
  O  O367  1  0.30762050  0.58351538  0.93861528  1
  O  O368  1  0.30530923  0.91618833  0.18832346  1
  O  O369  1  0.30543904  0.91664701  0.43820434  1
  O  O370  1  0.30694975  0.91597782  0.68837358  1
  O  O371  1  0.30834509  0.91579990  0.93736164  1
  O  O372  1  0.80681184  0.25060026  0.18954575  1
  O  O373  1  0.80829600  0.25035805  0.43756741  1
  O  O374  1  0.80626973  0.25078771  0.68802163  1
  O  O375  1  0.80756450  0.25067472  0.93734649  1
  O  O376  1  0.80581680  0.58308274  0.18847115  1
  O  O377  1  0.80699779  0.58324564  0.43879843  1
  O  O378  1  0.80669657  0.58304576  0.68856325  1
  O  O379  1  0.80853936  0.58311437  0.93681312  1
  O  O380  1  0.80867664  0.91651994  0.18806841  1
  O  O381  1  0.80941813  0.91656830  0.43707554  1
  O  O382  1  0.80662419  0.91621493  0.68751604  1
  O  O383  1  0.80701096  0.91643948  0.93845613  1
  O  O384  1  0.23507933  0.24996253  0.04013203  1
  O  O385  1  0.23267822  0.25038743  0.28702910  1
  O  O386  1  0.23307456  0.24976897  0.53996721  1
  O  O387  1  0.23584695  0.25046456  0.78849603  1
  O  O388  1  0.23479143  0.58369899  0.04022327  1
  O  O389  1  0.23277205  0.58333501  0.28709517  1
  O  O390  1  0.23220925  0.58365502  0.53971421  1
  O  O391  1  0.23339563  0.58295680  0.78773170  1
  O  O392  1  0.23252636  0.91589841  0.03731304  1
  O  O393  1  0.23107854  0.91634686  0.28936651  1
  O  O394  1  0.23107574  0.91644359  0.53909329  1
  O  O395  1  0.23472643  0.91657414  0.79031089  1
  O  O396  1  0.73268701  0.24981509  0.03815978  1
  O  O397  1  0.73389449  0.25023547  0.29091070  1
  O  O398  1  0.73213816  0.25031382  0.53713279  1
  O  O399  1  0.73188275  0.25038582  0.78862020  1
  O  O400  1  0.73453897  0.58378550  0.03789096  1
  O  O401  1  0.73337368  0.58454907  0.29076172  1
  O  O402  1  0.73373072  0.58377660  0.54030779  1
  O  O403  1  0.73249152  0.58375322  0.78952084  1
  O  O404  1  0.73487725  0.91659203  0.04068618  1
  O  O405  1  0.73410332  0.91594488  0.28885499  1
  O  O406  1  0.73511422  0.91595908  0.53785294  1
  O  O407  1  0.73391411  0.91615866  0.78966673  1
  O  O408  1  0.26555397  0.08246150  0.20908124  1
  O  O409  1  0.26506830  0.08358876  0.46085024  1
  O  O410  1  0.26822202  0.08279439  0.71094270  1
  O  O411  1  0.26651968  0.08322305  0.95982172  1
  O  O412  1  0.26567816  0.41682411  0.20936839  1
  O  O413  1  0.26540098  0.41667468  0.46082798  1
  O  O414  1  0.26775084  0.41698560  0.71042145  1
  O  O415  1  0.26828892  0.41688048  0.96227969  1
  O  O416  1  0.26596453  0.75030153  0.21168552  1
  O  O417  1  0.26357692  0.74951264  0.46098353  1
  O  O418  1  0.26605041  0.75000637  0.71238251  1
  O  O419  1  0.26531317  0.74951194  0.95926173  1
  O  O420  1  0.76564757  0.08318475  0.21213659  1
  O  O421  1  0.76440399  0.08330876  0.46191701  1
  O  O422  1  0.76579615  0.08373132  0.70798039  1
  O  O423  1  0.76819331  0.08343153  0.96002194  1
  O  O424  1  0.76461780  0.41680469  0.21049736  1
  O  O425  1  0.76392454  0.41708622  0.46228292  1
  O  O426  1  0.76425535  0.41697925  0.71065734  1
  O  O427  1  0.76402778  0.41670273  0.96170499  1
  O  O428  1  0.76770294  0.75029247  0.20984996  1
  O  O429  1  0.76708020  0.74998100  0.46280176  1
  O  O430  1  0.76655859  0.74941658  0.71209927  1
  O  O431  1  0.76652904  0.75044976  0.96225470  1
  O  O432  1  0.01481179  0.08310107  0.16332757  1
  O  O433  1  0.01618870  0.08312984  0.41502665  1
  O  O434  1  0.01913984  0.08384441  0.66409338  1
  O  O435  1  0.01518562  0.08371455  0.91614944  1
  O  O436  1  0.01807745  0.41634698  0.16474361  1
  O  O437  1  0.01659777  0.41662148  0.41508841  1
  O  O438  1  0.01886308  0.41631541  0.66387600  1
  O  O439  1  0.01582176  0.41738916  0.91523325  1
  O  O440  1  0.01446161  0.74986733  0.16357572  1
  O  O441  1  0.01634521  0.75002994  0.41283603  1
  O  O442  1  0.01727459  0.74979952  0.66251256  1
  O  O443  1  0.01582468  0.74939060  0.91310399  1
  O  O444  1  0.51665647  0.08400540  0.16486488  1
  O  O445  1  0.51821847  0.08328984  0.41411336  1
  O  O446  1  0.51756398  0.08333401  0.66458923  1
  O  O447  1  0.51574596  0.08270542  0.91323281  1
  O  O448  1  0.51688765  0.41672351  0.16259722  1
  O  O449  1  0.51786703  0.41659188  0.41475490  1
  O  O450  1  0.51706937  0.41658356  0.66478063  1
  O  O451  1  0.51671919  0.41744897  0.91181522  1
  O  O452  1  0.51688073  0.74952733  0.16508958  1
  O  O453  1  0.51507667  0.74992321  0.41246585  1
  O  O454  1  0.51654967  0.74999124  0.66439078  1
  O  O455  1  0.51703189  0.74982319  0.91201263  1
  O  O456  1  0.48306819  0.25058164  0.08426714  1
  O  O457  1  0.48491204  0.25022755  0.33597068  1
  O  O458  1  0.48375654  0.25042888  0.58727035  1
  O  O459  1  0.48591135  0.24992526  0.83651536  1
  O  O460  1  0.48223989  0.58370130  0.08465787  1
  O  O461  1  0.48335775  0.58271356  0.33461246  1
  O  O462  1  0.48271075  0.58339403  0.58775084  1
  O  O463  1  0.48466660  0.58358664  0.83406921  1
  O  O464  1  0.48461698  0.91572291  0.08725916  1
  O  O465  1  0.48456822  0.91674665  0.33372325  1
  O  O466  1  0.48366520  0.91621377  0.58415039  1
  O  O467  1  0.48250755  0.91598915  0.83527425  1
  O  O468  1  0.98455085  0.25095767  0.08693335  1
  O  O469  1  0.98386929  0.24976235  0.33692055  1
  O  O470  1  0.98521967  0.25011691  0.58427386  1
  O  O471  1  0.98153270  0.25046490  0.83584890  1
  O  O472  1  0.98463474  0.58366261  0.08703185  1
  O  O473  1  0.98564845  0.58333327  0.33648664  1
  O  O474  1  0.98609672  0.58349682  0.58645118  1
  O  O475  1  0.98287714  0.58327123  0.83471196  1
  O  O476  1  0.98312149  0.91613082  0.08695210  1
  O  O477  1  0.98321837  0.91646493  0.33671841  1
  O  O478  1  0.98511929  0.91633913  0.58433289  1
  O  O479  1  0.98455327  0.91613261  0.83652616  1
  O  O480  1  0.08818774  0.31620253  0.07793387  1
  O  O481  1  0.08773209  0.31479049  0.32698976  1
  O  O482  1  0.08926514  0.31515685  0.57752995  1
  O  O483  1  0.08565670  0.31540323  0.82754493  1
  O  O484  1  0.08847170  0.64735647  0.07785324  1
  O  O485  1  0.08866867  0.64983069  0.32770161  1
  O  O486  1  0.08982045  0.64825307  0.57821967  1
  O  O487  1  0.08658681  0.64928666  0.82700742  1
  O  O488  1  0.08693251  0.98118246  0.07677273  1
  O  O489  1  0.08734446  0.98041788  0.32671192  1
  O  O490  1  0.08884429  0.98181505  0.57763997  1
  O  O491  1  0.08829870  0.98065370  0.82842000  1
  O  O492  1  0.58719427  0.31564534  0.07697279  1
  O  O493  1  0.58837284  0.31536645  0.32870822  1
  O  O494  1  0.58762263  0.31528283  0.57836613  1
  O  O495  1  0.58900234  0.31607628  0.82796866  1
  O  O496  1  0.58597693  0.64927304  0.07743626  1
  O  O497  1  0.58701388  0.64772112  0.32716651  1
  O  O498  1  0.58606466  0.64910026  0.57825301  1
  O  O499  1  0.58864219  0.64871980  0.82693811  1
  O  O500  1  0.58826424  0.98021753  0.07764798  1
  O  O501  1  0.58845893  0.98242557  0.32725551  1
  O  O502  1  0.58768625  0.98095914  0.57817748  1
  O  O503  1  0.58642169  0.98064622  0.82719512  1
  O  O504  1  0.41272853  0.01938058  0.17266133  1
  O  O505  1  0.41449338  0.01804877  0.42292772  1
  O  O506  1  0.41310712  0.01920419  0.67276744  1
  O  O507  1  0.41254866  0.01659431  0.92167470  1
  O  O508  1  0.41346819  0.35148476  0.17168588  1
  O  O509  1  0.41420682  0.35138788  0.42298113  1
  O  O510  1  0.41308017  0.35169899  0.67292709  1
  O  O511  1  0.41330313  0.35196096  0.92247344  1
  O  O512  1  0.41288554  0.68383668  0.17268838  1
  O  O513  1  0.41140950  0.68513692  0.42199977  1
  O  O514  1  0.41283526  0.68409030  0.67321243  1
  O  O515  1  0.41309001  0.68580176  0.92198356  1
  O  O516  1  0.91164811  0.01727041  0.17167125  1
  O  O517  1  0.91239736  0.01828124  0.42211955  1
  O  O518  1  0.91551812  0.01847629  0.67272631  1
  O  O519  1  0.91094284  0.01953817  0.92287366  1
  O  O520  1  0.91381901  0.35211566  0.17324868  1
  O  O521  1  0.91324365  0.35042946  0.42272495  1
  O  O522  1  0.91467245  0.35160554  0.67244518  1
  O  O523  1  0.91205512  0.35203181  0.92220761  1
  O  O524  1  0.91034263  0.68602406  0.17290539  1
  O  O525  1  0.91247113  0.68569464  0.42319461  1
  O  O526  1  0.91331925  0.68503662  0.67296938  1
  O  O527  1  0.91243230  0.68324417  0.92195373  1
  O  O528  1  0.16137532  0.01802898  0.20293197  1
  O  O529  1  0.16133253  0.01854300  0.45345398  1
  O  O530  1  0.16377624  0.01861887  0.70235307  1
  O  O531  1  0.16290178  0.01750338  0.95246724  1
  O  O532  1  0.16172957  0.35172563  0.20187333  1
  O  O533  1  0.16204449  0.35118246  0.45367434  1
  O  O534  1  0.16361283  0.35229598  0.70222196  1
  O  O535  1  0.16480824  0.35163340  0.95205823  1
  O  O536  1  0.16256412  0.68501250  0.20283315  1
  O  O537  1  0.15981750  0.68474228  0.45313237  1
  O  O538  1  0.16265633  0.68386849  0.70278783  1
  O  O539  1  0.16101794  0.68554867  0.95155763  1
  O  O540  1  0.66270600  0.01691724  0.20345404  1
  O  O541  1  0.66052254  0.01912080  0.45222063  1
  O  O542  1  0.66163162  0.01905041  0.70143717  1
  O  O543  1  0.66451395  0.01853197  0.95204883  1
  O  O544  1  0.66065134  0.35217172  0.20224780  1
  O  O545  1  0.66061781  0.35100439  0.45308825  1
  O  O546  1  0.66030566  0.35225015  0.70302759  1
  O  O547  1  0.66065457  0.35078866  0.95292796  1
  O  O548  1  0.66333138  0.68629214  0.20104215  1
  O  O549  1  0.66356789  0.68478579  0.45245611  1
  O  O550  1  0.66278166  0.68396425  0.70244915  1
  O  O551  1  0.66276262  0.68534629  0.95174032  1
  O  O552  1  0.33860775  0.31615900  0.04803600  1
  O  O553  1  0.33637640  0.31507766  0.29754267  1
  O  O554  1  0.33710530  0.31489853  0.54823002  1
  O  O555  1  0.33950031  0.31528606  0.79613495  1
  O  O556  1  0.33902554  0.64769170  0.04805188  1
  O  O557  1  0.33586223  0.64929814  0.29699131  1
  O  O558  1  0.33622794  0.64846706  0.54840005  1
  O  O559  1  0.33667615  0.64867472  0.79680594  1
  O  O560  1  0.33616831  0.98096256  0.04754686  1
  O  O561  1  0.33509782  0.98080243  0.29791782  1
  O  O562  1  0.33504573  0.98147540  0.54765028  1
  O  O563  1  0.33895813  0.98116496  0.79729182  1
  O  O564  1  0.83621162  0.31459270  0.04775382  1
  O  O565  1  0.83768869  0.31564628  0.29889555  1
  O  O566  1  0.83559248  0.31537727  0.54793829  1
  O  O567  1  0.83563966  0.31557487  0.79799302  1
  O  O568  1  0.83805090  0.64925099  0.04604442  1
  O  O569  1  0.83746970  0.64929711  0.29696283  1
  O  O570  1  0.83756268  0.64914224  0.54771916  1
  O  O571  1  0.83675185  0.64870796  0.79780253  1
  O  O572  1  0.83866550  0.98182938  0.04752978  1
  O  O573  1  0.83804423  0.98031934  0.29849212  1
  O  O574  1  0.83850642  0.98091215  0.54716636  1
  O  O575  1  0.83790099  0.98084482  0.79643917  1
  O  O576  1  0.41320297  0.14984212  0.17200665  1
  O  O577  1  0.41439802  0.14816070  0.42275185  1
  O  O578  1  0.41395109  0.14927629  0.67278043  1
  O  O579  1  0.41193154  0.14693538  0.92171821  1
  O  O580  1  0.41326229  0.48176836  0.17157354  1
  O  O581  1  0.41396927  0.48142089  0.42293190  1
  O  O582  1  0.41307957  0.48176955  0.67314838  1
  O  O583  1  0.41275277  0.48194339  0.92228582  1
  O  O584  1  0.41248064  0.81384054  0.17363682  1
  O  O585  1  0.41170851  0.81532155  0.42226516  1
  O  O586  1  0.41208591  0.81403196  0.67295146  1
  O  O587  1  0.41382502  0.81588077  0.92212690  1
  O  O588  1  0.91105908  0.14757454  0.17213077  1
  O  O589  1  0.91266217  0.14869517  0.42235171  1
  O  O590  1  0.91492578  0.14850563  0.67240498  1
  O  O591  1  0.91146422  0.14971960  0.92256083  1
  O  O592  1  0.91467567  0.48212098  0.17372360  1
  O  O593  1  0.91261180  0.48078759  0.42304057  1
  O  O594  1  0.91508317  0.48151738  0.67285341  1
  O  O595  1  0.91201918  0.48238414  0.92172988  1
  O  O596  1  0.91123590  0.81600086  0.17226987  1
  O  O597  1  0.91285529  0.81578551  0.42247112  1
  O  O598  1  0.91352265  0.81488592  0.67278423  1
  O  O599  1  0.91162569  0.81333144  0.92255234  1
  O  O600  1  0.08787417  0.18595588  0.07729236  1
  O  O601  1  0.08760917  0.18481847  0.32683479  1
  O  O602  1  0.08919295  0.18504809  0.57747962  1
  O  O603  1  0.08555788  0.18546568  0.82742794  1
  O  O604  1  0.08762536  0.51712482  0.07810511  1
  O  O605  1  0.09008320  0.51979496  0.32763577  1
  O  O606  1  0.08970682  0.51801310  0.57813994  1
  O  O607  1  0.08757317  0.51937616  0.82699276  1
  O  O608  1  0.08695133  0.85126271  0.07689788  1
  O  O609  1  0.08653312  0.85040355  0.32705924  1
  O  O610  1  0.08897368  0.85158160  0.57757848  1
  O  O611  1  0.08785006  0.85045537  0.82869251  1
  O  O612  1  0.58713564  0.18566824  0.07607893  1
  O  O613  1  0.58841400  0.18503901  0.32855845  1
  O  O614  1  0.58745035  0.18512011  0.57804484  1
  O  O615  1  0.58996062  0.18588892  0.82714819  1
  O  O616  1  0.58630193  0.51913269  0.07738498  1
  O  O617  1  0.58715251  0.51753777  0.32809964  1
  O  O618  1  0.58657752  0.51882045  0.57889803  1
  O  O619  1  0.58868044  0.51870655  0.82719239  1
  O  O620  1  0.58791861  0.84990294  0.07843343  1
  O  O621  1  0.58888402  0.85235302  0.32635235  1
  O  O622  1  0.58722908  0.85057262  0.57779471  1
  O  O623  1  0.58621959  0.85060383  0.82730782  1
  O  O624  1  0.33946316  0.18618421  0.04827425  1
  O  O625  1  0.33596681  0.18485273  0.29745670  1
  O  O626  1  0.33739201  0.18502103  0.54801264  1
  O  O627  1  0.33920043  0.18484871  0.79621310  1
  O  O628  1  0.33851472  0.51772221  0.04779138  1
  O  O629  1  0.33640951  0.51897361  0.29737003  1
  O  O630  1  0.33629711  0.51857648  0.54847744  1
  O  O631  1  0.33737752  0.51848492  0.79640157  1
  O  O632  1  0.33610598  0.85096222  0.04756059  1
  O  O633  1  0.33473102  0.85065924  0.29774167  1
  O  O634  1  0.33474517  0.85144661  0.54771741  1
  O  O635  1  0.33833663  0.85097129  0.79772094  1
  O  O636  1  0.83633502  0.18445023  0.04687910  1
  O  O637  1  0.83808774  0.18567220  0.29891381  1
  O  O638  1  0.83571481  0.18529892  0.54775145  1
  O  O639  1  0.83605075  0.18554361  0.79737473  1
  O  O640  1  0.83802278  0.51906334  0.04711406  1
  O  O641  1  0.83682413  0.51910182  0.29803263  1
  O  O642  1  0.83740792  0.51894785  0.54844379  1
  O  O643  1  0.83644406  0.51875738  0.79828127  1
  O  O644  1  0.83885667  0.85161520  0.04748347  1
  O  O645  1  0.83780686  0.85030305  0.29747406  1
  O  O646  1  0.83867648  0.85061179  0.54655599  1
  O  O647  1  0.83753115  0.85065965  0.79665365  1
  O  O648  1  0.16221083  0.14841478  0.20237675  1
  O  O649  1  0.16164399  0.14888544  0.45367543  1
  O  O650  1  0.16448039  0.14852162  0.70203951  1
  O  O651  1  0.16287232  0.14785219  0.95182915  1
  O  O652  1  0.16168570  0.48180791  0.20200779  1
  O  O653  1  0.16177881  0.48162854  0.45383059  1
  O  O654  1  0.16355739  0.48217301  0.70260754  1
  O  O655  1  0.16458356  0.48168676  0.95232965  1
  O  O656  1  0.16213816  0.81511064  0.20301063  1
  O  O657  1  0.15993910  0.81495555  0.45281245  1
  O  O658  1  0.16179558  0.81382106  0.70272851  1
  O  O659  1  0.16151028  0.81547462  0.95191085  1
  O  O660  1  0.66188948  0.14721430  0.20295337  1
  O  O661  1  0.66093634  0.14924216  0.45280002  1
  O  O662  1  0.66184790  0.14916162  0.70216846  1
  O  O663  1  0.66418950  0.14852161  0.95253803  1
  O  O664  1  0.66094078  0.48214618  0.20197854  1
  O  O665  1  0.65988777  0.48105118  0.45261868  1
  O  O666  1  0.66061347  0.48244402  0.70303696  1
  O  O667  1  0.66003826  0.48087558  0.95222016  1
  O  O668  1  0.66400954  0.81617770  0.20178542  1
  O  O669  1  0.66345633  0.81469059  0.45242112  1
  O  O670  1  0.66257161  0.81392049  0.70168925  1
  O  O671  1  0.66274952  0.81525313  0.95201386  1
