# generated using pymatgen
data_Na2MnFe(PO4)2
_symmetry_space_group_name_H-M   'P 1'
_cell_length_a   21.08132110
_cell_length_b   18.93280111
_cell_length_c   20.04037570
_cell_angle_alpha   90.00009464
_cell_angle_beta   89.99967774
_cell_angle_gamma   90.00314654
_symmetry_Int_Tables_number   1
_chemical_formula_structural   Na2MnFe(PO4)2
_chemical_formula_sum   'Na96 Mn48 Fe48 P96 O384'
_cell_volume   7998.68426366
_cell_formula_units_Z   48
loop_
 _symmetry_equiv_pos_site_id
 _symmetry_equiv_pos_as_xyz
  1  'x, y, z'
loop_
 _atom_site_type_symbol
 _atom_site_label
 _atom_site_symmetry_multiplicity
 _atom_site_fract_x
 _atom_site_fract_y
 _atom_site_fract_z
 _atom_site_occupancy
  Na  Na0  1  -0.00121434  -0.00141357  -0.00007279  1
  Na  Na1  1  -0.00012436  -0.00090042  0.24936462  1
  Na  Na2  1  0.00022239  -0.00028100  0.50072484  1
  Na  Na3  1  0.00029396  -0.00031952  0.75104516  1
  Na  Na4  1  -0.00095308  0.33417515  0.00088023  1
  Na  Na5  1  -0.00005610  0.33348501  0.24947923  1
  Na  Na6  1  0.00172608  0.33405016  0.49906532  1
  Na  Na7  1  -0.00160054  0.33332488  0.75060694  1
  Na  Na8  1  0.00021578  0.66705068  -0.00084919  1
  Na  Na9  1  0.00062967  0.66658162  0.25074601  1
  Na  Na10  1  0.00195785  0.66762062  0.49914063  1
  Na  Na11  1  -0.00177637  0.66591506  0.74971472  1
  Na  Na12  1  0.49962388  -0.00015073  0.00024691  1
  Na  Na13  1  0.49898360  -0.00015955  0.25014914  1
  Na  Na14  1  0.50053993  -0.00055987  0.50017089  1
  Na  Na15  1  0.49994942  -0.00078627  0.74921026  1
  Na  Na16  1  0.49997788  0.33369006  -0.00055892  1
  Na  Na17  1  0.49993329  0.33350849  0.25033690  1
  Na  Na18  1  0.50210075  0.33481539  0.49938146  1
  Na  Na19  1  0.49958249  0.33334409  0.75041983  1
  Na  Na20  1  0.49811536  0.66583164  -0.00021769  1
  Na  Na21  1  0.50028417  0.66646739  0.25067358  1
  Na  Na22  1  0.50151824  0.66723021  0.49980750  1
  Na  Na23  1  0.49943253  0.66687922  0.75039045  1
  Na  Na24  1  0.25040010  -0.00028157  0.12565831  1
  Na  Na25  1  0.24988361  0.00017203  0.37628905  1
  Na  Na26  1  0.24830678  -0.00107221  0.62411415  1
  Na  Na27  1  0.25094226  -0.00025231  0.87490213  1
  Na  Na28  1  0.25219618  0.33412882  0.12554797  1
  Na  Na29  1  0.24733554  0.33239566  0.37382888  1
  Na  Na30  1  0.24976084  0.33421386  0.62476586  1
  Na  Na31  1  0.25186882  0.33388210  0.87535182  1
  Na  Na32  1  0.25047652  0.66689979  0.12518382  1
  Na  Na33  1  0.24928965  0.66613752  0.37354822  1
  Na  Na34  1  0.24884266  0.66630378  0.62482753  1
  Na  Na35  1  0.25105260  0.66735121  0.87632281  1
  Na  Na36  1  0.75054357  -0.00050370  0.12451054  1
  Na  Na37  1  0.75117126  -0.00066540  0.37383033  1
  Na  Na38  1  0.75105528  -0.00106730  0.62454451  1
  Na  Na39  1  0.75223085  0.00017396  0.87625276  1
  Na  Na40  1  0.74864974  0.33442337  0.12571976  1
  Na  Na41  1  0.74794827  0.33348437  0.37462399  1
  Na  Na42  1  0.74970927  0.33379568  0.62561633  1
  Na  Na43  1  0.74911934  0.33386891  0.87533354  1
  Na  Na44  1  0.74992900  0.66615741  0.12389850  1
  Na  Na45  1  0.74865292  0.66654193  0.37465231  1
  Na  Na46  1  0.74890391  0.66639996  0.62523248  1
  Na  Na47  1  0.75194399  0.66787204  0.87586980  1
  Na  Na48  1  0.00060676  0.16678599  -0.00020589  1
  Na  Na49  1  0.00300973  0.16604464  0.24995391  1
  Na  Na50  1  0.00335095  0.16545968  0.49948596  1
  Na  Na51  1  -0.00011059  0.16694206  0.75046820  1
  Na  Na52  1  -0.00425876  0.50111991  0.00024140  1
  Na  Na53  1  -0.00153453  0.50019222  0.25013005  1
  Na  Na54  1  0.00161577  0.49877624  0.49925497  1
  Na  Na55  1  -0.00202089  0.50022189  0.75036397  1
  Na  Na56  1  0.00163515  0.83266731  -0.00034138  1
  Na  Na57  1  0.00048029  0.83326110  0.24965164  1
  Na  Na58  1  -0.00094278  0.83386395  0.50031527  1
  Na  Na59  1  -0.00095373  0.83381166  0.75065581  1
  Na  Na60  1  0.49892822  0.16645945  -0.00015707  1
  Na  Na61  1  0.49905028  0.16663055  0.25073245  1
  Na  Na62  1  0.50087859  0.16609025  0.49887653  1
  Na  Na63  1  0.49974411  0.16673085  0.75089052  1
  Na  Na64  1  0.49922695  0.49969040  0.00089546  1
  Na  Na65  1  0.49974006  0.50034756  0.24974068  1
  Na  Na66  1  0.50144245  0.49999817  0.49970502  1
  Na  Na67  1  0.49804122  0.50086501  0.74973489  1
  Na  Na68  1  0.50064144  0.83313442  -0.00091036  1
  Na  Na69  1  0.50001246  0.83364426  0.25049166  1
  Na  Na70  1  0.50172137  0.83301598  0.50063826  1
  Na  Na71  1  0.50071386  0.83361627  0.74935673  1
  Na  Na72  1  0.25242653  0.16574712  0.12608259  1
  Na  Na73  1  0.24797968  0.16692557  0.37467635  1
  Na  Na74  1  0.24615277  0.16754565  0.62464789  1
  Na  Na75  1  0.25152366  0.16597512  0.87474939  1
  Na  Na76  1  0.25354092  0.49935818  0.12557422  1
  Na  Na77  1  0.25002032  0.50065393  0.37392345  1
  Na  Na78  1  0.25013129  0.50054985  0.62433237  1
  Na  Na79  1  0.25396252  0.49914728  0.87553950  1
  Na  Na80  1  0.24677996  0.83421541  0.12462311  1
  Na  Na81  1  0.24823028  0.83360095  0.37492447  1
  Na  Na82  1  0.25026181  0.83263396  0.62492041  1
  Na  Na83  1  0.24870421  0.83337554  0.87615451  1
  Na  Na84  1  0.74773166  0.16729935  0.12500586  1
  Na  Na85  1  0.74823033  0.16717699  0.37429157  1
  Na  Na86  1  0.75034872  0.16627790  0.62504001  1
  Na  Na87  1  0.74957859  0.16644752  0.87579328  1
  Na  Na88  1  0.75039551  0.49950950  0.12447310  1
  Na  Na89  1  0.74734702  0.50099981  0.37373567  1
  Na  Na90  1  0.74997004  0.49968670  0.62570876  1
  Na  Na91  1  0.75178291  0.49933926  0.87628879  1
  Na  Na92  1  0.75129581  0.83329117  0.12446986  1
  Na  Na93  1  0.75154908  0.83333581  0.37500788  1
  Na  Na94  1  0.75045336  0.83395549  0.62439113  1
  Na  Na95  1  0.75132476  0.83340936  0.87574841  1
  Mn  Mn96  1  0.35727477  0.75047442  0.00288792  1
  Mn  Mn97  1  0.85761194  0.08472245  0.00300873  1
  Mn  Mn98  1  0.10818499  0.08329719  0.87296062  1
  Mn  Mn99  1  0.64246876  0.91707620  0.99788964  1
  Mn  Mn100  1  0.64211061  0.58306024  0.99772173  1
  Mn  Mn101  1  0.60749705  0.08317905  0.37266559  1
  Mn  Mn102  1  0.85720367  0.41657846  0.50127344  1
  Mn  Mn103  1  0.60812536  0.41721806  0.62329251  1
  Mn  Mn104  1  0.64253229  0.58419824  0.74873023  1
  Mn  Mn105  1  0.89129668  0.25015938  0.87802875  1
  Mn  Mn106  1  0.89220620  0.58348143  0.37735388  1
  Mn  Mn107  1  0.85768325  0.74944283  0.50196892  1
  Mn  Mn108  1  0.89309256  0.24927431  0.37697981  1
  Mn  Mn109  1  0.35738466  0.74970745  0.50181273  1
  Mn  Mn110  1  0.60919309  0.08298269  0.62262826  1
  Mn  Mn111  1  0.89166397  0.58339624  0.62646471  1
  Mn  Mn112  1  0.39173408  0.24984523  0.62625542  1
  Mn  Mn113  1  0.35715807  0.41640125  0.50135751  1
  Mn  Mn114  1  0.14255588  0.58266666  0.99812858  1
  Mn  Mn115  1  0.64246063  0.24909820  0.74752276  1
  Mn  Mn116  1  0.60763623  0.08292734  0.87248471  1
  Mn  Mn117  1  0.14353177  0.25016584  0.99808810  1
  Mn  Mn118  1  0.10863319  0.08282472  0.12210090  1
  Mn  Mn119  1  0.64137119  0.25022349  0.24690811  1
  Mn  Mn120  1  0.35662622  0.08379062  0.50258277  1
  Mn  Mn121  1  0.39183447  0.91625411  0.12767453  1
  Mn  Mn122  1  0.60751147  0.74980470  0.87236548  1
  Mn  Mn123  1  0.64268471  0.91596458  0.24760623  1
  Mn  Mn124  1  0.85875059  0.74959728  0.00282246  1
  Mn  Mn125  1  0.14248137  0.58340184  0.74852250  1
  Mn  Mn126  1  0.35752324  0.75061630  0.25210802  1
  Mn  Mn127  1  0.39207203  0.58376202  0.62646601  1
  Mn  Mn128  1  0.89211450  0.24960193  0.62646413  1
  Mn  Mn129  1  0.85848476  0.08408009  0.50166420  1
  Mn  Mn130  1  0.10751282  0.41766137  0.12262148  1
  Mn  Mn131  1  0.35726724  0.08282622  0.75128726  1
  Mn  Mn132  1  0.39223419  0.24961922  0.87749733  1
  Mn  Mn133  1  0.14121219  0.91615339  0.49752505  1
  Mn  Mn134  1  0.14275952  0.58310045  0.24688471  1
  Mn  Mn135  1  0.85796393  0.08379086  0.25214577  1
  Mn  Mn136  1  0.39280951  0.91649268  0.62730908  1
  Mn  Mn137  1  0.10778699  0.41752740  0.87350184  1
  Mn  Mn138  1  0.14206406  0.25014707  0.74809409  1
  Mn  Mn139  1  0.39186729  0.25031067  0.37806544  1
  Mn  Mn140  1  0.89177781  0.24999349  0.12780822  1
  Mn  Mn141  1  0.60818053  0.75002986  0.37222312  1
  Mn  Mn142  1  0.10756046  0.74998217  0.62343866  1
  Mn  Mn143  1  0.10805336  0.41640381  0.62347099  1
  Fe  Fe144  1  0.60778660  0.75020267  0.12370585  1
  Fe  Fe145  1  0.39233721  0.58390623  0.87674172  1
  Fe  Fe146  1  0.35869616  0.41604162  0.00249138  1
  Fe  Fe147  1  0.85737735  0.75012569  0.75146298  1
  Fe  Fe148  1  0.10660103  0.74920297  0.12372456  1
  Fe  Fe149  1  0.39352523  0.58402986  0.37684398  1
  Fe  Fe150  1  0.14211857  0.58277212  0.49786841  1
  Fe  Fe151  1  0.60632404  0.08320776  0.12358138  1
  Fe  Fe152  1  0.85777311  0.74925813  0.25125154  1
  Fe  Fe153  1  0.64381830  0.91663204  0.74880441  1
  Fe  Fe154  1  0.85600795  0.41702212  0.25196678  1
  Fe  Fe155  1  0.14242802  0.91724995  0.24854173  1
  Fe  Fe156  1  0.39219676  0.91617488  0.87621787  1
  Fe  Fe157  1  0.10664573  0.08306508  0.62404201  1
  Fe  Fe158  1  0.35770004  0.75002947  0.75176337  1
  Fe  Fe159  1  0.35798078  0.41621525  0.25229901  1
  Fe  Fe160  1  0.35707524  0.08306715  0.25205489  1
  Fe  Fe161  1  0.14253279  0.91720749  0.99792325  1
  Fe  Fe162  1  0.10694964  0.74935349  0.87284154  1
  Fe  Fe163  1  0.89373322  0.91686447  0.37599218  1
  Fe  Fe164  1  0.10767452  0.08276162  0.37250635  1
  Fe  Fe165  1  0.39318737  0.25009027  0.12671692  1
  Fe  Fe166  1  0.10765262  0.41679129  0.37202353  1
  Fe  Fe167  1  0.14372631  0.25006516  0.24756877  1
  Fe  Fe168  1  0.64369858  0.91700319  0.49774340  1
  Fe  Fe169  1  0.35803208  0.41709015  0.75169548  1
  Fe  Fe170  1  0.60641129  0.41655447  0.12305622  1
  Fe  Fe171  1  0.60656510  0.41720891  0.87349869  1
  Fe  Fe172  1  0.89377994  0.91605771  0.12678851  1
  Fe  Fe173  1  0.60714762  0.41704498  0.37294827  1
  Fe  Fe174  1  0.35784435  0.08309603  0.00200968  1
  Fe  Fe175  1  0.89230234  0.58386475  0.87649766  1
  Fe  Fe176  1  0.60817689  0.75010469  0.62393306  1
  Fe  Fe177  1  0.64139192  0.25008569  0.99902873  1
  Fe  Fe178  1  0.85825690  0.08304650  0.75169688  1
  Fe  Fe179  1  0.10713305  0.75013761  0.37267376  1
  Fe  Fe180  1  0.14155870  0.25097669  0.49765963  1
  Fe  Fe181  1  0.85606866  0.41601684  0.00209646  1
  Fe  Fe182  1  0.64199409  0.58339209  0.49796012  1
  Fe  Fe183  1  0.89217961  0.58398402  0.12739828  1
  Fe  Fe184  1  0.14274877  0.91621877  0.74874312  1
  Fe  Fe185  1  0.64214952  0.24989011  0.49860720  1
  Fe  Fe186  1  0.64256220  0.58404453  0.24754717  1
  Fe  Fe187  1  0.89246295  0.91690417  0.62749312  1
  Fe  Fe188  1  0.85736989  0.41676498  0.75238434  1
  Fe  Fe189  1  0.89347116  0.91622056  0.87650779  1
  Fe  Fe190  1  0.39209850  0.91578271  0.37684566  1
  Fe  Fe191  1  0.39367465  0.58338516  0.12697668  1
  P  P192  1  0.05463277  0.25044416  0.11075694  1
  P  P193  1  0.05585660  0.25022435  0.35975503  1
  P  P194  1  0.05374842  0.24944404  0.60959046  1
  P  P195  1  0.05306164  0.25069940  0.86054502  1
  P  P196  1  0.05164509  0.58373753  0.10983581  1
  P  P197  1  0.05482291  0.58310096  0.36069398  1
  P  P198  1  0.05362019  0.58318116  0.60928230  1
  P  P199  1  0.05193210  0.58370007  0.86031655  1
  P  P200  1  0.05445701  0.91561913  0.11053428  1
  P  P201  1  0.05314653  0.91645182  0.35951491  1
  P  P202  1  0.05308300  0.91691819  0.61182827  1
  P  P203  1  0.05458615  0.91582785  0.86084208  1
  P  P204  1  0.55221023  0.24989400  0.10974372  1
  P  P205  1  0.55443054  0.25069388  0.36098231  1
  P  P206  1  0.55372178  0.24993835  0.60918383  1
  P  P207  1  0.55449940  0.25088812  0.86134325  1
  P  P208  1  0.55369761  0.58356000  0.11137111  1
  P  P209  1  0.55457095  0.58288841  0.36012884  1
  P  P210  1  0.55421561  0.58452072  0.60983806  1
  P  P211  1  0.55182140  0.58244811  0.86036573  1
  P  P212  1  0.55322971  0.91651312  0.11019010  1
  P  P213  1  0.55327068  0.91668005  0.36088042  1
  P  P214  1  0.55622542  0.91568557  0.61065630  1
  P  P215  1  0.55276261  0.91667927  0.85916025  1
  P  P216  1  0.44562554  0.08392134  0.13965064  1
  P  P217  1  0.44456956  0.08210970  0.38915943  1
  P  P218  1  0.44740721  0.08350170  0.63978142  1
  P  P219  1  0.44557950  0.08177606  0.89026064  1
  P  P220  1  0.44612676  0.41624381  0.13956198  1
  P  P221  1  0.44669440  0.41787251  0.38877364  1
  P  P222  1  0.44612786  0.41668074  0.64011231  1
  P  P223  1  0.44567849  0.41757345  0.88954296  1
  P  P224  1  0.44807528  0.74960097  0.14019808  1
  P  P225  1  0.44665900  0.75005032  0.38987499  1
  P  P226  1  0.44753002  0.74999478  0.64038327  1
  P  P227  1  0.44498075  0.75048962  0.88868405  1
  P  P228  1  0.94724289  0.08281839  0.14006944  1
  P  P229  1  0.94862868  0.08257865  0.38951704  1
  P  P230  1  0.94723545  0.08281745  0.64059856  1
  P  P231  1  0.94552838  0.08242563  0.88928018  1
  P  P232  1  0.94409632  0.41758192  0.13981928  1
  P  P233  1  0.94676635  0.41642522  0.38844201  1
  P  P234  1  0.94591285  0.41649447  0.64027420  1
  P  P235  1  0.94425270  0.41755248  0.89013259  1
  P  P236  1  0.94733349  0.74971561  0.14014584  1
  P  P237  1  0.94670344  0.75064735  0.38854524  1
  P  P238  1  0.94576343  0.75056517  0.64042611  1
  P  P239  1  0.94618337  0.75022602  0.88872823  1
  P  P240  1  0.19651173  0.08303198  0.23639810  1
  P  P241  1  0.19365999  0.08384435  0.48561646  1
  P  P242  1  0.19575126  0.08190157  0.73444436  1
  P  P243  1  0.19850186  0.08289404  0.98517711  1
  P  P244  1  0.19719903  0.41628244  0.23556148  1
  P  P245  1  0.19550840  0.41707226  0.48384783  1
  P  P246  1  0.19848434  0.41741152  0.73550932  1
  P  P247  1  0.19900240  0.41695249  0.98546341  1
  P  P248  1  0.19470968  0.75092135  0.23524403  1
  P  P249  1  0.19535167  0.74901375  0.48406207  1
  P  P250  1  0.19679971  0.75044087  0.73662154  1
  P  P251  1  0.19389662  0.75015078  0.98610817  1
  P  P252  1  0.69589720  0.08275789  0.23388172  1
  P  P253  1  0.69711300  0.08274734  0.48449446  1
  P  P254  1  0.69882235  0.08181792  0.73543048  1
  P  P255  1  0.69488827  0.08413308  0.98644349  1
  P  P256  1  0.69489192  0.41815803  0.23524556  1
  P  P257  1  0.69543532  0.41692465  0.48432434  1
  P  P258  1  0.69675092  0.41729550  0.73698235  1
  P  P259  1  0.69469003  0.41603720  0.98591427  1
  P  P260  1  0.69774199  0.74940577  0.23400505  1
  P  P261  1  0.69549186  0.75040327  0.48610605  1
  P  P262  1  0.69770144  0.75111466  0.73506941  1
  P  P263  1  0.69582264  0.75004352  0.98587681  1
  P  P264  1  0.30489074  0.24968267  0.01604119  1
  P  P265  1  0.30443685  0.24993371  0.26381512  1
  P  P266  1  0.30078376  0.25023902  0.51469862  1
  P  P267  1  0.30336753  0.25051823  0.76469445  1
  P  P268  1  0.30573745  0.58288526  0.01514146  1
  P  P269  1  0.30624767  0.58287175  0.26405798  1
  P  P270  1  0.30287248  0.58339044  0.51324756  1
  P  P271  1  0.30431807  0.58398260  0.76550067  1
  P  P272  1  0.30302188  0.91708926  0.01411761  1
  P  P273  1  0.30236264  0.91709322  0.26576242  1
  P  P274  1  0.30380518  0.91610537  0.51417145  1
  P  P275  1  0.30272117  0.91555709  0.76533594  1
  P  P276  1  0.80115602  0.25119874  0.01569065  1
  P  P277  1  0.80280242  0.25115662  0.26511068  1
  P  P278  1  0.80168892  0.25020110  0.51446437  1
  P  P279  1  0.80353206  0.24967158  0.76512341  1
  P  P280  1  0.80530693  0.58259607  0.01460533  1
  P  P281  1  0.80337468  0.58367075  0.26351683  1
  P  P282  1  0.80126268  0.58305741  0.51456820  1
  P  P283  1  0.80396949  0.58388368  0.76573284  1
  P  P284  1  0.80597564  0.91649753  0.01479587  1
  P  P285  1  0.80597222  0.91538417  0.26398416  1
  P  P286  1  0.80507031  0.91688169  0.51395665  1
  P  P287  1  0.80468641  0.91636941  0.76466440  1
  O  O288  1  0.05967895  0.25041119  0.18752050  1
  O  O289  1  0.05900946  0.25057799  0.43663208  1
  O  O290  1  0.05636990  0.25062068  0.68643790  1
  O  O291  1  0.05684540  0.25084007  0.93732904  1
  O  O292  1  0.05603887  0.58268603  0.18670657  1
  O  O293  1  0.05854798  0.58283514  0.43737956  1
  O  O294  1  0.05655040  0.58309169  0.68614776  1
  O  O295  1  0.05599061  0.58284290  0.93689238  1
  O  O296  1  0.05901477  0.91700578  0.18726096  1
  O  O297  1  0.05578159  0.91645637  0.43620292  1
  O  O298  1  0.05795406  0.91603896  0.68851018  1
  O  O299  1  0.05902522  0.91690632  0.93755690  1
  O  O300  1  0.55539206  0.24990213  0.18653199  1
  O  O301  1  0.55892072  0.25004984  0.43770916  1
  O  O302  1  0.55672804  0.24960666  0.68607793  1
  O  O303  1  0.55815255  0.25010246  0.93810495  1
  O  O304  1  0.55815072  0.58383586  0.18802361  1
  O  O305  1  0.55899272  0.58360080  0.43688404  1
  O  O306  1  0.55708595  0.58382780  0.68662777  1
  O  O307  1  0.55563337  0.58285584  0.93711511  1
  O  O308  1  0.55619941  0.91657396  0.18693573  1
  O  O309  1  0.55863101  0.91675407  0.43750621  1
  O  O310  1  0.56058744  0.91673094  0.68739646  1
  O  O311  1  0.55687544  0.91676148  0.93589924  1
  O  O312  1  0.44116003  0.08288624  0.06290664  1
  O  O313  1  0.44030983  0.08288176  0.31231849  1
  O  O314  1  0.44359514  0.08348960  0.56299223  1
  O  O315  1  0.44254850  0.08254998  0.81348111  1
  O  O316  1  0.44208844  0.41614038  0.06276856  1
  O  O317  1  0.44207027  0.41665153  0.31208286  1
  O  O318  1  0.44300651  0.41674931  0.56326875  1
  O  O319  1  0.44135028  0.41673870  0.81280376  1
  O  O320  1  0.44407580  0.75031827  0.06338462  1
  O  O321  1  0.44346922  0.75036241  0.31320768  1
  O  O322  1  0.44350383  0.75003985  0.56364905  1
  O  O323  1  0.44128544  0.75082190  0.81198695  1
  O  O324  1  0.94388021  0.08393587  0.06327424  1
  O  O325  1  0.94453230  0.08357661  0.31286598  1
  O  O326  1  0.94401707  0.08334120  0.56383866  1
  O  O327  1  0.94152173  0.08334852  0.81249724  1
  O  O328  1  0.93974483  0.41631395  0.06305663  1
  O  O329  1  0.94090692  0.41671108  0.31184035  1
  O  O330  1  0.94304415  0.41643918  0.56343077  1
  O  O331  1  0.94030838  0.41645868  0.81328346  1
  O  O332  1  0.94445384  0.74962364  0.06391020  1
  O  O333  1  0.94202372  0.74940305  0.31186812  1
  O  O334  1  0.94308738  0.74995935  0.56361366  1
  O  O335  1  0.94155726  0.75021522  0.81182415  1
  O  O336  1  0.19494122  0.08316179  0.06192473  1
  O  O337  1  0.19182855  0.08266799  0.31309799  1
  O  O338  1  0.18960222  0.08263232  0.56239098  1
  O  O339  1  0.19357279  0.08258258  0.81129461  1
  O  O340  1  0.19446745  0.41754918  0.06213421  1
  O  O341  1  0.19196193  0.41721558  0.31214420  1
  O  O342  1  0.19318123  0.41723812  0.56069087  1
  O  O343  1  0.19455698  0.41748989  0.81218916  1
  O  O344  1  0.18966905  0.74906426  0.06288431  1
  O  O345  1  0.19065597  0.74993969  0.31199945  1
  O  O346  1  0.19270316  0.74992219  0.56093672  1
  O  O347  1  0.19177317  0.74965791  0.81331647  1
  O  O348  1  0.69013397  0.08323287  0.06315748  1
  O  O349  1  0.69266568  0.08255571  0.31066975  1
  O  O350  1  0.69488928  0.08252829  0.56131232  1
  O  O351  1  0.69481840  0.08224372  0.81213479  1
  O  O352  1  0.68972458  0.41694193  0.06267265  1
  O  O353  1  0.69031829  0.41734458  0.31193117  1
  O  O354  1  0.69334832  0.41694673  0.56119509  1
  O  O355  1  0.69163269  0.41769152  0.81362553  1
  O  O356  1  0.69090363  0.74993564  0.06276582  1
  O  O357  1  0.69391817  0.75026761  0.31076497  1
  O  O358  1  0.69212856  0.75027679  0.56284297  1
  O  O359  1  0.69402896  0.75050065  0.81182521  1
  O  O360  1  0.30940305  0.25014139  0.18717878  1
  O  O361  1  0.30508364  0.24994637  0.43798230  1
  O  O362  1  0.30569076  0.25007839  0.68791705  1
  O  O363  1  0.30715878  0.24982835  0.93918375  1
  O  O364  1  0.31079260  0.58380336  0.18727459  1
  O  O365  1  0.30826759  0.58375153  0.43662350  1
  O  O366  1  0.30655301  0.58430651  0.68864235  1
  O  O367  1  0.30953285  0.58376805  0.93836070  1
  O  O368  1  0.30601811  0.91611313  0.18896077  1
  O  O369  1  0.30821704  0.91593043  0.43742225  1
  O  O370  1  0.30638354  0.91583339  0.68857189  1
  O  O371  1  0.30790515  0.91616117  0.93754057  1
  O  O372  1  0.80589620  0.25042889  0.18834477  1
  O  O373  1  0.80602497  0.24995219  0.43778996  1
  O  O374  1  0.80631429  0.24975934  0.68832954  1
  O  O375  1  0.80507855  0.25038583  0.93900234  1
  O  O376  1  0.80791001  0.58382349  0.18682889  1
  O  O377  1  0.80546011  0.58340906  0.43784016  1
  O  O378  1  0.80617678  0.58367739  0.68890528  1
  O  O379  1  0.80937693  0.58403456  0.93779876  1
  O  O380  1  0.81018654  0.91620103  0.18722732  1
  O  O381  1  0.81018872  0.91685827  0.43725032  1
  O  O382  1  0.80870225  0.91657237  0.68782626  1
  O  O383  1  0.81019925  0.91615724  0.93790981  1
  O  O384  1  0.23540393  0.24996244  0.04188729  1
  O  O385  1  0.23399197  0.24981879  0.28732164  1
  O  O386  1  0.23068743  0.25080333  0.53881524  1
  O  O387  1  0.23390814  0.24992497  0.79074897  1
  O  O388  1  0.23570928  0.58336266  0.03954347  1
  O  O389  1  0.23578311  0.58333347  0.28715338  1
  O  O390  1  0.23257370  0.58322028  0.53693228  1
  O  O391  1  0.23481556  0.58354495  0.79152770  1
  O  O392  1  0.23267198  0.91680900  0.03793454  1
  O  O393  1  0.23219889  0.91693481  0.29006645  1
  O  O394  1  0.23368095  0.91581134  0.53798090  1
  O  O395  1  0.23268137  0.91642201  0.79002108  1
  O  O396  1  0.73115085  0.25100905  0.04029677  1
  O  O397  1  0.73295398  0.25063284  0.28969525  1
  O  O398  1  0.73168581  0.25006762  0.53905936  1
  O  O399  1  0.73390812  0.24977585  0.79069426  1
  O  O400  1  0.73502933  0.58276313  0.03831058  1
  O  O401  1  0.73305629  0.58386671  0.28738872  1
  O  O402  1  0.73127394  0.58294361  0.53906059  1
  O  O403  1  0.73444007  0.58394978  0.79172513  1
  O  O404  1  0.73569498  0.91652558  0.03835746  1
  O  O405  1  0.73582679  0.91621690  0.28798889  1
  O  O406  1  0.73460153  0.91663122  0.53719876  1
  O  O407  1  0.73447559  0.91644664  0.78916784  1
  O  O408  1  0.26688870  0.08295315  0.21260384  1
  O  O409  1  0.26374544  0.08348667  0.46145281  1
  O  O410  1  0.26520507  0.08289295  0.70851842  1
  O  O411  1  0.26844413  0.08314206  0.96040973  1
  O  O412  1  0.26773056  0.41667194  0.21249261  1
  O  O413  1  0.26509882  0.41663617  0.45809504  1
  O  O414  1  0.26845111  0.41762155  0.71071279  1
  O  O415  1  0.26930897  0.41643762  0.96181548  1
  O  O416  1  0.26474613  0.75037324  0.21105339  1
  O  O417  1  0.26500789  0.74968190  0.45871424  1
  O  O418  1  0.26701578  0.74990523  0.71252865  1
  O  O419  1  0.26422716  0.74991484  0.96264075  1
  O  O420  1  0.76576015  0.08326704  0.20924042  1
  O  O421  1  0.76653729  0.08306303  0.45838154  1
  O  O422  1  0.76881827  0.08223624  0.71069491  1
  O  O423  1  0.76504548  0.08367981  0.96268222  1
  O  O424  1  0.76530300  0.41740797  0.21173952  1
  O  O425  1  0.76493959  0.41724633  0.45830540  1
  O  O426  1  0.76710796  0.41708442  0.71327357  1
  O  O427  1  0.76521742  0.41676790  0.96279489  1
  O  O428  1  0.76781064  0.74945556  0.20957918  1
  O  O429  1  0.76527680  0.75031791  0.46093001  1
  O  O430  1  0.76773199  0.75025242  0.71042688  1
  O  O431  1  0.76587919  0.75025423  0.96264848  1
  O  O432  1  0.01702615  0.08265858  0.16484422  1
  O  O433  1  0.01871666  0.08260717  0.41383537  1
  O  O434  1  0.01718376  0.08319729  0.66554963  1
  O  O435  1  0.01547875  0.08253855  0.91380456  1
  O  O436  1  0.01432436  0.41708980  0.16362656  1
  O  O437  1  0.01731185  0.41644083  0.41125453  1
  O  O438  1  0.01562355  0.41668540  0.66553019  1
  O  O439  1  0.01427093  0.41738610  0.91454439  1
  O  O440  1  0.01741986  0.74970273  0.16534871  1
  O  O441  1  0.01697566  0.75063712  0.41246519  1
  O  O442  1  0.01540536  0.75002935  0.66575194  1
  O  O443  1  0.01647988  0.75013818  0.91257273  1
  O  O444  1  0.51601802  0.08324460  0.16344654  1
  O  O445  1  0.51464787  0.08260363  0.41313278  1
  O  O446  1  0.51715038  0.08307142  0.66465876  1
  O  O447  1  0.51534388  0.08280718  0.91520942  1
  O  O448  1  0.51658825  0.41653815  0.16334572  1
  O  O449  1  0.51696517  0.41774157  0.41259349  1
  O  O450  1  0.51589331  0.41713240  0.66509774  1
  O  O451  1  0.51591216  0.41702400  0.91372623  1
  O  O452  1  0.51810471  0.75003769  0.16485210  1
  O  O453  1  0.51640489  0.74998280  0.41483691  1
  O  O454  1  0.51769973  0.75011694  0.66463114  1
  O  O455  1  0.51492070  0.74982888  0.91335269  1
  O  O456  1  0.48218443  0.25022635  0.08496478  1
  O  O457  1  0.48434822  0.25011017  0.33702748  1
  O  O458  1  0.48416996  0.25030828  0.58362844  1
  O  O459  1  0.48452417  0.25014236  0.83686321  1
  O  O460  1  0.48336770  0.58297058  0.08734841  1
  O  O461  1  0.48422569  0.58369023  0.33648146  1
  O  O462  1  0.48453454  0.58371993  0.58449841  1
  O  O463  1  0.48185383  0.58361613  0.83580930  1
  O  O464  1  0.48354541  0.91632885  0.08486320  1
  O  O465  1  0.48290523  0.91633800  0.33729876  1
  O  O466  1  0.48601367  0.91627794  0.58681005  1
  O  O467  1  0.48258431  0.91638159  0.83506875  1
  O  O468  1  0.98443356  0.25048189  0.08719731  1
  O  O469  1  0.98589893  0.24993130  0.33506076  1
  O  O470  1  0.98420609  0.24981407  0.58381101  1
  O  O471  1  0.98325064  0.25027365  0.83596018  1
  O  O472  1  0.98155007  0.58405356  0.08587061  1
  O  O473  1  0.98484562  0.58316945  0.33624742  1
  O  O474  1  0.98396500  0.58339536  0.58392005  1
  O  O475  1  0.98184780  0.58355011  0.83587401  1
  O  O476  1  0.98405242  0.91576235  0.08691488  1
  O  O477  1  0.98322537  0.91631918  0.33431338  1
  O  O478  1  0.98277505  0.91666770  0.58792132  1
  O  O479  1  0.98419031  0.91621725  0.83720879  1
  O  O480  1  0.08795012  0.31555230  0.07757500  1
  O  O481  1  0.08970452  0.31522343  0.32666413  1
  O  O482  1  0.08840263  0.31425755  0.57695451  1
  O  O483  1  0.08674690  0.31584045  0.82779080  1
  O  O484  1  0.08565808  0.64877782  0.07766649  1
  O  O485  1  0.08838513  0.64842976  0.32794731  1
  O  O486  1  0.08810131  0.64817875  0.57711523  1
  O  O487  1  0.08559193  0.64892031  0.82758204  1
  O  O488  1  0.08795199  0.98037754  0.07649367  1
  O  O489  1  0.08722223  0.98149495  0.32676168  1
  O  O490  1  0.08628459  0.98209209  0.57877770  1
  O  O491  1  0.08823107  0.98056084  0.82721735  1
  O  O492  1  0.58641199  0.31492055  0.07725829  1
  O  O493  1  0.58748637  0.31608502  0.32798667  1
  O  O494  1  0.58835618  0.31500072  0.57730361  1
  O  O495  1  0.58763286  0.31637752  0.82876298  1
  O  O496  1  0.58674863  0.64867716  0.07785622  1
  O  O497  1  0.58850923  0.64768261  0.32664371  1
  O  O498  1  0.58809607  0.64990511  0.57773035  1
  O  O499  1  0.58625203  0.64725736  0.82770904  1
  O  O500  1  0.58704633  0.98181534  0.07775904  1
  O  O501  1  0.58643066  0.98160191  0.32721813  1
  O  O502  1  0.59015238  0.98031422  0.57690006  1
  O  O503  1  0.58656519  0.98170314  0.82622127  1
  O  O504  1  0.41167302  0.01921235  0.17319612  1
  O  O505  1  0.41126746  0.01681277  0.42186886  1
  O  O506  1  0.41314634  0.01847994  0.67217920  1
  O  O507  1  0.41196961  0.01630907  0.92257879  1
  O  O508  1  0.41292699  0.35109448  0.17289173  1
  O  O509  1  0.41332592  0.35297341  0.42249110  1
  O  O510  1  0.41218312  0.35158963  0.67265622  1
  O  O511  1  0.41198973  0.35262863  0.92304033  1
  O  O512  1  0.41438109  0.68453081  0.17268204  1
  O  O513  1  0.41285458  0.68457913  0.42219292  1
  O  O514  1  0.41355911  0.68497951  0.67304593  1
  O  O515  1  0.41098547  0.68550669  0.92148904  1
  O  O516  1  0.91325787  0.01750981  0.17193974  1
  O  O517  1  0.91488844  0.01740686  0.42193565  1
  O  O518  1  0.91329143  0.01773304  0.67321191  1
  O  O519  1  0.91197258  0.01707366  0.92156935  1
  O  O520  1  0.91016125  0.35299289  0.17354497  1
  O  O521  1  0.91390356  0.35128815  0.42207711  1
  O  O522  1  0.91169446  0.35146886  0.67270795  1
  O  O523  1  0.91029511  0.35275515  0.92369179  1
  O  O524  1  0.91313666  0.68478529  0.17330111  1
  O  O525  1  0.91336642  0.68573431  0.42236213  1
  O  O526  1  0.91109235  0.68569910  0.67274488  1
  O  O527  1  0.91276929  0.68523270  0.92188537  1
  O  O528  1  0.16329679  0.01790053  0.20302020  1
  O  O529  1  0.15998484  0.01889042  0.45208064  1
  O  O530  1  0.16185260  0.01637364  0.70258557  1
  O  O531  1  0.16441966  0.01790242  0.95269133  1
  O  O532  1  0.16420361  0.35112070  0.20237946  1
  O  O533  1  0.16085570  0.35208227  0.45176973  1
  O  O534  1  0.16459754  0.35228604  0.70287483  1
  O  O535  1  0.16520966  0.35198044  0.95270368  1
  O  O536  1  0.16076514  0.68605785  0.20171508  1
  O  O537  1  0.16128263  0.68387912  0.45190300  1
  O  O538  1  0.16311372  0.68561563  0.70316453  1
  O  O539  1  0.16042685  0.68532167  0.95229486  1
  O  O540  1  0.66200078  0.01770382  0.20124201  1
  O  O541  1  0.66297783  0.01745870  0.45225990  1
  O  O542  1  0.66517447  0.01672020  0.70274470  1
  O  O543  1  0.66166458  0.01914972  0.95270674  1
  O  O544  1  0.66101064  0.35340357  0.20169896  1
  O  O545  1  0.66113065  0.35175511  0.45218038  1
  O  O546  1  0.66337494  0.35229727  0.70365188  1
  O  O547  1  0.66161163  0.35085076  0.95285514  1
  O  O548  1  0.66350383  0.68442039  0.20150924  1
  O  O549  1  0.66168427  0.68526051  0.45329701  1
  O  O550  1  0.66307953  0.68636764  0.70239893  1
  O  O551  1  0.66262679  0.68483260  0.95261264  1
  O  O552  1  0.33960079  0.31465621  0.04818326  1
  O  O553  1  0.33745547  0.31512566  0.29740092  1
  O  O554  1  0.33490159  0.31523482  0.54705694  1
  O  O555  1  0.33757695  0.31569770  0.79678278  1
  O  O556  1  0.33969324  0.64780683  0.04842854  1
  O  O557  1  0.33958573  0.64779099  0.29771229  1
  O  O558  1  0.33599546  0.64835596  0.54706731  1
  O  O559  1  0.33852738  0.64906554  0.79796254  1
  O  O560  1  0.33632864  0.98221831  0.04722026  1
  O  O561  1  0.33638671  0.98210172  0.29814470  1
  O  O562  1  0.33703163  0.98127158  0.54734014  1
  O  O563  1  0.33716833  0.98045830  0.79790953  1
  O  O564  1  0.83498592  0.31634087  0.04809163  1
  O  O565  1  0.83645309  0.31650228  0.29736238  1
  O  O566  1  0.83534198  0.31529612  0.54720306  1
  O  O567  1  0.83754790  0.31487222  0.79750793  1
  O  O568  1  0.83897245  0.64725885  0.04827406  1
  O  O569  1  0.83687101  0.64870228  0.29687779  1
  O  O570  1  0.83506580  0.64806928  0.54740701  1
  O  O571  1  0.83832697  0.64916886  0.79776230  1
  O  O572  1  0.83951779  0.98154156  0.04783383  1
  O  O573  1  0.84007210  0.98009004  0.29748509  1
  O  O574  1  0.83825839  0.98196644  0.54747358  1
  O  O575  1  0.83860677  0.98119153  0.79779316  1
  O  O576  1  0.41265351  0.14933260  0.17261439  1
  O  O577  1  0.41102553  0.14723447  0.42236914  1
  O  O578  1  0.41356842  0.14863259  0.67224715  1
  O  O579  1  0.41093123  0.14650250  0.92304169  1
  O  O580  1  0.41259908  0.48122734  0.17265593  1
  O  O581  1  0.41346196  0.48321478  0.42154585  1
  O  O582  1  0.41166973  0.48163429  0.67242539  1
  O  O583  1  0.41244627  0.48280240  0.92252069  1
  O  O584  1  0.41393326  0.81450113  0.17297586  1
  O  O585  1  0.41262240  0.81505711  0.42254780  1
  O  O586  1  0.41347527  0.81486726  0.67331565  1
  O  O587  1  0.41169701  0.81579010  0.92192569  1
  O  O588  1  0.91333982  0.14778084  0.17306951  1
  O  O589  1  0.91509351  0.14762778  0.42285390  1
  O  O590  1  0.91296395  0.14775823  0.67320955  1
  O  O591  1  0.91181286  0.14736058  0.92270742  1
  O  O592  1  0.91088544  0.48313618  0.17246341  1
  O  O593  1  0.91370742  0.48143405  0.42223490  1
  O  O594  1  0.91148536  0.48151976  0.67253219  1
  O  O595  1  0.91039555  0.48280296  0.92234067  1
  O  O596  1  0.91337546  0.81482683  0.17296837  1
  O  O597  1  0.91336655  0.81590933  0.42127629  1
  O  O598  1  0.91164882  0.81566732  0.67276361  1
  O  O599  1  0.91311282  0.81533828  0.92201353  1
  O  O600  1  0.08795993  0.18522058  0.07769698  1
  O  O601  1  0.08989610  0.18498253  0.32737917  1
  O  O602  1  0.08786041  0.18402833  0.57802592  1
  O  O603  1  0.08712720  0.18554441  0.82823217  1
  O  O604  1  0.08507250  0.51869806  0.07651416  1
  O  O605  1  0.08846664  0.51818250  0.32719368  1
  O  O606  1  0.08795416  0.51817996  0.57694804  1
  O  O607  1  0.08567311  0.51874565  0.82716146  1
  O  O608  1  0.08767195  0.85029406  0.07789798  1
  O  O609  1  0.08740351  0.85150822  0.32697224  1
  O  O610  1  0.08643556  0.85204539  0.57808046  1
  O  O611  1  0.08779007  0.85054853  0.82776710  1
  O  O612  1  0.58605156  0.18476755  0.07717770  1
  O  O613  1  0.58806499  0.18582478  0.32757921  1
  O  O614  1  0.58811943  0.18495956  0.57677351  1
  O  O615  1  0.58837162  0.18599868  0.82813679  1
  O  O616  1  0.58700658  0.51834752  0.07826372  1
  O  O617  1  0.58769185  0.51776384  0.32688084  1
  O  O618  1  0.58881803  0.51974384  0.57721449  1
  O  O619  1  0.58516329  0.51720339  0.82766074  1
  O  O620  1  0.58750700  0.85141241  0.07789262  1
  O  O621  1  0.58680899  0.85169986  0.32747237  1
  O  O622  1  0.58936841  0.85019429  0.57794260  1
  O  O623  1  0.58700007  0.85180244  0.82643290  1
  O  O624  1  0.33913586  0.18443482  0.04806371  1
  O  O625  1  0.33741977  0.18476362  0.29720759  1
  O  O626  1  0.33418351  0.18519365  0.54786284  1
  O  O627  1  0.33797864  0.18550942  0.79683168  1
  O  O628  1  0.33954375  0.51769399  0.04762453  1
  O  O629  1  0.33939482  0.51766376  0.29710558  1
  O  O630  1  0.33625729  0.51833829  0.54646652  1
  O  O631  1  0.33915626  0.51896760  0.79735500  1
  O  O632  1  0.33614174  0.85210552  0.04810060  1
  O  O633  1  0.33632375  0.85211537  0.29872605  1
  O  O634  1  0.33738296  0.85115543  0.54736271  1
  O  O635  1  0.33631747  0.85047984  0.79831325  1
  O  O636  1  0.83521296  0.18630084  0.04864018  1
  O  O637  1  0.83698721  0.18610023  0.29768515  1
  O  O638  1  0.83567328  0.18518153  0.54723938  1
  O  O639  1  0.83750550  0.18437650  0.79738419  1
  O  O640  1  0.83849684  0.51720150  0.04719916  1
  O  O641  1  0.83650230  0.51840312  0.29682737  1
  O  O642  1  0.83519966  0.51807273  0.54713075  1
  O  O643  1  0.83847827  0.51893787  0.79797660  1
  O  O644  1  0.83951932  0.85167417  0.04804541  1
  O  O645  1  0.83896018  0.84984271  0.29681918  1
  O  O646  1  0.83840065  0.85197905  0.54759019  1
  O  O647  1  0.83814408  0.85102970  0.79756232  1
  O  O648  1  0.16343196  0.14819507  0.20309842  1
  O  O649  1  0.16026555  0.14911038  0.45291298  1
  O  O650  1  0.16046782  0.14653892  0.70241872  1
  O  O651  1  0.16459135  0.14798091  0.95254423  1
  O  O652  1  0.16407411  0.48132218  0.20163683  1
  O  O653  1  0.16140194  0.48218089  0.45136536  1
  O  O654  1  0.16449221  0.48231246  0.70266598  1
  O  O655  1  0.16571461  0.48204223  0.95212175  1
  O  O656  1  0.16126048  0.81628899  0.20283808  1
  O  O657  1  0.16064068  0.81390073  0.45164092  1
  O  O658  1  0.16361095  0.81575661  0.70351234  1
  O  O659  1  0.16059689  0.81544539  0.95330836  1
  O  O660  1  0.66127647  0.14768538  0.20163456  1
  O  O661  1  0.66238702  0.14783894  0.45280443  1
  O  O662  1  0.66473683  0.14679952  0.70265467  1
  O  O663  1  0.66177288  0.14953722  0.95365404  1
  O  O664  1  0.66196056  0.48341994  0.20197095  1
  O  O665  1  0.66079108  0.48194165  0.45217338  1
  O  O666  1  0.66365662  0.48236366  0.70345435  1
  O  O667  1  0.66127115  0.48091172  0.95205920  1
  O  O668  1  0.66374870  0.81434830  0.20103982  1
  O  O669  1  0.66194778  0.81567118  0.45314668  1
  O  O670  1  0.66415706  0.81633370  0.70244648  1
  O  O671  1  0.66231274  0.81497941  0.95265241  1
