# generated using pymatgen
data_Na2MnFe(PO4)2
_symmetry_space_group_name_H-M   'P 1'
_cell_length_a   21.08498887
_cell_length_b   18.93800168
_cell_length_c   20.04403873
_cell_angle_alpha   89.99970820
_cell_angle_beta   90.00056319
_cell_angle_gamma   89.99898380
_symmetry_Int_Tables_number   1
_chemical_formula_structural   Na2MnFe(PO4)2
_chemical_formula_sum   'Na96 Mn48 Fe48 P96 O384'
_cell_volume   8003.73608535
_cell_formula_units_Z   48
loop_
 _symmetry_equiv_pos_site_id
 _symmetry_equiv_pos_as_xyz
  1  'x, y, z'
loop_
 _atom_site_type_symbol
 _atom_site_label
 _atom_site_symmetry_multiplicity
 _atom_site_fract_x
 _atom_site_fract_y
 _atom_site_fract_z
 _atom_site_occupancy
  Na  Na0  1  0.00075070  -0.00022517  -0.00062817  1
  Na  Na1  1  0.00023339  0.00002952  0.24987042  1
  Na  Na2  1  -0.00214946  -0.00102859  0.50136101  1
  Na  Na3  1  -0.00004492  0.00025792  0.74940132  1
  Na  Na4  1  0.00139260  0.33415088  -0.00111559  1
  Na  Na5  1  0.00195930  0.33419664  0.24949343  1
  Na  Na6  1  0.00213627  0.33476214  0.50027023  1
  Na  Na7  1  0.00135214  0.33402918  0.75089048  1
  Na  Na8  1  -0.00147921  0.66640458  -0.00004551  1
  Na  Na9  1  -0.00155690  0.66646880  0.24895004  1
  Na  Na10  1  -0.00052174  0.66660731  0.50070994  1
  Na  Na11  1  -0.00123244  0.66608220  0.75055929  1
  Na  Na12  1  0.49919751  -0.00159622  -0.00008507  1
  Na  Na13  1  0.50217724  0.00013021  0.25004916  1
  Na  Na14  1  0.49912595  -0.00099958  0.49973330  1
  Na  Na15  1  0.49919138  -0.00096451  0.75057278  1
  Na  Na16  1  0.50208730  0.33450293  -0.00150041  1
  Na  Na17  1  0.50037992  0.33412363  0.25003100  1
  Na  Na18  1  0.49898360  0.33371126  0.50157225  1
  Na  Na19  1  0.49936622  0.33360631  0.74993298  1
  Na  Na20  1  0.49977676  0.66665858  -0.00056743  1
  Na  Na21  1  0.50095396  0.66715044  0.24906403  1
  Na  Na22  1  0.50030834  0.66712575  0.50031135  1
  Na  Na23  1  0.49869239  0.66641287  0.75116106  1
  Na  Na24  1  0.25149737  0.00018749  0.12386806  1
  Na  Na25  1  0.24979690  -0.00092567  0.37432990  1
  Na  Na26  1  0.25051919  -0.00000122  0.62576026  1
  Na  Na27  1  0.24880741  -0.00139036  0.87553037  1
  Na  Na28  1  0.24775616  0.33343052  0.12465276  1
  Na  Na29  1  0.24978785  0.33382919  0.37510781  1
  Na  Na30  1  0.25104647  0.33463520  0.62503136  1
  Na  Na31  1  0.24921203  0.33404523  0.87587249  1
  Na  Na32  1  0.24739085  0.66638105  0.12504585  1
  Na  Na33  1  0.24666669  0.66626586  0.37507747  1
  Na  Na34  1  0.24889408  0.66672742  0.62452544  1
  Na  Na35  1  0.25074936  0.66730627  0.87606782  1
  Na  Na36  1  0.74929381  -0.00127953  0.12499553  1
  Na  Na37  1  0.75041690  -0.00114539  0.37456093  1
  Na  Na38  1  0.75347613  0.00090556  0.62531418  1
  Na  Na39  1  0.75045223  -0.00035062  0.87440802  1
  Na  Na40  1  0.74851365  0.33369605  0.12546812  1
  Na  Na41  1  0.74847746  0.33313528  0.37376439  1
  Na  Na42  1  0.74964801  0.33383746  0.62510736  1
  Na  Na43  1  0.74758673  0.33336752  0.87594474  1
  Na  Na44  1  0.75192015  0.66675254  0.12512651  1
  Na  Na45  1  0.75310757  0.66711588  0.37456110  1
  Na  Na46  1  0.75320302  0.66687780  0.62548470  1
  Na  Na47  1  0.75223186  0.66686147  0.87407304  1
  Na  Na48  1  0.00112797  0.16604364  -0.00091197  1
  Na  Na49  1  -0.00123436  0.16749923  0.24990344  1
  Na  Na50  1  -0.00126105  0.16718490  0.50085167  1
  Na  Na51  1  -0.00011880  0.16665964  0.74994960  1
  Na  Na52  1  0.00175391  0.49985668  -0.00045043  1
  Na  Na53  1  0.00113710  0.49995769  0.24919144  1
  Na  Na54  1  -0.00043661  0.50085098  0.50144537  1
  Na  Na55  1  -0.00025685  0.50065190  0.75102240  1
  Na  Na56  1  -0.00153275  0.83330575  -0.00032878  1
  Na  Na57  1  0.00094272  0.83191128  0.24917565  1
  Na  Na58  1  -0.00012421  0.83302397  0.50001248  1
  Na  Na59  1  -0.00006747  0.83287722  0.74995502  1
  Na  Na60  1  0.50133531  0.16655170  -0.00051753  1
  Na  Na61  1  0.49836189  0.16751734  0.24990180  1
  Na  Na62  1  0.49789952  0.16754456  0.50137394  1
  Na  Na63  1  0.50008008  0.16732392  0.74979907  1
  Na  Na64  1  0.50221106  0.49924656  -0.00111732  1
  Na  Na65  1  0.50258605  0.49931423  0.24987491  1
  Na  Na66  1  0.49931871  0.50026970  0.50049255  1
  Na  Na67  1  0.49883642  0.50078825  0.75036536  1
  Na  Na68  1  0.49898633  0.83299959  -0.00001205  1
  Na  Na69  1  0.50119015  0.83285332  0.24898613  1
  Na  Na70  1  0.50115438  0.83236105  0.49998698  1
  Na  Na71  1  0.49834686  0.83320482  0.75127435  1
  Na  Na72  1  0.24852794  0.16795799  0.12453197  1
  Na  Na73  1  0.25239017  0.16584639  0.37463107  1
  Na  Na74  1  0.25118073  0.16649997  0.62552501  1
  Na  Na75  1  0.25032991  0.16667025  0.87485064  1
  Na  Na76  1  0.24657656  0.50108947  0.12450663  1
  Na  Na77  1  0.24872818  0.49949389  0.37496157  1
  Na  Na78  1  0.24963636  0.49980970  0.62546015  1
  Na  Na79  1  0.24832341  0.50046982  0.87598261  1
  Na  Na80  1  0.24899717  0.83347055  0.12528912  1
  Na  Na81  1  0.24718713  0.83341614  0.37436587  1
  Na  Na82  1  0.24912765  0.83292151  0.62454493  1
  Na  Na83  1  0.25118506  0.83211160  0.87633947  1
  Na  Na84  1  0.74972011  0.16711440  0.12560265  1
  Na  Na85  1  0.75214067  0.16606029  0.37420274  1
  Na  Na86  1  0.75145147  0.16667125  0.62516047  1
  Na  Na87  1  0.74920233  0.16737086  0.87557125  1
  Na  Na88  1  0.74916105  0.50072602  0.12496415  1
  Na  Na89  1  0.75009342  0.50078057  0.37407227  1
  Na  Na90  1  0.75248819  0.49946591  0.62503011  1
  Na  Na91  1  0.75009179  0.50035775  0.87516959  1
  Na  Na92  1  0.75080227  0.83221849  0.12504854  1
  Na  Na93  1  0.75023825  0.83317000  0.37462069  1
  Na  Na94  1  0.75279790  0.83162314  0.62578510  1
  Na  Na95  1  0.74981130  0.83346871  0.87414890  1
  Mn  Mn96  1  0.60795804  0.08361433  0.12228623  1
  Mn  Mn97  1  0.39253849  0.91644039  0.37654309  1
  Mn  Mn98  1  0.60787639  0.41743202  0.62313313  1
  Mn  Mn99  1  0.85816975  0.08270548  0.25193948  1
  Mn  Mn100  1  0.85857659  0.41648284  0.50194835  1
  Mn  Mn101  1  0.14197580  0.24952154  0.24778462  1
  Mn  Mn102  1  0.89211285  0.25083273  0.62794885  1
  Mn  Mn103  1  0.64319633  0.58314770  0.74799787  1
  Mn  Mn104  1  0.89243853  0.91627321  0.37724543  1
  Mn  Mn105  1  0.39148230  0.91603760  0.62730675  1
  Mn  Mn106  1  0.14230842  0.91673469  0.99796797  1
  Mn  Mn107  1  0.10744301  0.08341357  0.62250252  1
  Mn  Mn108  1  0.89249316  0.25108905  0.37751508  1
  Mn  Mn109  1  0.85708818  0.41673233  0.00237891  1
  Mn  Mn110  1  0.14109649  0.58307010  0.49771450  1
  Mn  Mn111  1  0.10742348  0.08326555  0.12246636  1
  Mn  Mn112  1  0.39203431  0.58310774  0.12716370  1
  Mn  Mn113  1  0.14296284  0.25021496  0.74767116  1
  Mn  Mn114  1  0.39109301  0.58406092  0.62751335  1
  Mn  Mn115  1  0.89225867  0.25049778  0.87762142  1
  Mn  Mn116  1  0.85763560  0.08299184  0.00243717  1
  Mn  Mn117  1  0.39209096  0.25015108  0.62787325  1
  Mn  Mn118  1  0.35748274  0.08330743  0.00202877  1
  Mn  Mn119  1  0.14145739  0.91747803  0.49794430  1
  Mn  Mn120  1  0.60791124  0.08342362  0.37350641  1
  Mn  Mn121  1  0.35793757  0.08315739  0.25215691  1
  Mn  Mn122  1  0.35645511  0.74950077  0.25212235  1
  Mn  Mn123  1  0.64228187  0.24977684  0.49724923  1
  Mn  Mn124  1  0.35692768  0.41722113  0.00233298  1
  Mn  Mn125  1  0.60833126  0.74935123  0.12187307  1
  Mn  Mn126  1  0.14291795  0.24940554  0.49799934  1
  Mn  Mn127  1  0.35738307  0.74988328  0.50133750  1
  Mn  Mn128  1  0.89246300  0.91649883  0.87729381  1
  Mn  Mn129  1  0.64334965  0.58373609  0.49800941  1
  Mn  Mn130  1  0.64292197  0.58398449  0.24789721  1
  Mn  Mn131  1  0.64272558  0.91700991  0.74752178  1
  Mn  Mn132  1  0.10762193  0.75020937  0.87264906  1
  Mn  Mn133  1  0.39219701  0.25018229  0.12641106  1
  Mn  Mn134  1  0.10803153  0.08327828  0.37301643  1
  Mn  Mn135  1  0.60772278  0.08307178  0.87235858  1
  Mn  Mn136  1  0.35758030  0.08297863  0.75327549  1
  Mn  Mn137  1  0.64351138  0.91628749  0.49845737  1
  Mn  Mn138  1  0.39182318  0.58330146  0.37648353  1
  Mn  Mn139  1  0.64149803  0.24926265  0.24794055  1
  Mn  Mn140  1  0.60846446  0.08284634  0.62261128  1
  Mn  Mn141  1  0.60841024  0.74986785  0.62350811  1
  Mn  Mn142  1  0.85826395  0.41696484  0.25190228  1
  Mn  Mn143  1  0.35727900  0.41754432  0.25153454  1
  Fe  Fe144  1  0.39331783  0.25037232  0.87710249  1
  Fe  Fe145  1  0.10563565  0.74977078  0.12304456  1
  Fe  Fe146  1  0.85669165  0.75009976  0.00119844  1
  Fe  Fe147  1  0.39219706  0.91621805  0.87707279  1
  Fe  Fe148  1  0.10753854  0.08342671  0.87261354  1
  Fe  Fe149  1  0.60684589  0.41743363  0.87249660  1
  Fe  Fe150  1  0.10675574  0.41672360  0.12306108  1
  Fe  Fe151  1  0.60791274  0.41690252  0.12300400  1
  Fe  Fe152  1  0.85756317  0.08411763  0.75220457  1
  Fe  Fe153  1  0.64305152  0.25011360  0.74880637  1
  Fe  Fe154  1  0.89203164  0.91655384  0.12657131  1
  Fe  Fe155  1  0.89361855  0.58311532  0.62734989  1
  Fe  Fe156  1  0.10789041  0.41727766  0.37332762  1
  Fe  Fe157  1  0.39215967  0.58326982  0.87719394  1
  Fe  Fe158  1  0.14292285  0.91572831  0.74869284  1
  Fe  Fe159  1  0.35797945  0.08305950  0.50169334  1
  Fe  Fe160  1  0.85855603  0.75033121  0.50194196  1
  Fe  Fe161  1  0.89361268  0.58280413  0.37644377  1
  Fe  Fe162  1  0.89305570  0.58280789  0.12602135  1
  Fe  Fe163  1  0.14182711  0.58373954  0.99783977  1
  Fe  Fe164  1  0.60884978  0.74936472  0.37335421  1
  Fe  Fe165  1  0.89257399  0.25034575  0.12565277  1
  Fe  Fe166  1  0.10676160  0.74969378  0.62408888  1
  Fe  Fe167  1  0.35701922  0.74952986  0.00217597  1
  Fe  Fe168  1  0.35717781  0.41684268  0.50144379  1
  Fe  Fe169  1  0.60693548  0.41706976  0.37414292  1
  Fe  Fe170  1  0.14077597  0.58398612  0.24781306  1
  Fe  Fe171  1  0.85832540  0.74989524  0.75238567  1
  Fe  Fe172  1  0.89326154  0.58276243  0.87710831  1
  Fe  Fe173  1  0.64260421  0.91595672  0.99829085  1
  Fe  Fe174  1  0.35674348  0.74943735  0.75170540  1
  Fe  Fe175  1  0.85784100  0.75031905  0.25180854  1
  Fe  Fe176  1  0.10713941  0.41666430  0.87261690  1
  Fe  Fe177  1  0.60667511  0.74936260  0.87341235  1
  Fe  Fe178  1  0.14280706  0.58422049  0.74912061  1
  Fe  Fe179  1  0.64240468  0.24992277  0.99815650  1
  Fe  Fe180  1  0.35665736  0.41778853  0.75231841  1
  Fe  Fe181  1  0.64319708  0.58410189  0.99759123  1
  Fe  Fe182  1  0.85807324  0.08316102  0.50166771  1
  Fe  Fe183  1  0.14194337  0.91656122  0.24731237  1
  Fe  Fe184  1  0.10624997  0.74971920  0.37308480  1
  Fe  Fe185  1  0.89308705  0.91602858  0.62720880  1
  Fe  Fe186  1  0.14166916  0.25015909  0.99766446  1
  Fe  Fe187  1  0.39235747  0.25069391  0.37669199  1
  Fe  Fe188  1  0.85789378  0.41610557  0.75226909  1
  Fe  Fe189  1  0.64306552  0.91610114  0.24819321  1
  Fe  Fe190  1  0.10747676  0.41712476  0.62402633  1
  Fe  Fe191  1  0.39326620  0.91639799  0.12718871  1
  P  P192  1  0.05256875  0.25053959  0.10907528  1
  P  P193  1  0.05352669  0.25061654  0.36024771  1
  P  P194  1  0.05369865  0.25111357  0.61043421  1
  P  P195  1  0.05469874  0.24996993  0.86081206  1
  P  P196  1  0.05358297  0.58393209  0.11030131  1
  P  P197  1  0.05261989  0.58363067  0.35956755  1
  P  P198  1  0.05397904  0.58354191  0.61240521  1
  P  P199  1  0.05416367  0.58316521  0.86072577  1
  P  P200  1  0.05250852  0.91559598  0.11078611  1
  P  P201  1  0.05360642  0.91596484  0.35930942  1
  P  P202  1  0.05335071  0.91551425  0.61172063  1
  P  P203  1  0.05414162  0.91707207  0.85922960  1
  P  P204  1  0.55380150  0.25103121  0.10900959  1
  P  P205  1  0.55182908  0.25077550  0.36061565  1
  P  P206  1  0.55495469  0.25027104  0.61141889  1
  P  P207  1  0.55435774  0.25101698  0.86035266  1
  P  P208  1  0.55430768  0.58289834  0.10878095  1
  P  P209  1  0.55372078  0.58347171  0.36022434  1
  P  P210  1  0.55324802  0.58368934  0.61020645  1
  P  P211  1  0.55356365  0.58387189  0.86126883  1
  P  P212  1  0.55438193  0.91611014  0.11011833  1
  P  P213  1  0.55484692  0.91544079  0.35946313  1
  P  P214  1  0.55322950  0.91620132  0.61001011  1
  P  P215  1  0.55346972  0.91500771  0.86146196  1
  P  P216  1  0.44671219  0.08240731  0.13959467  1
  P  P217  1  0.44629130  0.08391712  0.39057395  1
  P  P218  1  0.44569866  0.08283055  0.63978730  1
  P  P219  1  0.44652760  0.08351126  0.88994163  1
  P  P220  1  0.44803023  0.41698652  0.13945040  1
  P  P221  1  0.44687623  0.41657006  0.39035257  1
  P  P222  1  0.44446321  0.41735991  0.64027764  1
  P  P223  1  0.44578404  0.41717454  0.88852296  1
  P  P224  1  0.44531980  0.75021606  0.13869485  1
  P  P225  1  0.44836288  0.74982161  0.38935305  1
  P  P226  1  0.44589979  0.74990369  0.64125859  1
  P  P227  1  0.44488181  0.74934606  0.88954885  1
  P  P228  1  0.94638672  0.08340093  0.13931367  1
  P  P229  1  0.94650343  0.08326570  0.39088858  1
  P  P230  1  0.94462655  0.08287332  0.63979519  1
  P  P231  1  0.94678174  0.08346356  0.88890465  1
  P  P232  1  0.94763188  0.41670163  0.13896649  1
  P  P233  1  0.94868783  0.41787839  0.38975990  1
  P  P234  1  0.94757592  0.41736342  0.64115273  1
  P  P235  1  0.94659576  0.41739312  0.88905697  1
  P  P236  1  0.94473259  0.74981659  0.13845709  1
  P  P237  1  0.94621353  0.74906484  0.38911826  1
  P  P238  1  0.94608779  0.74973727  0.63958795  1
  P  P239  1  0.94489848  0.74906453  0.88962557  1
  P  P240  1  0.19666824  0.08238411  0.23445088  1
  P  P241  1  0.19846584  0.08345812  0.48491843  1
  P  P242  1  0.19548571  0.08225025  0.73617114  1
  P  P243  1  0.19553825  0.08399278  0.98416618  1
  P  P244  1  0.19406929  0.41764005  0.23513180  1
  P  P245  1  0.19593432  0.41654394  0.48584517  1
  P  P246  1  0.19593966  0.41803774  0.73610069  1
  P  P247  1  0.19344592  0.41709862  0.98577237  1
  P  P248  1  0.19320972  0.74990679  0.23535225  1
  P  P249  1  0.19389880  0.75006064  0.48534788  1
  P  P250  1  0.19694148  0.74972407  0.73510600  1
  P  P251  1  0.19577750  0.74948297  0.98662557  1
  P  P252  1  0.69651103  0.08218839  0.23509686  1
  P  P253  1  0.69902608  0.08296381  0.48498736  1
  P  P254  1  0.69804667  0.08416397  0.73520946  1
  P  P255  1  0.69656397  0.08283138  0.98496174  1
  P  P256  1  0.69480659  0.41692513  0.23551916  1
  P  P257  1  0.69675425  0.41723674  0.48410931  1
  P  P258  1  0.69697649  0.41653625  0.73640002  1
  P  P259  1  0.69440612  0.41738396  0.98558229  1
  P  P260  1  0.69710310  0.75024276  0.23582127  1
  P  P261  1  0.69878511  0.74963671  0.48479509  1
  P  P262  1  0.69751149  0.74945995  0.73649268  1
  P  P263  1  0.69725742  0.74949787  0.98404287  1
  P  P264  1  0.30256731  0.25060210  0.01367072  1
  P  P265  1  0.30385437  0.25081461  0.26526913  1
  P  P266  1  0.30512288  0.25025680  0.51388521  1
  P  P267  1  0.30421956  0.25137031  0.76616725  1
  P  P268  1  0.30270671  0.58384511  0.01419810  1
  P  P269  1  0.30052484  0.58355025  0.26477496  1
  P  P270  1  0.30262863  0.58269266  0.51467868  1
  P  P271  1  0.30231771  0.58366374  0.76594091  1
  P  P272  1  0.30543164  0.91551115  0.01468768  1
  P  P273  1  0.30270794  0.91593956  0.26358524  1
  P  P274  1  0.30308174  0.91683552  0.51466930  1
  P  P275  1  0.30253189  0.91512326  0.76588672  1
  P  P276  1  0.80211053  0.25043034  0.01558344  1
  P  P277  1  0.80465831  0.25038964  0.26361031  1
  P  P278  1  0.80352277  0.24999295  0.51502401  1
  P  P279  1  0.80253939  0.25066303  0.76556251  1
  P  P280  1  0.80408636  0.58388741  0.01401506  1
  P  P281  1  0.80624809  0.58395207  0.26397569  1
  P  P282  1  0.80645716  0.58401628  0.51440064  1
  P  P283  1  0.80646700  0.58263370  0.76453828  1
  P  P284  1  0.80259441  0.91550212  0.01501668  1
  P  P285  1  0.80386972  0.91548955  0.26363061  1
  P  P286  1  0.80504663  0.91593524  0.51569170  1
  P  P287  1  0.80536030  0.91665207  0.76384900  1
  O  O288  1  0.05610621  0.24980027  0.18579663  1
  O  O289  1  0.05668134  0.24982809  0.43701437  1
  O  O290  1  0.05701433  0.25012293  0.68719666  1
  O  O291  1  0.05825629  0.24985027  0.93758919  1
  O  O292  1  0.05738230  0.58408039  0.18702224  1
  O  O293  1  0.05548661  0.58349163  0.43636274  1
  O  O294  1  0.05855711  0.58378248  0.68904346  1
  O  O295  1  0.05842805  0.58423220  0.93745676  1
  O  O296  1  0.05727002  0.91631834  0.18741369  1
  O  O297  1  0.05605890  0.91694300  0.43618606  1
  O  O298  1  0.05839940  0.91609217  0.68831787  1
  O  O299  1  0.05697150  0.91601550  0.93606334  1
  O  O300  1  0.55624022  0.25007574  0.18584489  1
  O  O301  1  0.55541047  0.24993655  0.43736271  1
  O  O302  1  0.55974622  0.25017461  0.68818927  1
  O  O303  1  0.55921746  0.25006303  0.93704855  1
  O  O304  1  0.55761926  0.58422280  0.18554590  1
  O  O305  1  0.55656143  0.58386676  0.43695228  1
  O  O306  1  0.55690379  0.58357110  0.68698846  1
  O  O307  1  0.55860884  0.58400549  0.93785557  1
  O  O308  1  0.55950911  0.91595382  0.18677540  1
  O  O309  1  0.55787293  0.91582707  0.43626377  1
  O  O310  1  0.55664289  0.91639439  0.68685278  1
  O  O311  1  0.55867591  0.91557950  0.93810380  1
  O  O312  1  0.44359569  0.08292326  0.06282243  1
  O  O313  1  0.44354889  0.08301023  0.31371823  1
  O  O314  1  0.44125695  0.08271656  0.56302466  1
  O  O315  1  0.44383380  0.08355503  0.81312564  1
  O  O316  1  0.44373435  0.41725827  0.06275975  1
  O  O317  1  0.44332409  0.41738148  0.31360937  1
  O  O318  1  0.44013682  0.41742693  0.56352815  1
  O  O319  1  0.44090756  0.41759424  0.81188860  1
  O  O320  1  0.44090011  0.74926916  0.06197352  1
  O  O321  1  0.44378651  0.74974487  0.31267085  1
  O  O322  1  0.44245610  0.74979364  0.56449540  1
  O  O323  1  0.44022554  0.74939480  0.81286955  1
  O  O324  1  0.94389759  0.08287269  0.06247334  1
  O  O325  1  0.94346119  0.08316525  0.31406005  1
  O  O326  1  0.94056297  0.08365920  0.56299702  1
  O  O327  1  0.94150656  0.08386371  0.81224676  1
  O  O328  1  0.94395153  0.41695820  0.06229215  1
  O  O329  1  0.94481395  0.41698760  0.31310231  1
  O  O330  1  0.94408659  0.41651416  0.56445223  1
  O  O331  1  0.94180615  0.41637397  0.81244904  1
  O  O332  1  0.94035759  0.75024010  0.06173647  1
  O  O333  1  0.94197158  0.75020865  0.31238880  1
  O  O334  1  0.94242433  0.75005954  0.56283138  1
  O  O335  1  0.94126322  0.74993774  0.81281502  1
  O  O336  1  0.19265761  0.08352788  0.06099586  1
  O  O337  1  0.19386728  0.08270046  0.31121841  1
  O  O338  1  0.19405684  0.08357905  0.56164186  1
  O  O339  1  0.19140516  0.08299045  0.81291464  1
  O  O340  1  0.18935305  0.41689699  0.06262082  1
  O  O341  1  0.19044977  0.41702597  0.31198402  1
  O  O342  1  0.19112835  0.41696505  0.56255640  1
  O  O343  1  0.19111661  0.41721139  0.81281734  1
  O  O344  1  0.19041972  0.75005419  0.06318603  1
  O  O345  1  0.18947128  0.74971580  0.31216608  1
  O  O346  1  0.18972868  0.74987250  0.56213325  1
  O  O347  1  0.19366437  0.74973452  0.81186553  1
  O  O348  1  0.69387979  0.08284286  0.06173362  1
  O  O349  1  0.69363708  0.08299848  0.31187354  1
  O  O350  1  0.69522777  0.08324941  0.56169511  1
  O  O351  1  0.69372279  0.08329035  0.81191399  1
  O  O352  1  0.69111613  0.41745815  0.06241693  1
  O  O353  1  0.69026574  0.41696231  0.31223567  1
  O  O354  1  0.69364787  0.41745784  0.56094627  1
  O  O355  1  0.69157993  0.41759758  0.81306709  1
  O  O356  1  0.69416524  0.74918364  0.06086309  1
  O  O357  1  0.69251916  0.74944812  0.31244415  1
  O  O358  1  0.69481890  0.74911635  0.56152258  1
  O  O359  1  0.69161804  0.74938530  0.81299982  1
  O  O360  1  0.30665890  0.25111336  0.18840942  1
  O  O361  1  0.30860028  0.25049595  0.43708861  1
  O  O362  1  0.30688431  0.25051982  0.68931110  1
  O  O363  1  0.30838918  0.25076144  0.93710751  1
  O  O364  1  0.30499554  0.58350716  0.18809928  1
  O  O365  1  0.30571775  0.58326346  0.43791347  1
  O  O366  1  0.30539874  0.58349914  0.68921989  1
  O  O367  1  0.30805744  0.58311570  0.93757400  1
  O  O368  1  0.30817132  0.91602216  0.18697552  1
  O  O369  1  0.30623258  0.91596000  0.43788861  1
  O  O370  1  0.30587417  0.91594251  0.68916460  1
  O  O371  1  0.30945329  0.91605858  0.93786357  1
  O  O372  1  0.80927179  0.25106546  0.18686614  1
  O  O373  1  0.80657541  0.25092784  0.43820709  1
  O  O374  1  0.80616337  0.25108242  0.68886984  1
  O  O375  1  0.80631501  0.25087170  0.93889194  1
  O  O376  1  0.81025577  0.58262658  0.18715705  1
  O  O377  1  0.81022079  0.58295620  0.43758925  1
  O  O378  1  0.81039818  0.58261754  0.68769697  1
  O  O379  1  0.80892153  0.58268802  0.93735414  1
  O  O380  1  0.80850706  0.91599229  0.18693716  1
  O  O381  1  0.80717366  0.91575915  0.43883648  1
  O  O382  1  0.80938467  0.91608025  0.68711832  1
  O  O383  1  0.80650374  0.91641669  0.93832897  1
  O  O384  1  0.23204532  0.25081476  0.03675468  1
  O  O385  1  0.23415382  0.25004828  0.29034142  1
  O  O386  1  0.23541902  0.25041348  0.53926394  1
  O  O387  1  0.23440824  0.25060300  0.79093699  1
  O  O388  1  0.23218102  0.58358667  0.03732884  1
  O  O389  1  0.23038116  0.58341333  0.28884871  1
  O  O390  1  0.23295375  0.58304106  0.53987515  1
  O  O391  1  0.23224134  0.58392734  0.79074906  1
  O  O392  1  0.23519864  0.91666684  0.03842315  1
  O  O393  1  0.23228061  0.91574187  0.28686869  1
  O  O394  1  0.23343347  0.91685194  0.54000655  1
  O  O395  1  0.23246724  0.91520362  0.79055976  1
  O  O396  1  0.73185157  0.25046631  0.03940310  1
  O  O397  1  0.73456889  0.24965226  0.28758262  1
  O  O398  1  0.73394470  0.25029534  0.54039824  1
  O  O399  1  0.73253595  0.25040181  0.79037317  1
  O  O400  1  0.73366936  0.58365012  0.03755432  1
  O  O401  1  0.73616035  0.58393559  0.28794010  1
  O  O402  1  0.73656584  0.58329324  0.53913522  1
  O  O403  1  0.73635755  0.58318123  0.78860482  1
  O  O404  1  0.73238837  0.91550399  0.03920536  1
  O  O405  1  0.73373704  0.91576220  0.28776436  1
  O  O406  1  0.73560258  0.91582274  0.54172770  1
  O  O407  1  0.73538085  0.91676414  0.78827528  1
  O  O408  1  0.26621581  0.08341491  0.20886022  1
  O  O409  1  0.26845045  0.08286015  0.46051815  1
  O  O410  1  0.26553000  0.08303652  0.71207878  1
  O  O411  1  0.26531589  0.08279314  0.95927591  1
  O  O412  1  0.26397955  0.41726725  0.21040777  1
  O  O413  1  0.26626414  0.41664870  0.46215110  1
  O  O414  1  0.26640160  0.41753098  0.71273229  1
  O  O415  1  0.26362085  0.41727402  0.96195532  1
  O  O416  1  0.26320891  0.74994285  0.21095833  1
  O  O417  1  0.26389097  0.74978665  0.46104014  1
  O  O418  1  0.26697301  0.74962883  0.71035631  1
  O  O419  1  0.26618221  0.74964121  0.96321563  1
  O  O420  1  0.76608675  0.08267921  0.20965262  1
  O  O421  1  0.76901005  0.08261839  0.46024630  1
  O  O422  1  0.76825256  0.08393532  0.71123405  1
  O  O423  1  0.76619390  0.08312535  0.95942225  1
  O  O424  1  0.76498152  0.41725876  0.21167247  1
  O  O425  1  0.76649839  0.41707958  0.45907164  1
  O  O426  1  0.76737376  0.41679702  0.71289263  1
  O  O427  1  0.76448395  0.41711600  0.96119792  1
  O  O428  1  0.76737153  0.74964154  0.21187739  1
  O  O429  1  0.76897948  0.75018041  0.46061829  1
  O  O430  1  0.76815850  0.74913306  0.71374460  1
  O  O431  1  0.76737023  0.74983976  0.95948587  1
  O  O432  1  0.01586822  0.08358963  0.16512117  1
  O  O433  1  0.01612704  0.08296873  0.41622198  1
  O  O434  1  0.01479785  0.08371552  0.66359137  1
  O  O435  1  0.01716006  0.08302958  0.91225938  1
  O  O436  1  0.01772850  0.41720968  0.16354943  1
  O  O437  1  0.01866832  0.41806081  0.41453856  1
  O  O438  1  0.01767147  0.41724333  0.66572703  1
  O  O439  1  0.01698355  0.41718720  0.91248027  1
  O  O440  1  0.01511628  0.74931804  0.16222164  1
  O  O441  1  0.01643196  0.74974594  0.41327135  1
  O  O442  1  0.01630777  0.74932198  0.66410639  1
  O  O443  1  0.01493200  0.74974100  0.91375912  1
  O  O444  1  0.51632701  0.08330982  0.16486662  1
  O  O445  1  0.51594884  0.08331780  0.41604126  1
  O  O446  1  0.51566249  0.08295185  0.66406927  1
  O  O447  1  0.51616215  0.08284486  0.91531692  1
  O  O448  1  0.51811491  0.41694358  0.16365519  1
  O  O449  1  0.51691699  0.41702997  0.41518305  1
  O  O450  1  0.51461750  0.41735964  0.66410791  1
  O  O451  1  0.51630055  0.41717078  0.91183675  1
  O  O452  1  0.51553003  0.74990260  0.16233270  1
  O  O453  1  0.51851322  0.74970930  0.41361237  1
  O  O454  1  0.51566624  0.74984823  0.66617352  1
  O  O455  1  0.51533129  0.74939190  0.91326247  1
  O  O456  1  0.48424293  0.25060392  0.08335218  1
  O  O457  1  0.48191967  0.25084117  0.33561294  1
  O  O458  1  0.48473881  0.25066628  0.58806361  1
  O  O459  1  0.48388936  0.25076338  0.83695129  1
  O  O460  1  0.48450151  0.58315308  0.08392729  1
  O  O461  1  0.48422225  0.58333605  0.33422906  1
  O  O462  1  0.48348029  0.58380897  0.58554101  1
  O  O463  1  0.48309852  0.58360658  0.83778058  1
  O  O464  1  0.48395458  0.91578077  0.08683130  1
  O  O465  1  0.48507207  0.91620416  0.33432546  1
  O  O466  1  0.48360733  0.91570452  0.58497636  1
  O  O467  1  0.48289431  0.91559158  0.83826394  1
  O  O468  1  0.98252365  0.25005303  0.08418050  1
  O  O469  1  0.98395368  0.25086279  0.33480435  1
  O  O470  1  0.98399104  0.25113191  0.58550089  1
  O  O471  1  0.98480574  0.25035916  0.83614496  1
  O  O472  1  0.98320512  0.58362229  0.08622910  1
  O  O473  1  0.98276202  0.58332002  0.33430849  1
  O  O474  1  0.98372259  0.58358756  0.58833104  1
  O  O475  1  0.98381168  0.58342255  0.83712715  1
  O  O476  1  0.98220524  0.91597417  0.08678304  1
  O  O477  1  0.98393602  0.91619072  0.33402303  1
  O  O478  1  0.98301148  0.91573030  0.58800516  1
  O  O479  1  0.98439502  0.91659059  0.83439134  1
  O  O480  1  0.08636279  0.31579709  0.07675244  1
  O  O481  1  0.08777917  0.31576172  0.32832921  1
  O  O482  1  0.08781831  0.31645486  0.57876906  1
  O  O483  1  0.08851076  0.31522281  0.82828185  1
  O  O484  1  0.08681019  0.64905996  0.07689845  1
  O  O485  1  0.08625780  0.64888722  0.32696848  1
  O  O486  1  0.08716060  0.64846308  0.57881903  1
  O  O487  1  0.08765680  0.64800353  0.82704662  1
  O  O488  1  0.08617851  0.98044815  0.07743192  1
  O  O489  1  0.08821626  0.98071888  0.32668696  1
  O  O490  1  0.08642522  0.98059241  0.57794787  1
  O  O491  1  0.08826824  0.98211337  0.82708647  1
  O  O492  1  0.58802620  0.31623352  0.07712620  1
  O  O493  1  0.58598607  0.31582582  0.32838994  1
  O  O494  1  0.58828430  0.31534060  0.57830644  1
  O  O495  1  0.58762023  0.31627884  0.82733678  1
  O  O496  1  0.58862389  0.64773342  0.07570616  1
  O  O497  1  0.58810498  0.64843757  0.32763243  1
  O  O498  1  0.58743468  0.64866434  0.57773679  1
  O  O499  1  0.58664934  0.64905132  0.82783953  1
  O  O500  1  0.58755006  0.98114459  0.07661692  1
  O  O501  1  0.58940560  0.98038565  0.32708971  1
  O  O502  1  0.58711491  0.98129371  0.57743252  1
  O  O503  1  0.58678184  0.97992097  0.82772824  1
  O  O504  1  0.41317450  0.01696768  0.17198576  1
  O  O505  1  0.41167047  0.01897986  0.42293485  1
  O  O506  1  0.41203123  0.01780431  0.67286022  1
  O  O507  1  0.41200827  0.01848610  0.92183543  1
  O  O508  1  0.41417535  0.35196968  0.17206039  1
  O  O509  1  0.41308449  0.35140139  0.42289958  1
  O  O510  1  0.41082266  0.35245748  0.67352464  1
  O  O511  1  0.41280154  0.35194083  0.92192124  1
  O  O512  1  0.41183381  0.68530457  0.17221210  1
  O  O513  1  0.41439352  0.68488261  0.42221303  1
  O  O514  1  0.41154362  0.68500754  0.67397951  1
  O  O515  1  0.41147668  0.68416163  0.92285625  1
  O  O516  1  0.91227504  0.01822674  0.17165190  1
  O  O517  1  0.91206301  0.01824346  0.42306490  1
  O  O518  1  0.91159772  0.01746741  0.67256683  1
  O  O519  1  0.91346789  0.01840045  0.92219662  1
  O  O520  1  0.91428861  0.35143486  0.17166749  1
  O  O521  1  0.91501889  0.35296260  0.42302698  1
  O  O522  1  0.91350017  0.35253510  0.67434233  1
  O  O523  1  0.91319316  0.35264260  0.92282788  1
  O  O524  1  0.91128966  0.68467559  0.17143450  1
  O  O525  1  0.91315117  0.68368098  0.42189231  1
  O  O526  1  0.91227632  0.68473061  0.67248264  1
  O  O527  1  0.91146993  0.68378591  0.92223971  1
  O  O528  1  0.16282179  0.01712644  0.20205272  1
  O  O529  1  0.16415223  0.01864151  0.45232815  1
  O  O530  1  0.16243898  0.01674195  0.70344556  1
  O  O531  1  0.16075860  0.01916538  0.95191077  1
  O  O532  1  0.16007707  0.35268363  0.20209390  1
  O  O533  1  0.16261525  0.35159941  0.45246428  1
  O  O534  1  0.16248590  0.35327970  0.70226342  1
  O  O535  1  0.15996249  0.35214048  0.95246862  1
  O  O536  1  0.15945648  0.68480011  0.20236801  1
  O  O537  1  0.15991976  0.68513017  0.45235017  1
  O  O538  1  0.16288015  0.68460881  0.70256296  1
  O  O539  1  0.16261977  0.68449848  0.95306056  1
  O  O540  1  0.66263723  0.01688573  0.20301435  1
  O  O541  1  0.66506185  0.01783479  0.45271982  1
  O  O542  1  0.66452179  0.01908167  0.70208852  1
  O  O543  1  0.66271011  0.01751964  0.95266067  1
  O  O544  1  0.66125215  0.35188963  0.20236057  1
  O  O545  1  0.66227066  0.35232602  0.45173947  1
  O  O546  1  0.66377692  0.35132222  0.70350642  1
  O  O547  1  0.66045416  0.35238236  0.95282060  1
  O  O548  1  0.66357599  0.68543102  0.20212828  1
  O  O549  1  0.66534938  0.68460431  0.45146902  1
  O  O550  1  0.66466517  0.68450929  0.70257328  1
  O  O551  1  0.66349199  0.68441167  0.95117767  1
  O  O552  1  0.33563066  0.31554349  0.04747902  1
  O  O553  1  0.33760020  0.31604126  0.29782435  1
  O  O554  1  0.33886410  0.31547593  0.54657217  1
  O  O555  1  0.33785985  0.31674470  0.79833219  1
  O  O556  1  0.33575006  0.64892945  0.04753750  1
  O  O557  1  0.33410625  0.64854297  0.29786302  1
  O  O558  1  0.33668962  0.64778845  0.54719641  1
  O  O559  1  0.33649662  0.64867020  0.79841711  1
  O  O560  1  0.33958831  0.98027405  0.04771912  1
  O  O561  1  0.33594066  0.98101518  0.29693068  1
  O  O562  1  0.33728809  0.98188485  0.54691287  1
  O  O563  1  0.33666147  0.97997575  0.79893098  1
  O  O564  1  0.83593104  0.31534361  0.04867241  1
  O  O565  1  0.83760313  0.31560603  0.29715284  1
  O  O566  1  0.83770938  0.31501419  0.54769804  1
  O  O567  1  0.83623978  0.31573615  0.79852152  1
  O  O568  1  0.83740893  0.64914539  0.04679482  1
  O  O569  1  0.83991974  0.64918540  0.29645753  1
  O  O570  1  0.83993525  0.64949669  0.54682440  1
  O  O571  1  0.84049752  0.64750757  0.79746824  1
  O  O572  1  0.83655221  0.98032787  0.04820960  1
  O  O573  1  0.83741940  0.98035735  0.29698300  1
  O  O574  1  0.83958092  0.98097679  0.54761115  1
  O  O575  1  0.83880293  0.98194441  0.79661403  1
  O  O576  1  0.41217292  0.14738627  0.17167071  1
  O  O577  1  0.41226596  0.14923293  0.42248502  1
  O  O578  1  0.41199378  0.14790714  0.67270942  1
  O  O579  1  0.41284160  0.14898549  0.92219139  1
  O  O580  1  0.41436789  0.48197424  0.17262351  1
  O  O581  1  0.41253022  0.48140016  0.42322910  1
  O  O582  1  0.41073265  0.48230037  0.67351955  1
  O  O583  1  0.41265211  0.48219287  0.92224807  1
  O  O584  1  0.41206543  0.81549789  0.17158994  1
  O  O585  1  0.41470448  0.81491095  0.42225016  1
  O  O586  1  0.41157471  0.81475807  0.67391000  1
  O  O587  1  0.41142100  0.81430723  0.92294816  1
  O  O588  1  0.91215829  0.14872957  0.17094791  1
  O  O589  1  0.91221118  0.14828625  0.42319741  1
  O  O590  1  0.91068856  0.14766933  0.67325617  1
  O  O591  1  0.91367344  0.14846410  0.92247406  1
  O  O592  1  0.91377747  0.48168292  0.17176202  1
  O  O593  1  0.91475641  0.48293922  0.42218288  1
  O  O594  1  0.91362894  0.48243799  0.67351844  1
  O  O595  1  0.91356980  0.48267036  0.92219794  1
  O  O596  1  0.91165147  0.81481197  0.17226632  1
  O  O597  1  0.91237580  0.81369440  0.42281052  1
  O  O598  1  0.91259404  0.81468381  0.67297222  1
  O  O599  1  0.91078869  0.81376120  0.92286241  1
  O  O600  1  0.08701598  0.18579308  0.07624888  1
  O  O601  1  0.08731236  0.18542801  0.32753724  1
  O  O602  1  0.08764576  0.18610676  0.57753753  1
  O  O603  1  0.08818448  0.18483538  0.82790156  1
  O  O604  1  0.08732747  0.51903313  0.07731447  1
  O  O605  1  0.08713871  0.51889502  0.32707543  1
  O  O606  1  0.08710189  0.51826716  0.57916389  1
  O  O607  1  0.08764147  0.51809825  0.82778143  1
  O  O608  1  0.08564169  0.85038785  0.07756912  1
  O  O609  1  0.08755145  0.85064294  0.32738442  1
  O  O610  1  0.08640884  0.85034206  0.57860488  1
  O  O611  1  0.08841538  0.85206673  0.82659520  1
  O  O612  1  0.58848754  0.18622097  0.07649628  1
  O  O613  1  0.58567880  0.18567579  0.32774474  1
  O  O614  1  0.58787911  0.18509400  0.57794679  1
  O  O615  1  0.58784303  0.18611465  0.82671200  1
  O  O616  1  0.58845931  0.51772749  0.07684819  1
  O  O617  1  0.58800296  0.51820938  0.32830710  1
  O  O618  1  0.58720368  0.51867095  0.57762201  1
  O  O619  1  0.58695405  0.51885046  0.82779470  1
  O  O620  1  0.58789334  0.85122307  0.07648407  1
  O  O621  1  0.58881092  0.85026099  0.32696142  1
  O  O622  1  0.58767761  0.85120230  0.57792087  1
  O  O623  1  0.58631215  0.84971000  0.82818260  1
  O  O624  1  0.33546253  0.18536421  0.04707420  1
  O  O625  1  0.33872664  0.18604095  0.29737085  1
  O  O626  1  0.33880764  0.18494294  0.54645890  1
  O  O627  1  0.33889816  0.18664155  0.79874753  1
  O  O628  1  0.33567856  0.51878791  0.04797818  1
  O  O629  1  0.33446544  0.51854601  0.29743897  1
  O  O630  1  0.33654146  0.51755652  0.54701359  1
  O  O631  1  0.33625248  0.51870329  0.79893353  1
  O  O632  1  0.33828499  0.85014798  0.04771840  1
  O  O633  1  0.33582389  0.85099683  0.29735417  1
  O  O634  1  0.33688618  0.85159208  0.54724676  1
  O  O635  1  0.33651697  0.84997674  0.79822204  1
  O  O636  1  0.83599596  0.18536343  0.04810020  1
  O  O637  1  0.83856480  0.18543403  0.29629826  1
  O  O638  1  0.83761856  0.18479435  0.54696251  1
  O  O639  1  0.83652392  0.18552515  0.79801381  1
  O  O640  1  0.83759247  0.51914758  0.04800591  1
  O  O641  1  0.83984709  0.51917993  0.29770805  1
  O  O642  1  0.84077258  0.51941697  0.54777083  1
  O  O643  1  0.83966967  0.51740727  0.79779823  1
  O  O644  1  0.83643196  0.85034010  0.04747030  1
  O  O645  1  0.83722813  0.85031144  0.29669425  1
  O  O646  1  0.83965081  0.85085108  0.54776425  1
  O  O647  1  0.83882839  0.85157382  0.79702965  1
  O  O648  1  0.16206172  0.14738559  0.20235044  1
  O  O649  1  0.16513440  0.14862538  0.45191349  1
  O  O650  1  0.16177182  0.14713669  0.70284513  1
  O  O651  1  0.16185761  0.14924626  0.95181586  1
  O  O652  1  0.16016722  0.48277915  0.20257738  1
  O  O653  1  0.16228136  0.48141854  0.45236258  1
  O  O654  1  0.16286483  0.48337651  0.70312223  1
  O  O655  1  0.15988238  0.48226358  0.95284528  1
  O  O656  1  0.15934878  0.81489860  0.20230542  1
  O  O657  1  0.16019802  0.81500391  0.45231946  1
  O  O658  1  0.16279348  0.81466111  0.70240786  1
  O  O659  1  0.16271211  0.81449053  0.95288078  1
  O  O660  1  0.66208450  0.14714577  0.20269089  1
  O  O661  1  0.66524051  0.14797742  0.45206073  1
  O  O662  1  0.66453548  0.14939184  0.70274718  1
  O  O663  1  0.66228609  0.14801156  0.95291885  1
  O  O664  1  0.66124284  0.48186901  0.20217607  1
  O  O665  1  0.66263865  0.48227026  0.45162832  1
  O  O666  1  0.66386235  0.48148456  0.70253286  1
  O  O667  1  0.66092096  0.48255570  0.95243425  1
  O  O668  1  0.66390040  0.81536979  0.20260235  1
  O  O669  1  0.66460415  0.81454136  0.45221627  1
  O  O670  1  0.66483389  0.81463421  0.70276509  1
  O  O671  1  0.66297129  0.81443852  0.95166486  1
