# generated using pymatgen
data_Na2MnFe(PO4)2
_symmetry_space_group_name_H-M   'P 1'
_cell_length_a   21.08104799
_cell_length_b   18.93234956
_cell_length_c   20.04074835
_cell_angle_alpha   89.99966651
_cell_angle_beta   89.99854371
_cell_angle_gamma   89.99878350
_symmetry_Int_Tables_number   1
_chemical_formula_structural   Na2MnFe(PO4)2
_chemical_formula_sum   'Na96 Mn48 Fe48 P96 O384'
_cell_volume   7998.53861576
_cell_formula_units_Z   48
loop_
 _symmetry_equiv_pos_site_id
 _symmetry_equiv_pos_as_xyz
  1  'x, y, z'
loop_
 _atom_site_type_symbol
 _atom_site_label
 _atom_site_symmetry_multiplicity
 _atom_site_fract_x
 _atom_site_fract_y
 _atom_site_fract_z
 _atom_site_occupancy
  Na  Na0  1  -0.00163746  0.00005931  -0.00046530  1
  Na  Na1  1  -0.00275896  -0.00126339  0.25082684  1
  Na  Na2  1  0.00019817  0.00048870  0.49907167  1
  Na  Na3  1  -0.00230558  -0.00079302  0.75051203  1
  Na  Na4  1  -0.00199049  0.33250746  0.00103811  1
  Na  Na5  1  0.00199614  0.33377864  0.25015149  1
  Na  Na6  1  0.00322560  0.33387292  0.49954848  1
  Na  Na7  1  0.00087169  0.33406149  0.74954326  1
  Na  Na8  1  -0.00075476  0.66592841  0.00092816  1
  Na  Na9  1  0.00027146  0.66670623  0.25096553  1
  Na  Na10  1  -0.00059610  0.66609420  0.49921436  1
  Na  Na11  1  0.00021338  0.66676981  0.74888876  1
  Na  Na12  1  0.50248907  0.00075787  -0.00011623  1
  Na  Na13  1  0.50146120  0.00024800  0.25098421  1
  Na  Na14  1  0.49911774  -0.00063690  0.50021441  1
  Na  Na15  1  0.49903652  -0.00034618  0.74898101  1
  Na  Na16  1  0.49994055  0.33288499  -0.00046313  1
  Na  Na17  1  0.50005996  0.33324946  0.25036686  1
  Na  Na18  1  0.49925005  0.33263246  0.50079407  1
  Na  Na19  1  0.50174960  0.33387574  0.74941327  1
  Na  Na20  1  0.50033523  0.66659448  -0.00002185  1
  Na  Na21  1  0.49855565  0.66644200  0.25057382  1
  Na  Na22  1  0.49769233  0.66643199  0.49999990  1
  Na  Na23  1  0.49966703  0.66662109  0.74878408  1
  Na  Na24  1  0.24892356  -0.00042302  0.12553047  1
  Na  Na25  1  0.25204017  0.00062931  0.37595091  1
  Na  Na26  1  0.25170738  0.00034086  0.62448995  1
  Na  Na27  1  0.24952680  -0.00006999  0.87418011  1
  Na  Na28  1  0.25055527  0.33352256  0.12491682  1
  Na  Na29  1  0.24974798  0.33327772  0.37501840  1
  Na  Na30  1  0.24924748  0.33270742  0.62548694  1
  Na  Na31  1  0.25111656  0.33354401  0.87466067  1
  Na  Na32  1  0.25087358  0.66656647  0.12386719  1
  Na  Na33  1  0.25091743  0.66694389  0.37660179  1
  Na  Na34  1  0.24969730  0.66614195  0.62479994  1
  Na  Na35  1  0.25111848  0.66691053  0.87447671  1
  Na  Na36  1  0.75029976  0.00018322  0.12501955  1
  Na  Na37  1  0.74845776  -0.00106290  0.37478734  1
  Na  Na38  1  0.75134800  0.00013392  0.62529012  1
  Na  Na39  1  0.75133186  0.00039073  0.87518665  1
  Na  Na40  1  0.74916667  0.33324140  0.12589234  1
  Na  Na41  1  0.74853325  0.33304756  0.37467992  1
  Na  Na42  1  0.74631407  0.33211604  0.62469490  1
  Na  Na43  1  0.74900174  0.33352650  0.87492776  1
  Na  Na44  1  0.74882936  0.66593317  0.12457884  1
  Na  Na45  1  0.75233365  0.66789551  0.37640709  1
  Na  Na46  1  0.75042509  0.66623856  0.62398619  1
  Na  Na47  1  0.74985203  0.66597968  0.87496731  1
  Na  Na48  1  -0.00135716  0.16653849  0.00005873  1
  Na  Na49  1  -0.00107693  0.16745875  0.25115231  1
  Na  Na50  1  0.00164978  0.16607187  0.49866466  1
  Na  Na51  1  0.00026463  0.16653214  0.74980524  1
  Na  Na52  1  -0.00136523  0.50013521  0.00174253  1
  Na  Na53  1  0.00104251  0.50018060  0.24948360  1
  Na  Na54  1  0.00083254  0.50056663  0.49975570  1
  Na  Na55  1  -0.00127241  0.50042611  0.74962955  1
  Na  Na56  1  -0.00098854  0.83415331  -0.00032332  1
  Na  Na57  1  -0.00150173  0.83464258  0.25108752  1
  Na  Na58  1  -0.00020697  0.83387614  0.49949978  1
  Na  Na59  1  -0.00065009  0.83369156  0.74949756  1
  Na  Na60  1  0.50317479  0.16581351  -0.00099624  1
  Na  Na61  1  0.50080231  0.16665943  0.25058724  1
  Na  Na62  1  0.50020833  0.16618440  0.50144932  1
  Na  Na63  1  0.49943314  0.16683467  0.74942838  1
  Na  Na64  1  0.49881120  0.50052577  -0.00009033  1
  Na  Na65  1  0.49932596  0.49961940  0.24970935  1
  Na  Na66  1  0.49775691  0.50063079  0.50072019  1
  Na  Na67  1  0.50017588  0.49992193  0.74874738  1
  Na  Na68  1  0.50129269  0.83300487  0.00049631  1
  Na  Na69  1  0.49979690  0.83365034  0.25144371  1
  Na  Na70  1  0.49867613  0.83377281  0.49885302  1
  Na  Na71  1  0.50106977  0.83279757  0.74906540  1
  Na  Na72  1  0.24990045  0.16723370  0.12386550  1
  Na  Na73  1  0.24979589  0.16694830  0.37594648  1
  Na  Na74  1  0.25016154  0.16664232  0.62417227  1
  Na  Na75  1  0.25105960  0.16608909  0.87562649  1
  Na  Na76  1  0.24903687  0.50040874  0.12483036  1
  Na  Na77  1  0.24995161  0.50021558  0.37517977  1
  Na  Na78  1  0.25129267  0.49966546  0.62587966  1
  Na  Na79  1  0.25105168  0.49991009  0.87404593  1
  Na  Na80  1  0.25079609  0.83344363  0.12569372  1
  Na  Na81  1  0.25291143  0.83222285  0.37634055  1
  Na  Na82  1  0.24958879  0.83408986  0.62456178  1
  Na  Na83  1  0.24894083  0.83439150  0.87377911  1
  Na  Na84  1  0.74924832  0.16623528  0.12597794  1
  Na  Na85  1  0.74909938  0.16628839  0.37448274  1
  Na  Na86  1  0.74833545  0.16650987  0.62497574  1
  Na  Na87  1  0.74794855  0.16739862  0.87571517  1
  Na  Na88  1  0.75027296  0.49982188  0.12502605  1
  Na  Na89  1  0.75043751  0.49988210  0.37628189  1
  Na  Na90  1  0.75054686  0.50046026  0.62406959  1
  Na  Na91  1  0.75064855  0.49968142  0.87488948  1
  Na  Na92  1  0.74877096  0.83437118  0.12478352  1
  Na  Na93  1  0.75021121  0.83337839  0.37506715  1
  Na  Na94  1  0.74987322  0.83386954  0.62480936  1
  Na  Na95  1  0.75168712  0.83272660  0.87464337  1
  Mn  Mn96  1  0.10814841  0.08332927  0.37227723  1
  Mn  Mn97  1  0.14164397  0.91737269  0.74712568  1
  Mn  Mn98  1  0.10801301  0.74997386  0.37288562  1
  Mn  Mn99  1  0.85771572  0.41647337  0.25303586  1
  Mn  Mn100  1  0.39273026  0.91698946  0.12713892  1
  Mn  Mn101  1  0.85805495  0.41616584  0.50203039  1
  Mn  Mn102  1  0.35817957  0.75042132  0.00210191  1
  Mn  Mn103  1  0.64300013  0.91625191  0.74735282  1
  Mn  Mn104  1  0.64160753  0.24982698  0.24782391  1
  Mn  Mn105  1  0.39228175  0.58345675  0.12738826  1
  Mn  Mn106  1  0.60819628  0.74988495  0.87208637  1
  Mn  Mn107  1  0.35844885  0.41575196  0.75259368  1
  Mn  Mn108  1  0.14183212  0.24989182  0.99757953  1
  Mn  Mn109  1  0.35769664  0.41682654  0.25213228  1
  Mn  Mn110  1  0.14207248  0.58345984  0.74807180  1
  Mn  Mn111  1  0.89102605  0.25082470  0.87712759  1
  Mn  Mn112  1  0.10736959  0.74909593  0.87281650  1
  Mn  Mn113  1  0.60692023  0.74987072  0.37311958  1
  Mn  Mn114  1  0.10824908  0.41677897  0.62227541  1
  Mn  Mn115  1  0.14235054  0.24941970  0.74839469  1
  Mn  Mn116  1  0.35848165  0.08317629  0.00216657  1
  Mn  Mn117  1  0.89218811  0.24979696  0.62668247  1
  Mn  Mn118  1  0.10775803  0.41615076  0.12220107  1
  Mn  Mn119  1  0.64225358  0.58369444  0.49739324  1
  Mn  Mn120  1  0.10845368  0.75113829  0.12338166  1
  Mn  Mn121  1  0.10672032  0.08297311  0.12371015  1
  Mn  Mn122  1  0.39235431  0.91667548  0.87776957  1
  Mn  Mn123  1  0.14233230  0.58357326  0.99694617  1
  Mn  Mn124  1  0.85720673  0.41597842  0.75172001  1
  Mn  Mn125  1  0.85706012  0.08434918  0.00261632  1
  Mn  Mn126  1  0.64164728  0.58393219  0.24897364  1
  Mn  Mn127  1  0.39239507  0.24982721  0.62744322  1
  Mn  Mn128  1  0.35795163  0.75074301  0.75173951  1
  Mn  Mn129  1  0.60758319  0.08248361  0.62261066  1
  Mn  Mn130  1  0.85738072  0.75027702  0.25213628  1
  Mn  Mn131  1  0.10729561  0.08386277  0.87250898  1
  Mn  Mn132  1  0.64213683  0.58259714  0.99746778  1
  Mn  Mn133  1  0.39316562  0.24940733  0.12677087  1
  Mn  Mn134  1  0.89283902  0.25072327  0.37769903  1
  Mn  Mn135  1  0.89206303  0.58374450  0.12832189  1
  Mn  Mn136  1  0.60778028  0.41687460  0.87268292  1
  Mn  Mn137  1  0.35871283  0.08327251  0.25219399  1
  Mn  Mn138  1  0.85720758  0.08346811  0.50234487  1
  Mn  Mn139  1  0.14264135  0.91663908  0.24823070  1
  Mn  Mn140  1  0.60633327  0.41665659  0.37326281  1
  Mn  Mn141  1  0.64251313  0.91693301  0.99758994  1
  Mn  Mn142  1  0.85817300  0.74946833  0.00273032  1
  Mn  Mn143  1  0.85790940  0.74990631  0.75159241  1
  Fe  Fe144  1  0.14331598  0.58361128  0.24901013  1
  Fe  Fe145  1  0.89172237  0.24939803  0.12744308  1
  Fe  Fe146  1  0.39281286  0.58374192  0.62661799  1
  Fe  Fe147  1  0.89308115  0.91677804  0.62578235  1
  Fe  Fe148  1  0.10703357  0.75067190  0.62273964  1
  Fe  Fe149  1  0.10758945  0.08259136  0.62344748  1
  Fe  Fe150  1  0.64240583  0.58308986  0.74749769  1
  Fe  Fe151  1  0.60755543  0.41690880  0.12277605  1
  Fe  Fe152  1  0.64179832  0.24934469  0.49775282  1
  Fe  Fe153  1  0.35688592  0.74994505  0.50255163  1
  Fe  Fe154  1  0.14335508  0.91681596  0.49848779  1
  Fe  Fe155  1  0.35743309  0.08345570  0.50171796  1
  Fe  Fe156  1  0.14351857  0.24990641  0.49828240  1
  Fe  Fe157  1  0.89168317  0.91631323  0.37748959  1
  Fe  Fe158  1  0.39191908  0.24965835  0.37706508  1
  Fe  Fe159  1  0.89358155  0.58338208  0.37659975  1
  Fe  Fe160  1  0.64206110  0.25020802  0.74841621  1
  Fe  Fe161  1  0.39099390  0.58300514  0.37722447  1
  Fe  Fe162  1  0.39278775  0.91603536  0.62618855  1
  Fe  Fe163  1  0.60655140  0.08321579  0.37411242  1
  Fe  Fe164  1  0.85719980  0.41607832  0.00176868  1
  Fe  Fe165  1  0.64263357  0.91679174  0.49848084  1
  Fe  Fe166  1  0.39302258  0.91721067  0.37726139  1
  Fe  Fe167  1  0.60716376  0.74979860  0.62261665  1
  Fe  Fe168  1  0.35676021  0.41660886  0.50138552  1
  Fe  Fe169  1  0.14171634  0.91679926  0.99868424  1
  Fe  Fe170  1  0.10861993  0.41718003  0.37355978  1
  Fe  Fe171  1  0.39379869  0.25015526  0.87679749  1
  Fe  Fe172  1  0.35745661  0.08330225  0.75188984  1
  Fe  Fe173  1  0.60703200  0.41762477  0.62272072  1
  Fe  Fe174  1  0.85621427  0.08310599  0.25173436  1
  Fe  Fe175  1  0.60829328  0.08325788  0.12326611  1
  Fe  Fe176  1  0.89267520  0.91609753  0.87680293  1
  Fe  Fe177  1  0.64247416  0.91626227  0.24861823  1
  Fe  Fe178  1  0.60744129  0.08312233  0.87225998  1
  Fe  Fe179  1  0.35759063  0.41656744  0.00113264  1
  Fe  Fe180  1  0.60722260  0.74969873  0.12377115  1
  Fe  Fe181  1  0.64279491  0.25053293  0.99855755  1
  Fe  Fe182  1  0.85740685  0.08412968  0.75110860  1
  Fe  Fe183  1  0.89210905  0.91699981  0.12706152  1
  Fe  Fe184  1  0.14321029  0.58330533  0.49849056  1
  Fe  Fe185  1  0.89330877  0.58364924  0.62645312  1
  Fe  Fe186  1  0.89205828  0.58311297  0.87617832  1
  Fe  Fe187  1  0.39307501  0.58301414  0.87611261  1
  Fe  Fe188  1  0.10679128  0.41682189  0.87439524  1
  Fe  Fe189  1  0.85763856  0.75033350  0.50211893  1
  Fe  Fe190  1  0.35812191  0.74999087  0.25159860  1
  Fe  Fe191  1  0.14320162  0.24987217  0.24798355  1
  P  P192  1  0.05268031  0.24922334  0.11120696  1
  P  P193  1  0.05622364  0.25095758  0.36058656  1
  P  P194  1  0.05436189  0.24860506  0.60920147  1
  P  P195  1  0.05248540  0.25128519  0.86013904  1
  P  P196  1  0.05508292  0.58384774  0.11147055  1
  P  P197  1  0.05487882  0.58286166  0.36083668  1
  P  P198  1  0.05331167  0.58426275  0.60926086  1
  P  P199  1  0.05158202  0.58203867  0.86014097  1
  P  P200  1  0.05210052  0.91718567  0.10982771  1
  P  P201  1  0.05333909  0.91657330  0.36140077  1
  P  P202  1  0.05286218  0.91716571  0.60922481  1
  P  P203  1  0.05297928  0.91664066  0.86082659  1
  P  P204  1  0.55454136  0.25003921  0.10937728  1
  P  P205  1  0.55260737  0.24897909  0.36177543  1
  P  P206  1  0.55544580  0.25051288  0.61080577  1
  P  P207  1  0.55442258  0.24955980  0.86034379  1
  P  P208  1  0.55363760  0.58358528  0.11037812  1
  P  P209  1  0.55063386  0.58329268  0.36063697  1
  P  P210  1  0.55347594  0.58369693  0.61067278  1
  P  P211  1  0.55283582  0.58305973  0.85870945  1
  P  P212  1  0.55509151  0.91629116  0.11169160  1
  P  P213  1  0.55411437  0.91739776  0.36140968  1
  P  P214  1  0.55299653  0.91565804  0.60914396  1
  P  P215  1  0.55364359  0.91736198  0.85939166  1
  P  P216  1  0.44916456  0.08333368  0.13997978  1
  P  P217  1  0.44684757  0.08337839  0.39084062  1
  P  P218  1  0.44460245  0.08228716  0.63922510  1
  P  P219  1  0.44721911  0.08411963  0.88865158  1
  P  P220  1  0.44707005  0.41622194  0.13869794  1
  P  P221  1  0.44504588  0.41628003  0.39084277  1
  P  P222  1  0.44615331  0.41708276  0.63844210  1
  P  P223  1  0.44649235  0.41656228  0.89004931  1
  P  P224  1  0.44746321  0.75029219  0.14089798  1
  P  P225  1  0.44387683  0.75005605  0.38962980  1
  P  P226  1  0.44624356  0.75027967  0.63812533  1
  P  P227  1  0.44712179  0.74925398  0.88973875  1
  P  P228  1  0.94498870  0.08342971  0.14106466  1
  P  P229  1  0.94494883  0.08281558  0.38877319  1
  P  P230  1  0.94733043  0.08272024  0.63987483  1
  P  P231  1  0.94460174  0.08329616  0.88870535  1
  P  P232  1  0.94504837  0.41552818  0.13954893  1
  P  P233  1  0.94871716  0.41740543  0.38996176  1
  P  P234  1  0.94684334  0.41715104  0.63950959  1
  P  P235  1  0.94653330  0.41745511  0.89071356  1
  P  P236  1  0.94704491  0.75116051  0.14075779  1
  P  P237  1  0.94561333  0.75009953  0.39052743  1
  P  P238  1  0.94663603  0.75035755  0.63797582  1
  P  P239  1  0.94616344  0.74938753  0.88963222  1
  P  P240  1  0.19733916  0.08423240  0.23512562  1
  P  P241  1  0.19659990  0.08280208  0.48651190  1
  P  P242  1  0.19745479  0.08350601  0.73397088  1
  P  P243  1  0.19625024  0.08234519  0.98509689  1
  P  P244  1  0.19546527  0.41669989  0.23620484  1
  P  P245  1  0.19733265  0.41702972  0.48500417  1
  P  P246  1  0.19569244  0.41659140  0.73631396  1
  P  P247  1  0.19746964  0.41658596  0.98394479  1
  P  P248  1  0.19864968  0.74931088  0.23565978  1
  P  P249  1  0.19624846  0.75025674  0.48686490  1
  P  P250  1  0.19570433  0.75013922  0.73372482  1
  P  P251  1  0.19684680  0.75124264  0.98461549  1
  P  P252  1  0.69528006  0.08215752  0.23626578  1
  P  P253  1  0.69546481  0.08267613  0.48450218  1
  P  P254  1  0.69662857  0.08353263  0.73601398  1
  P  P255  1  0.69454620  0.08427315  0.98552922  1
  P  P256  1  0.69549103  0.41717334  0.23483742  1
  P  P257  1  0.69508976  0.41622660  0.48587766  1
  P  P258  1  0.69540973  0.41722693  0.73411008  1
  P  P259  1  0.69669562  0.41583348  0.98607864  1
  P  P260  1  0.69579554  0.75068297  0.23485388  1
  P  P261  1  0.69647525  0.75093784  0.48619712  1
  P  P262  1  0.69620954  0.74890513  0.73363770  1
  P  P263  1  0.69585458  0.74985361  0.98567585  1
  P  P264  1  0.30489054  0.25086840  0.01365831  1
  P  P265  1  0.30319019  0.24990665  0.26550810  1
  P  P266  1  0.30379978  0.25028038  0.51382403  1
  P  P267  1  0.30444971  0.24871844  0.76576651  1
  P  P268  1  0.30492192  0.58227642  0.01342213  1
  P  P269  1  0.30283804  0.58394131  0.26557972  1
  P  P270  1  0.30404360  0.58299642  0.51468961  1
  P  P271  1  0.30544726  0.58364332  0.76428945  1
  P  P272  1  0.30193155  0.91698588  0.01527832  1
  P  P273  1  0.30449227  0.91621310  0.26614138  1
  P  P274  1  0.30461078  0.91678691  0.51429660  1
  P  P275  1  0.30453443  0.91749436  0.76350182  1
  P  P276  1  0.80232858  0.25082253  0.01604022  1
  P  P277  1  0.80398563  0.24913857  0.26449170  1
  P  P278  1  0.80144366  0.24983803  0.51491311  1
  P  P279  1  0.80137216  0.24945916  0.76457952  1
  P  P280  1  0.80473428  0.58216886  0.01402197  1
  P  P281  1  0.80350248  0.58338007  0.26657952  1
  P  P282  1  0.80582421  0.58402085  0.51422369  1
  P  P283  1  0.80363168  0.58325847  0.76385659  1
  P  P284  1  0.80512047  0.91672531  0.01468218  1
  P  P285  1  0.80360755  0.91736217  0.26460747  1
  P  P286  1  0.80381574  0.91610104  0.51449806  1
  P  P287  1  0.80579511  0.91738014  0.76402771  1
  O  O288  1  0.05819330  0.24952183  0.18782905  1
  O  O289  1  0.06086717  0.24991115  0.43739388  1
  O  O290  1  0.05703018  0.24948763  0.68600740  1
  O  O291  1  0.05539533  0.25016729  0.93693901  1
  O  O292  1  0.05987146  0.58406888  0.18823658  1
  O  O293  1  0.05983941  0.58347623  0.43753883  1
  O  O294  1  0.05674256  0.58350972  0.68597804  1
  O  O295  1  0.05531510  0.58276969  0.93687675  1
  O  O296  1  0.05641327  0.91695169  0.18658014  1
  O  O297  1  0.05932675  0.91686147  0.43796905  1
  O  O298  1  0.05587258  0.91704783  0.68600283  1
  O  O299  1  0.05766312  0.91707197  0.93747573  1
  O  O300  1  0.55654552  0.25018520  0.18630459  1
  O  O301  1  0.55727715  0.24944671  0.43845199  1
  O  O302  1  0.55932843  0.24967358  0.68764371  1
  O  O303  1  0.55898783  0.25034463  0.93700612  1
  O  O304  1  0.55610691  0.58328395  0.18714241  1
  O  O305  1  0.55508861  0.58359457  0.43728656  1
  O  O306  1  0.55805159  0.58368877  0.68732150  1
  O  O307  1  0.55675679  0.58299527  0.93545299  1
  O  O308  1  0.55828932  0.91650345  0.18851768  1
  O  O309  1  0.55867204  0.91646546  0.43806926  1
  O  O310  1  0.55702835  0.91634540  0.68582613  1
  O  O311  1  0.55686653  0.91677162  0.93618590  1
  O  O312  1  0.44509448  0.08318665  0.06328316  1
  O  O313  1  0.44405049  0.08360436  0.31406965  1
  O  O314  1  0.44036381  0.08329621  0.56244584  1
  O  O315  1  0.44232316  0.08342360  0.81199982  1
  O  O316  1  0.44211329  0.41634072  0.06210494  1
  O  O317  1  0.44287550  0.41626281  0.31393305  1
  O  O318  1  0.44088292  0.41629401  0.56185592  1
  O  O319  1  0.44425020  0.41635196  0.81316155  1
  O  O320  1  0.44380213  0.75033864  0.06414720  1
  O  O321  1  0.44050278  0.74977954  0.31279664  1
  O  O322  1  0.44124556  0.75032945  0.56143316  1
  O  O323  1  0.44401444  0.75027321  0.81295538  1
  O  O324  1  0.94263627  0.08393043  0.06419515  1
  O  O325  1  0.94029989  0.08317402  0.31211259  1
  O  O326  1  0.94374788  0.08373675  0.56312125  1
  O  O327  1  0.94065590  0.08435385  0.81192665  1
  O  O328  1  0.94064414  0.41579087  0.06280507  1
  O  O329  1  0.94473269  0.41666544  0.31327539  1
  O  O330  1  0.94393920  0.41619448  0.56275564  1
  O  O331  1  0.94302900  0.41654772  0.81393143  1
  O  O332  1  0.94405861  0.75021497  0.06398829  1
  O  O333  1  0.94273614  0.75042679  0.31376146  1
  O  O334  1  0.94222005  0.75043708  0.56131405  1
  O  O335  1  0.94369710  0.74939065  0.81280965  1
  O  O336  1  0.19269494  0.08316659  0.06183719  1
  O  O337  1  0.19448355  0.08350685  0.31194810  1
  O  O338  1  0.19201036  0.08250282  0.56314229  1
  O  O339  1  0.19310874  0.08324322  0.81068889  1
  O  O340  1  0.19350371  0.41646366  0.06075057  1
  O  O341  1  0.19214194  0.41693956  0.31298878  1
  O  O342  1  0.19416930  0.41707027  0.56180260  1
  O  O343  1  0.19098569  0.41699888  0.81294805  1
  O  O344  1  0.19411155  0.75044735  0.06143862  1
  O  O345  1  0.19483411  0.74985056  0.31239392  1
  O  O346  1  0.19114155  0.75044577  0.56348989  1
  O  O347  1  0.19242469  0.75003565  0.81054288  1
  O  O348  1  0.69102331  0.08314533  0.06240292  1
  O  O349  1  0.69046751  0.08303346  0.31292217  1
  O  O350  1  0.69305162  0.08235413  0.56135185  1
  O  O351  1  0.69207058  0.08283555  0.81272510  1
  O  O352  1  0.69189066  0.41686147  0.06273038  1
  O  O353  1  0.69189810  0.41711112  0.31166378  1
  O  O354  1  0.69087312  0.41737357  0.56261488  1
  O  O355  1  0.69303348  0.41755002  0.81097619  1
  O  O356  1  0.69135509  0.74983691  0.06239984  1
  O  O357  1  0.69285207  0.74993185  0.31170836  1
  O  O358  1  0.69129861  0.75012180  0.56282695  1
  O  O359  1  0.69349448  0.74956048  0.81050209  1
  O  O360  1  0.30729613  0.24977556  0.18876621  1
  O  O361  1  0.30815493  0.24993142  0.43714695  1
  O  O362  1  0.30705788  0.24985756  0.68887515  1
  O  O363  1  0.30955354  0.24994354  0.93697120  1
  O  O364  1  0.30637540  0.58328334  0.18880111  1
  O  O365  1  0.30805434  0.58310975  0.43791710  1
  O  O366  1  0.30979832  0.58360499  0.68745930  1
  O  O367  1  0.30917196  0.58301307  0.93667588  1
  O  O368  1  0.30726709  0.91709226  0.18930975  1
  O  O369  1  0.30914688  0.91694927  0.43761528  1
  O  O370  1  0.30896172  0.91643109  0.68677564  1
  O  O371  1  0.30590352  0.91715118  0.93852146  1
  O  O372  1  0.80793544  0.24979818  0.18775710  1
  O  O373  1  0.80603481  0.25023457  0.43824364  1
  O  O374  1  0.80536709  0.24970643  0.68793813  1
  O  O375  1  0.80566368  0.25034386  0.93924988  1
  O  O376  1  0.80637260  0.58329730  0.18972633  1
  O  O377  1  0.81032961  0.58314589  0.43749656  1
  O  O378  1  0.80901419  0.58353905  0.68718022  1
  O  O379  1  0.80871103  0.58294276  0.93721391  1
  O  O380  1  0.80808960  0.91675776  0.18788773  1
  O  O381  1  0.80812277  0.91642213  0.43773767  1
  O  O382  1  0.80982968  0.91666265  0.68720489  1
  O  O383  1  0.80934321  0.91632279  0.93786714  1
  O  O384  1  0.23481010  0.25053389  0.03776444  1
  O  O385  1  0.23308508  0.25016781  0.28971205  1
  O  O386  1  0.23346553  0.25004600  0.53787203  1
  O  O387  1  0.23479954  0.24940268  0.79096998  1
  O  O388  1  0.23494471  0.58288853  0.03777536  1
  O  O389  1  0.23283910  0.58341624  0.29036635  1
  O  O390  1  0.23361537  0.58312965  0.53858229  1
  O  O391  1  0.23530135  0.58377027  0.78807624  1
  O  O392  1  0.23202214  0.91677344  0.04008081  1
  O  O393  1  0.23483662  0.91668126  0.29161150  1
  O  O394  1  0.23414494  0.91678149  0.53800510  1
  O  O395  1  0.23442844  0.91725273  0.78741635  1
  O  O396  1  0.73233833  0.24990869  0.04074793  1
  O  O397  1  0.73386269  0.24967811  0.28859830  1
  O  O398  1  0.73124184  0.24915756  0.53877350  1
  O  O399  1  0.73131016  0.25031159  0.78922483  1
  O  O400  1  0.73475781  0.58257167  0.03833917  1
  O  O401  1  0.73384155  0.58380485  0.29188709  1
  O  O402  1  0.73550794  0.58353296  0.53767532  1
  O  O403  1  0.73314564  0.58295992  0.78717329  1
  O  O404  1  0.73501262  0.91732920  0.03844709  1
  O  O405  1  0.73320075  0.91641773  0.28834325  1
  O  O406  1  0.73347180  0.91699304  0.53834196  1
  O  O407  1  0.73571534  0.91626257  0.78824317  1
  O  O408  1  0.26690595  0.08368955  0.20960478  1
  O  O409  1  0.26705170  0.08325231  0.46271211  1
  O  O410  1  0.26762683  0.08367844  0.70999018  1
  O  O411  1  0.26604665  0.08278470  0.96018416  1
  O  O412  1  0.26532120  0.41662425  0.21116447  1
  O  O413  1  0.26737098  0.41702523  0.46026009  1
  O  O414  1  0.26583632  0.41610982  0.71236967  1
  O  O415  1  0.26755159  0.41665497  0.95968669  1
  O  O416  1  0.26864407  0.74990450  0.21081264  1
  O  O417  1  0.26681676  0.74993776  0.46369405  1
  O  O418  1  0.26555127  0.75012866  0.70908902  1
  O  O419  1  0.26635048  0.75089908  0.95887703  1
  O  O420  1  0.76561640  0.08285621  0.21245205  1
  O  O421  1  0.76506510  0.08280929  0.45907286  1
  O  O422  1  0.76684384  0.08339098  0.71177809  1
  O  O423  1  0.76458788  0.08385617  0.96137747  1
  O  O424  1  0.76538479  0.41666860  0.21046962  1
  O  O425  1  0.76511254  0.41647388  0.46156185  1
  O  O426  1  0.76503355  0.41663525  0.70856748  1
  O  O427  1  0.76683583  0.41607326  0.96182434  1
  O  O428  1  0.76543903  0.75020618  0.20957482  1
  O  O429  1  0.76689555  0.75061282  0.46278690  1
  O  O430  1  0.76598046  0.74978132  0.70868633  1
  O  O431  1  0.76582985  0.74957688  0.96145613  1
  O  O432  1  0.01450864  0.08315384  0.16687782  1
  O  O433  1  0.01517730  0.08325590  0.41243449  1
  O  O434  1  0.01736580  0.08266065  0.66462044  1
  O  O435  1  0.01450442  0.08357199  0.91329180  1
  O  O436  1  0.01518569  0.41654843  0.16338585  1
  O  O437  1  0.01882924  0.41719652  0.41437102  1
  O  O438  1  0.01653607  0.41723662  0.66463583  1
  O  O439  1  0.01638817  0.41659782  0.91593357  1
  O  O440  1  0.01654731  0.75105354  0.16645399  1
  O  O441  1  0.01548278  0.75017679  0.41534604  1
  O  O442  1  0.01687951  0.75048461  0.66222473  1
  O  O443  1  0.01561468  0.74951603  0.91556414  1
  O  O444  1  0.51919230  0.08359279  0.16448812  1
  O  O445  1  0.51679031  0.08290661  0.41595326  1
  O  O446  1  0.51482710  0.08303516  0.66294820  1
  O  O447  1  0.51755835  0.08359573  0.91238394  1
  O  O448  1  0.51735150  0.41643850  0.16257830  1
  O  O449  1  0.51457701  0.41652240  0.41655961  1
  O  O450  1  0.51654032  0.41702462  0.66197952  1
  O  O451  1  0.51613033  0.41667926  0.91546685  1
  O  O452  1  0.51740606  0.74997975  0.16563092  1
  O  O453  1  0.51394940  0.75020507  0.41401486  1
  O  O454  1  0.51658973  0.75000100  0.66182154  1
  O  O455  1  0.51676597  0.74958100  0.91498199  1
  O  O456  1  0.48506531  0.24944579  0.08355977  1
  O  O457  1  0.48235400  0.24962342  0.33772304  1
  O  O458  1  0.48521451  0.24953104  0.58703761  1
  O  O459  1  0.48412153  0.25046429  0.83635967  1
  O  O460  1  0.48407834  0.58366860  0.08474590  1
  O  O461  1  0.48047239  0.58322885  0.33653489  1
  O  O462  1  0.48304222  0.58373980  0.58692717  1
  O  O463  1  0.48270977  0.58286612  0.83446161  1
  O  O464  1  0.48542478  0.91652800  0.08615591  1
  O  O465  1  0.48361237  0.91698093  0.33800395  1
  O  O466  1  0.48277596  0.91626542  0.58506864  1
  O  O467  1  0.48399363  0.91676492  0.83426712  1
  O  O468  1  0.98225033  0.24903692  0.08785652  1
  O  O469  1  0.98594110  0.25048868  0.33716807  1
  O  O470  1  0.98470134  0.24972050  0.58370015  1
  O  O471  1  0.98291881  0.25088416  0.83461689  1
  O  O472  1  0.98485738  0.58322485  0.08806293  1
  O  O473  1  0.98438420  0.58361002  0.33739432  1
  O  O474  1  0.98314876  0.58361873  0.58491410  1
  O  O475  1  0.98168961  0.58300609  0.83511304  1
  O  O476  1  0.98190410  0.91736270  0.08584232  1
  O  O477  1  0.98266925  0.91623460  0.33888515  1
  O  O478  1  0.98277446  0.91710525  0.58444185  1
  O  O479  1  0.98266455  0.91637428  0.83698537  1
  O  O480  1  0.08586988  0.31423414  0.07749977  1
  O  O481  1  0.08941454  0.31629512  0.32781973  1
  O  O482  1  0.08954698  0.31323553  0.57678115  1
  O  O483  1  0.08658032  0.31664251  0.82840235  1
  O  O484  1  0.08800771  0.64908438  0.07807272  1
  O  O485  1  0.08844620  0.64781132  0.32731792  1
  O  O486  1  0.08695005  0.64941792  0.57651887  1
  O  O487  1  0.08602581  0.64677613  0.82728385  1
  O  O488  1  0.08580144  0.98223315  0.07688895  1
  O  O489  1  0.08609178  0.98152408  0.32735413  1
  O  O490  1  0.08691662  0.98230341  0.57674796  1
  O  O491  1  0.08607385  0.98172538  0.82715268  1
  O  O492  1  0.58867706  0.31525880  0.07709936  1
  O  O493  1  0.58633416  0.31377000  0.32831935  1
  O  O494  1  0.58842782  0.31583483  0.57788902  1
  O  O495  1  0.58832354  0.31435885  0.82695467  1
  O  O496  1  0.58781654  0.64888553  0.07836553  1
  O  O497  1  0.58443729  0.64832028  0.32782817  1
  O  O498  1  0.58669399  0.64876103  0.57714685  1
  O  O499  1  0.58681035  0.64794783  0.82577088  1
  O  O500  1  0.58913317  0.98132063  0.07894836  1
  O  O501  1  0.58729805  0.98263687  0.32836619  1
  O  O502  1  0.58699489  0.98068631  0.57627636  1
  O  O503  1  0.58753573  0.98260047  0.82701597  1
  O  O504  1  0.41548743  0.01832267  0.17288923  1
  O  O505  1  0.41250376  0.01829178  0.42313687  1
  O  O506  1  0.41160682  0.01682010  0.67190100  1
  O  O507  1  0.41381093  0.01925434  0.92246471  1
  O  O508  1  0.41384966  0.35115404  0.17216079  1
  O  O509  1  0.41083261  0.35113050  0.42307599  1
  O  O510  1  0.41322012  0.35194420  0.67223412  1
  O  O511  1  0.41223234  0.35148805  0.92232083  1
  O  O512  1  0.41307586  0.68535681  0.17344375  1
  O  O513  1  0.41009058  0.68508795  0.42273757  1
  O  O514  1  0.41274886  0.68533909  0.67134535  1
  O  O515  1  0.41327338  0.68381398  0.92162844  1
  O  O516  1  0.91044711  0.01818056  0.17287603  1
  O  O517  1  0.91172698  0.01762132  0.42193352  1
  O  O518  1  0.91310525  0.01757756  0.67193108  1
  O  O519  1  0.91104898  0.01798785  0.92116463  1
  O  O520  1  0.91217056  0.35012173  0.17269368  1
  O  O521  1  0.91487621  0.35242038  0.42311239  1
  O  O522  1  0.91287088  0.35205899  0.67224172  1
  O  O523  1  0.91175347  0.35273101  0.92349306  1
  O  O524  1  0.91274524  0.68618985  0.17330919  1
  O  O525  1  0.91166189  0.68485189  0.42280035  1
  O  O526  1  0.91330173  0.68515327  0.67115538  1
  O  O527  1  0.91197581  0.68419003  0.92178032  1
  O  O528  1  0.16276788  0.01917313  0.20310727  1
  O  O529  1  0.16364414  0.01766138  0.45283533  1
  O  O530  1  0.16364609  0.01856962  0.70075948  1
  O  O531  1  0.16240340  0.01705227  0.95275570  1
  O  O532  1  0.16182368  0.35134882  0.20348975  1
  O  O533  1  0.16329898  0.35203954  0.45242355  1
  O  O534  1  0.16215747  0.35153612  0.70322756  1
  O  O535  1  0.16336242  0.35164540  0.95127932  1
  O  O536  1  0.16501556  0.68421942  0.20302405  1
  O  O537  1  0.16323971  0.68507248  0.45349449  1
  O  O538  1  0.16148041  0.68514762  0.70127779  1
  O  O539  1  0.16262625  0.68609860  0.95209688  1
  O  O540  1  0.66238182  0.01681372  0.20309503  1
  O  O541  1  0.66118704  0.01756626  0.45223995  1
  O  O542  1  0.66333741  0.01850919  0.70236546  1
  O  O543  1  0.66064164  0.01959717  0.95194719  1
  O  O544  1  0.66113096  0.35223340  0.20229608  1
  O  O545  1  0.66160573  0.35082531  0.45338088  1
  O  O546  1  0.66056215  0.35227371  0.70236284  1
  O  O547  1  0.66337847  0.35045940  0.95330468  1
  O  O548  1  0.66126005  0.68583197  0.20232514  1
  O  O549  1  0.66314318  0.68602897  0.45238107  1
  O  O550  1  0.66230284  0.68363677  0.70140609  1
  O  O551  1  0.66218718  0.68485007  0.95252679  1
  O  O552  1  0.33813247  0.31626551  0.04649484  1
  O  O553  1  0.33721259  0.31486256  0.29830042  1
  O  O554  1  0.33677698  0.31559159  0.54707721  1
  O  O555  1  0.33932716  0.31336677  0.79826319  1
  O  O556  1  0.33868526  0.64723974  0.04669850  1
  O  O557  1  0.33666916  0.64895577  0.29819864  1
  O  O558  1  0.33766813  0.64804250  0.54787207  1
  O  O559  1  0.33909586  0.64860683  0.79735008  1
  O  O560  1  0.33596689  0.98198363  0.04807891  1
  O  O561  1  0.33918497  0.98109101  0.29863177  1
  O  O562  1  0.33811784  0.98173801  0.54754532  1
  O  O563  1  0.33784766  0.98282889  0.79634012  1
  O  O564  1  0.83621308  0.31590881  0.04852278  1
  O  O565  1  0.83761282  0.31406581  0.29789360  1
  O  O566  1  0.83484269  0.31486165  0.54814671  1
  O  O567  1  0.83524667  0.31457752  0.79736336  1
  O  O568  1  0.83840384  0.64706247  0.04749994  1
  O  O569  1  0.83821222  0.64829475  0.29858035  1
  O  O570  1  0.83889585  0.64941100  0.54730088  1
  O  O571  1  0.83679695  0.64833821  0.79740599  1
  O  O572  1  0.83880295  0.98173676  0.04769692  1
  O  O573  1  0.83659807  0.98258226  0.29793960  1
  O  O574  1  0.83774429  0.98092923  0.54772784  1
  O  O575  1  0.83886978  0.98274201  0.79684918  1
  O  O576  1  0.41527201  0.14832097  0.17275077  1
  O  O577  1  0.41273428  0.14833660  0.42359515  1
  O  O578  1  0.41078993  0.14703153  0.67271682  1
  O  O579  1  0.41433190  0.14949169  0.92187247  1
  O  O580  1  0.41344887  0.48113451  0.17212638  1
  O  O581  1  0.41042352  0.48132129  0.42285749  1
  O  O582  1  0.41285988  0.48214562  0.67156621  1
  O  O583  1  0.41213458  0.48168729  0.92209002  1
  O  O584  1  0.41348202  0.81527353  0.17363927  1
  O  O585  1  0.41020068  0.81529981  0.42237013  1
  O  O586  1  0.41324873  0.81551351  0.67152866  1
  O  O587  1  0.41302400  0.81421351  0.92263193  1
  O  O588  1  0.91047048  0.14833299  0.17344973  1
  O  O589  1  0.91167736  0.14786064  0.42231361  1
  O  O590  1  0.91319828  0.14767255  0.67292825  1
  O  O591  1  0.91083923  0.14820683  0.92205950  1
  O  O592  1  0.91129302  0.48049016  0.17271887  1
  O  O593  1  0.91487666  0.48250714  0.42236340  1
  O  O594  1  0.91267803  0.48239118  0.67142888  1
  O  O595  1  0.91272015  0.48277113  0.92293897  1
  O  O596  1  0.91271879  0.81644996  0.17252850  1
  O  O597  1  0.91117852  0.81497348  0.42317813  1
  O  O598  1  0.91318119  0.81541382  0.67111039  1
  O  O599  1  0.91178686  0.81454045  0.92169149  1
  O  O600  1  0.08591498  0.18419030  0.07777627  1
  O  O601  1  0.08979916  0.18607495  0.32696353  1
  O  O602  1  0.08804991  0.18304718  0.57721638  1
  O  O603  1  0.08692571  0.18640802  0.82747445  1
  O  O604  1  0.08863018  0.51889579  0.07816232  1
  O  O605  1  0.08797059  0.51772445  0.32756015  1
  O  O606  1  0.08764904  0.51945909  0.57633103  1
  O  O607  1  0.08512224  0.51663631  0.82779007  1
  O  O608  1  0.08602567  0.85226729  0.07680357  1
  O  O609  1  0.08638730  0.85151904  0.32779870  1
  O  O610  1  0.08705740  0.85224937  0.57648447  1
  O  O611  1  0.08638854  0.85160347  0.82761951  1
  O  O612  1  0.58937506  0.18510289  0.07754799  1
  O  O613  1  0.58584461  0.18370955  0.32875469  1
  O  O614  1  0.58932347  0.18561750  0.57759672  1
  O  O615  1  0.58757560  0.18431393  0.82709011  1
  O  O616  1  0.58771922  0.51847733  0.07773205  1
  O  O617  1  0.58435210  0.51830490  0.32785774  1
  O  O618  1  0.58660272  0.51855160  0.57731393  1
  O  O619  1  0.58679414  0.51803845  0.82597247  1
  O  O620  1  0.58880988  0.85094785  0.07915900  1
  O  O621  1  0.58768748  0.85262762  0.32766540  1
  O  O622  1  0.58666598  0.85065608  0.57619235  1
  O  O623  1  0.58804866  0.85244295  0.82688337  1
  O  O624  1  0.33841475  0.18584330  0.04715246  1
  O  O625  1  0.33705257  0.18493402  0.29857054  1
  O  O626  1  0.33736444  0.18536139  0.54708549  1
  O  O627  1  0.33846806  0.18336065  0.79762893  1
  O  O628  1  0.33811133  0.51687607  0.04637421  1
  O  O629  1  0.33697017  0.51893750  0.29836098  1
  O  O630  1  0.33748753  0.51786943  0.54773380  1
  O  O631  1  0.33908016  0.51862147  0.79735539  1
  O  O632  1  0.33613857  0.85195975  0.04773572  1
  O  O633  1  0.33865089  0.85100905  0.29808222  1
  O  O634  1  0.33791292  0.85165158  0.54770813  1
  O  O635  1  0.33796685  0.85256277  0.79703924  1
  O  O636  1  0.83665468  0.18594756  0.04882506  1
  O  O637  1  0.83718859  0.18386115  0.29727490  1
  O  O638  1  0.83525506  0.18480494  0.54773189  1
  O  O639  1  0.83483557  0.18443106  0.79755321  1
  O  O640  1  0.83815493  0.51691480  0.04673173  1
  O  O641  1  0.83778745  0.51834716  0.29900501  1
  O  O642  1  0.83953861  0.51926439  0.54783198  1
  O  O643  1  0.83710347  0.51828545  0.79727433  1
  O  O644  1  0.83845266  0.85179834  0.04824393  1
  O  O645  1  0.83746502  0.85262391  0.29817394  1
  O  O646  1  0.83715443  0.85103217  0.54778227  1
  O  O647  1  0.83989687  0.85251255  0.79715024  1
  O  O648  1  0.16335448  0.14951211  0.20300619  1
  O  O649  1  0.16317246  0.14786277  0.45336253  1
  O  O650  1  0.16346288  0.14847169  0.70127563  1
  O  O651  1  0.16217594  0.14737253  0.95223199  1
  O  O652  1  0.16183491  0.48188511  0.20353273  1
  O  O653  1  0.16337084  0.48214228  0.45238753  1
  O  O654  1  0.16266836  0.48173517  0.70273961  1
  O  O655  1  0.16339210  0.48154179  0.95114950  1
  O  O656  1  0.16455839  0.81442937  0.20306088  1
  O  O657  1  0.16348313  0.81538179  0.45306369  1
  O  O658  1  0.16149496  0.81517119  0.70123180  1
  O  O659  1  0.16255670  0.81649652  0.95285446  1
  O  O660  1  0.66158917  0.14698801  0.20264818  1
  O  O661  1  0.66089840  0.14771486  0.45235095  1
  O  O662  1  0.66293842  0.14851989  0.70319807  1
  O  O663  1  0.66109036  0.14970572  0.95315031  1
  O  O664  1  0.66176993  0.48235335  0.20219650  1
  O  O665  1  0.66149554  0.48120115  0.45251956  1
  O  O666  1  0.66136704  0.48240944  0.70152928  1
  O  O667  1  0.66315419  0.48055288  0.95222399  1
  O  O668  1  0.66177335  0.81597191  0.20281900  1
  O  O669  1  0.66337910  0.81614933  0.45304152  1
  O  O670  1  0.66154634  0.81370862  0.70110326  1
  O  O671  1  0.66264496  0.81508848  0.95245652  1
