# generated using pymatgen
data_Na2MnFe(PO4)2
_symmetry_space_group_name_H-M   'P 1'
_cell_length_a   21.09628874
_cell_length_b   18.95089539
_cell_length_c   20.05392596
_cell_angle_alpha   90.00034228
_cell_angle_beta   89.99553789
_cell_angle_gamma   89.99919166
_symmetry_Int_Tables_number   1
_chemical_formula_structural   Na2MnFe(PO4)2
_chemical_formula_sum   'Na96 Mn48 Fe48 P96 O384'
_cell_volume   8017.43044642
_cell_formula_units_Z   48
loop_
 _symmetry_equiv_pos_site_id
 _symmetry_equiv_pos_as_xyz
  1  'x, y, z'
loop_
 _atom_site_type_symbol
 _atom_site_label
 _atom_site_symmetry_multiplicity
 _atom_site_fract_x
 _atom_site_fract_y
 _atom_site_fract_z
 _atom_site_occupancy
  Na  Na0  1  0.00103198  0.00041639  -0.00042017  1
  Na  Na1  1  0.00177160  0.00090254  0.25022024  1
  Na  Na2  1  0.00222034  0.00062955  0.50026657  1
  Na  Na3  1  0.00047984  -0.00005695  0.75046997  1
  Na  Na4  1  -0.00041420  0.33243441  0.00018334  1
  Na  Na5  1  -0.00017695  0.33263783  0.24991500  1
  Na  Na6  1  0.00336097  0.33362400  0.49996080  1
  Na  Na7  1  0.00268419  0.33348018  0.75040939  1
  Na  Na8  1  -0.00053776  0.66614156  0.00071571  1
  Na  Na9  1  0.00025972  0.66674762  0.24945610  1
  Na  Na10  1  -0.00177356  0.66553204  0.49934099  1
  Na  Na11  1  0.00054884  0.66724999  0.75049872  1
  Na  Na12  1  0.49924058  0.00088741  -0.00065127  1
  Na  Na13  1  0.49981116  0.00044582  0.25048694  1
  Na  Na14  1  0.50099667  0.00117675  0.50019334  1
  Na  Na15  1  0.50016532  0.00143638  0.74894858  1
  Na  Na16  1  0.50168248  0.33356861  0.00071338  1
  Na  Na17  1  0.49995409  0.33315362  0.25133786  1
  Na  Na18  1  0.50045755  0.33281586  0.49927314  1
  Na  Na19  1  0.50115254  0.33237276  0.74932602  1
  Na  Na20  1  0.50052859  0.66710324  -0.00073114  1
  Na  Na21  1  0.49997780  0.66706960  0.25046827  1
  Na  Na22  1  0.49818485  0.66656278  0.50046249  1
  Na  Na23  1  0.49846528  0.66655062  0.74901933  1
  Na  Na24  1  0.24842922  0.00007275  0.12613144  1
  Na  Na25  1  0.24785652  0.00053079  0.37403363  1
  Na  Na26  1  0.24817010  -0.00001641  0.62464794  1
  Na  Na27  1  0.25049233  0.00087200  0.87568511  1
  Na  Na28  1  0.24783338  0.33242368  0.12453418  1
  Na  Na29  1  0.24753042  0.33316300  0.37544438  1
  Na  Na30  1  0.24776151  0.33192719  0.62480008  1
  Na  Na31  1  0.24960722  0.33263552  0.87485932  1
  Na  Na32  1  0.25040432  0.66614206  0.12515071  1
  Na  Na33  1  0.25013134  0.66674091  0.37472298  1
  Na  Na34  1  0.25095496  0.66743018  0.62503496  1
  Na  Na35  1  0.25182758  0.66764253  0.87525523  1
  Na  Na36  1  0.75019997  0.00056575  0.12463895  1
  Na  Na37  1  0.74954596  0.00022998  0.37573586  1
  Na  Na38  1  0.74885695  0.00032890  0.62475858  1
  Na  Na39  1  0.75020763  0.00107245  0.87539395  1
  Na  Na40  1  0.75183063  0.33374688  0.12521352  1
  Na  Na41  1  0.75211585  0.33338313  0.37496382  1
  Na  Na42  1  0.74721257  0.33162176  0.62448060  1
  Na  Na43  1  0.74919064  0.33300389  0.87516278  1
  Na  Na44  1  0.74911022  0.66649164  0.12464539  1
  Na  Na45  1  0.75174191  0.66687110  0.37553613  1
  Na  Na46  1  0.75181615  0.66744238  0.62501060  1
  Na  Na47  1  0.74795494  0.66582962  0.87432454  1
  Na  Na48  1  0.00032098  0.16657060  -0.00055936  1
  Na  Na49  1  0.00014458  0.16718044  0.25056826  1
  Na  Na50  1  0.00201153  0.16603832  0.50032448  1
  Na  Na51  1  0.00153778  0.16639027  0.75045493  1
  Na  Na52  1  -0.00044190  0.49936514  0.00073465  1
  Na  Na53  1  0.00025426  0.49897612  0.24875197  1
  Na  Na54  1  0.00066913  0.49904446  0.49921938  1
  Na  Na55  1  -0.00060661  0.50002259  0.75051049  1
  Na  Na56  1  0.00114789  0.83454442  0.00054501  1
  Na  Na57  1  0.00026415  0.83495680  0.24990585  1
  Na  Na58  1  0.00312993  0.83312779  0.50053664  1
  Na  Na59  1  0.00162594  0.83418903  0.75009074  1
  Na  Na60  1  0.50009881  0.16636927  -0.00008293  1
  Na  Na61  1  0.50122089  0.16547841  0.25012326  1
  Na  Na62  1  0.50030793  0.16620316  0.50062717  1
  Na  Na63  1  0.49909153  0.16650749  0.74925860  1
  Na  Na64  1  0.49992476  0.49945441  0.00027182  1
  Na  Na65  1  0.49834280  0.50010203  0.25106155  1
  Na  Na66  1  0.50034702  0.49880943  0.49877712  1
  Na  Na67  1  0.50237482  0.49791405  0.74957644  1
  Na  Na68  1  0.50116670  0.83263844  -0.00094736  1
  Na  Na69  1  0.50037987  0.83381237  0.25106848  1
  Na  Na70  1  0.49975141  0.83368360  0.50044551  1
  Na  Na71  1  0.49989364  0.83322630  0.74876431  1
  Na  Na72  1  0.24843640  0.16695815  0.12498768  1
  Na  Na73  1  0.24732241  0.16758104  0.37515559  1
  Na  Na74  1  0.25055352  0.16647448  0.62521747  1
  Na  Na75  1  0.25120599  0.16667155  0.87526591  1
  Na  Na76  1  0.24980384  0.49918159  0.12522942  1
  Na  Na77  1  0.24768438  0.49962338  0.37459317  1
  Na  Na78  1  0.24830569  0.49967131  0.62451403  1
  Na  Na79  1  0.24996876  0.49983793  0.87597676  1
  Na  Na80  1  0.24998828  0.83414387  0.12520260  1
  Na  Na81  1  0.24881428  0.83440722  0.37467737  1
  Na  Na82  1  0.24871321  0.83386806  0.62423915  1
  Na  Na83  1  0.24909242  0.83463556  0.87492074  1
  Na  Na84  1  0.75091183  0.16617768  0.12556918  1
  Na  Na85  1  0.75037553  0.16645592  0.37476087  1
  Na  Na86  1  0.74830708  0.16664605  0.62420513  1
  Na  Na87  1  0.74815492  0.16655308  0.87562472  1
  Na  Na88  1  0.75088115  0.49887736  0.12494674  1
  Na  Na89  1  0.75173398  0.49933324  0.37651667  1
  Na  Na90  1  0.74969457  0.49982705  0.62496804  1
  Na  Na91  1  0.74964379  0.49892022  0.87387713  1
  Na  Na92  1  0.74924717  0.83398281  0.12412548  1
  Na  Na93  1  0.75128653  0.83368262  0.37474787  1
  Na  Na94  1  0.74882625  0.83493066  0.62523681  1
  Na  Na95  1  0.75036345  0.83316686  0.87532387  1
  Mn  Mn96  1  0.39169450  0.91739199  0.37738587  1
  Mn  Mn97  1  0.39207350  0.25035906  0.12785808  1
  Mn  Mn98  1  0.60724792  0.74990314  0.62224323  1
  Mn  Mn99  1  0.35637770  0.41623275  0.50235253  1
  Mn  Mn100  1  0.10853569  0.08324405  0.87274489  1
  Mn  Mn101  1  0.35673869  0.08439208  0.25201614  1
  Mn  Mn102  1  0.60780321  0.75028677  0.37305437  1
  Mn  Mn103  1  0.85784000  0.08336565  0.50222313  1
  Mn  Mn104  1  0.10831992  0.74976741  0.87312885  1
  Mn  Mn105  1  0.14215603  0.58355173  0.74744194  1
  Mn  Mn106  1  0.64128041  0.58280729  0.99821175  1
  Mn  Mn107  1  0.39138889  0.24932512  0.37686399  1
  Mn  Mn108  1  0.89200455  0.24961931  0.87662797  1
  Mn  Mn109  1  0.85859295  0.75102331  0.75235940  1
  Mn  Mn110  1  0.64256873  0.58294081  0.24802708  1
  Mn  Mn111  1  0.14125553  0.58357950  0.49739445  1
  Mn  Mn112  1  0.39182050  0.91720598  0.87690664  1
  Mn  Mn113  1  0.89291629  0.91760349  0.12723026  1
  Mn  Mn114  1  0.39158334  0.91751893  0.62672945  1
  Mn  Mn115  1  0.89213460  0.58296814  0.12767465  1
  Mn  Mn116  1  0.64215126  0.25009118  0.99843060  1
  Mn  Mn117  1  0.89336777  0.91666443  0.62715957  1
  Mn  Mn118  1  0.64293525  0.58377029  0.49774232  1
  Mn  Mn119  1  0.35767431  0.74969947  0.25200209  1
  Mn  Mn120  1  0.85714410  0.74956757  0.00203863  1
  Mn  Mn121  1  0.35792123  0.41651613  0.75200098  1
  Mn  Mn122  1  0.85846882  0.41592827  0.50263302  1
  Mn  Mn123  1  0.10831592  0.75030013  0.12224560  1
  Mn  Mn124  1  0.64202870  0.58299221  0.74688673  1
  Mn  Mn125  1  0.64368834  0.25026416  0.24803390  1
  Mn  Mn126  1  0.10779975  0.74950950  0.37220726  1
  Mn  Mn127  1  0.10779980  0.41702952  0.87316847  1
  Mn  Mn128  1  0.35843795  0.41594675  0.00270407  1
  Mn  Mn129  1  0.64126416  0.91675311  0.99760703  1
  Mn  Mn130  1  0.85872295  0.75082735  0.50259991  1
  Mn  Mn131  1  0.14282039  0.58373679  0.99780361  1
  Mn  Mn132  1  0.85762587  0.08379671  0.00231267  1
  Mn  Mn133  1  0.85798876  0.75018982  0.25224262  1
  Mn  Mn134  1  0.89161243  0.58379042  0.87760142  1
  Mn  Mn135  1  0.60785955  0.41640938  0.37223352  1
  Mn  Mn136  1  0.39108718  0.58341338  0.37725944  1
  Mn  Mn137  1  0.64235557  0.91732641  0.74806132  1
  Mn  Mn138  1  0.89293306  0.24984519  0.62743933  1
  Mn  Mn139  1  0.64260311  0.91676494  0.24760488  1
  Mn  Mn140  1  0.39169369  0.58187883  0.62707726  1
  Mn  Mn141  1  0.35877797  0.75087985  0.00262108  1
  Mn  Mn142  1  0.85742262  0.41515942  0.75164302  1
  Mn  Mn143  1  0.39277716  0.58213693  0.87680194  1
  Fe  Fe144  1  0.39279398  0.91656568  0.12652444  1
  Fe  Fe145  1  0.60703869  0.74994549  0.12383302  1
  Fe  Fe146  1  0.35702554  0.08304604  0.75116799  1
  Fe  Fe147  1  0.60735005  0.08317427  0.12375299  1
  Fe  Fe148  1  0.60715563  0.41591552  0.62263354  1
  Fe  Fe149  1  0.14285117  0.91723145  0.49802875  1
  Fe  Fe150  1  0.64263859  0.91698369  0.49779524  1
  Fe  Fe151  1  0.35648903  0.75081359  0.50146120  1
  Fe  Fe152  1  0.39302941  0.25018069  0.87629665  1
  Fe  Fe153  1  0.89373455  0.91711400  0.37693096  1
  Fe  Fe154  1  0.89418967  0.24961457  0.37727298  1
  Fe  Fe155  1  0.14142745  0.25032041  0.24767442  1
  Fe  Fe156  1  0.10830900  0.08359090  0.62338035  1
  Fe  Fe157  1  0.14281214  0.24944971  0.99802415  1
  Fe  Fe158  1  0.85703230  0.41647198  0.00156493  1
  Fe  Fe159  1  0.10710367  0.08432950  0.12307844  1
  Fe  Fe160  1  0.60736485  0.08324058  0.37334477  1
  Fe  Fe161  1  0.14237486  0.91667577  0.24777868  1
  Fe  Fe162  1  0.39272129  0.25009335  0.62623148  1
  Fe  Fe163  1  0.35721544  0.08350499  0.00206044  1
  Fe  Fe164  1  0.85821099  0.08340745  0.25219617  1
  Fe  Fe165  1  0.14282212  0.91724170  0.74861102  1
  Fe  Fe166  1  0.64155854  0.24914013  0.74810225  1
  Fe  Fe167  1  0.89346843  0.24946737  0.12664467  1
  Fe  Fe168  1  0.85833165  0.41626599  0.25193652  1
  Fe  Fe169  1  0.60755223  0.41685748  0.12419781  1
  Fe  Fe170  1  0.60703948  0.75017884  0.87232837  1
  Fe  Fe171  1  0.10755219  0.41691460  0.62369512  1
  Fe  Fe172  1  0.14219602  0.58300097  0.24761880  1
  Fe  Fe173  1  0.89338560  0.58327927  0.37612671  1
  Fe  Fe174  1  0.35592452  0.41619098  0.25105951  1
  Fe  Fe175  1  0.89345033  0.58309924  0.62650448  1
  Fe  Fe176  1  0.35640403  0.08342955  0.50134505  1
  Fe  Fe177  1  0.10816632  0.74958361  0.62333126  1
  Fe  Fe178  1  0.14270239  0.24918912  0.49851144  1
  Fe  Fe179  1  0.60774900  0.41597068  0.87323773  1
  Fe  Fe180  1  0.89334283  0.91676120  0.87662922  1
  Fe  Fe181  1  0.60691175  0.08369458  0.62304012  1
  Fe  Fe182  1  0.10672703  0.41588900  0.12293279  1
  Fe  Fe183  1  0.14354476  0.91720848  0.99855312  1
  Fe  Fe184  1  0.35673102  0.75065007  0.75108310  1
  Fe  Fe185  1  0.14365282  0.24950992  0.74824399  1
  Fe  Fe186  1  0.39282196  0.58345094  0.12690832  1
  Fe  Fe187  1  0.85702941  0.08350508  0.75126678  1
  Fe  Fe188  1  0.10714790  0.08371811  0.37316356  1
  Fe  Fe189  1  0.10662474  0.41646908  0.37215020  1
  Fe  Fe190  1  0.60640361  0.08349305  0.87257234  1
  Fe  Fe191  1  0.64232791  0.24940860  0.49754247  1
  P  P192  1  0.05416771  0.24983690  0.11059565  1
  P  P193  1  0.05457581  0.24973746  0.36100355  1
  P  P194  1  0.05583960  0.24945783  0.61110863  1
  P  P195  1  0.05553290  0.24968511  0.86047115  1
  P  P196  1  0.05464347  0.58217703  0.11100450  1
  P  P197  1  0.05270624  0.58237858  0.35899772  1
  P  P198  1  0.05247179  0.58335070  0.61010011  1
  P  P199  1  0.05308909  0.58331632  0.86018778  1
  P  P200  1  0.05570518  0.91837001  0.11047037  1
  P  P201  1  0.05472916  0.91766361  0.36084943  1
  P  P202  1  0.05638689  0.91721045  0.61103032  1
  P  P203  1  0.05485856  0.91705790  0.86064890  1
  P  P204  1  0.55364306  0.24998533  0.11099199  1
  P  P205  1  0.55448615  0.24859137  0.36094942  1
  P  P206  1  0.55411248  0.24936486  0.61037938  1
  P  P207  1  0.55301296  0.24941495  0.85975016  1
  P  P208  1  0.55205587  0.58298666  0.11084619  1
  P  P209  1  0.55300775  0.58348521  0.36005638  1
  P  P210  1  0.55302836  0.58225379  0.60939466  1
  P  P211  1  0.55371639  0.58292866  0.85965622  1
  P  P212  1  0.55211964  0.91698781  0.11025999  1
  P  P213  1  0.55441553  0.91784911  0.36126103  1
  P  P214  1  0.55394812  0.91790902  0.60946179  1
  P  P215  1  0.55279202  0.91736371  0.85941303  1
  P  P216  1  0.44634772  0.08267521  0.13900047  1
  P  P217  1  0.44657452  0.08359483  0.39078983  1
  P  P218  1  0.44524938  0.08437780  0.63864340  1
  P  P219  1  0.44509806  0.08451398  0.88880858  1
  P  P220  1  0.44732662  0.41700409  0.14107566  1
  P  P221  1  0.44452122  0.41591838  0.38885644  1
  P  P222  1  0.44766358  0.41501126  0.63931243  1
  P  P223  1  0.44821008  0.41494518  0.88964668  1
  P  P224  1  0.44783695  0.75043110  0.13993022  1
  P  P225  1  0.44546751  0.75057904  0.39096939  1
  P  P226  1  0.44397377  0.75039772  0.63906274  1
  P  P227  1  0.44634203  0.75019430  0.88805307  1
  P  P228  1  0.94747954  0.08431574  0.14038055  1
  P  P229  1  0.94707761  0.08333852  0.38901307  1
  P  P230  1  0.94804457  0.08339834  0.64047430  1
  P  P231  1  0.94570429  0.08272052  0.88871900  1
  P  P232  1  0.94586446  0.41517395  0.13902816  1
  P  P233  1  0.94678069  0.41604609  0.38850931  1
  P  P234  1  0.94834015  0.41646439  0.63990934  1
  P  P235  1  0.94574301  0.41604793  0.89074763  1
  P  P236  1  0.94697384  0.75058609  0.13993414  1
  P  P237  1  0.94696446  0.75081628  0.38962387  1
  P  P238  1  0.94875691  0.74986085  0.63992026  1
  P  P239  1  0.94700554  0.75153446  0.89047680  1
  P  P240  1  0.19382645  0.08405319  0.23574917  1
  P  P241  1  0.19561192  0.08367536  0.48566358  1
  P  P242  1  0.19741813  0.08366075  0.73534132  1
  P  P243  1  0.19642282  0.08354945  0.98639707  1
  P  P244  1  0.19469482  0.41631890  0.23545632  1
  P  P245  1  0.19356200  0.41559612  0.48541340  1
  P  P246  1  0.19626105  0.41577073  0.73467631  1
  P  P247  1  0.19568049  0.41557358  0.98634830  1
  P  P248  1  0.19643459  0.74990814  0.23496669  1
  P  P249  1  0.19614465  0.75073134  0.48585317  1
  P  P250  1  0.19721584  0.75097491  0.73467703  1
  P  P251  1  0.19753962  0.75124830  0.98515860  1
  P  P252  1  0.69689425  0.08344863  0.23573233  1
  P  P253  1  0.69453329  0.08352008  0.48560922  1
  P  P254  1  0.69549666  0.08407203  0.73535864  1
  P  P255  1  0.69420669  0.08343681  0.98560289  1
  P  P256  1  0.69836483  0.41640822  0.23485183  1
  P  P257  1  0.69545806  0.41553534  0.48599413  1
  P  P258  1  0.69438835  0.41499885  0.73510457  1
  P  P259  1  0.69582394  0.41645231  0.98573869  1
  P  P260  1  0.69648073  0.75008105  0.23424497  1
  P  P261  1  0.69716480  0.75109123  0.48499124  1
  P  P262  1  0.69577932  0.75048676  0.73553041  1
  P  P263  1  0.69397327  0.74980252  0.98515248  1
  P  P264  1  0.30363968  0.24911816  0.01390957  1
  P  P265  1  0.30090789  0.25089353  0.26478449  1
  P  P266  1  0.30241305  0.24908407  0.51518864  1
  P  P267  1  0.30442446  0.24931893  0.76406326  1
  P  P268  1  0.30472680  0.58312734  0.01592473  1
  P  P269  1  0.30289764  0.58194504  0.26349406  1
  P  P270  1  0.30235726  0.58364940  0.51479630  1
  P  P271  1  0.30312374  0.58364485  0.76503785  1
  P  P272  1  0.30327653  0.91821643  0.01570789  1
  P  P273  1  0.30310473  0.91722871  0.26368440  1
  P  P274  1  0.30175048  0.91772977  0.51431189  1
  P  P275  1  0.30202028  0.91720195  0.76449183  1
  P  P276  1  0.80414662  0.25051296  0.01574415  1
  P  P277  1  0.80664419  0.24961324  0.26439705  1
  P  P278  1  0.80367837  0.24944013  0.51395249  1
  P  P279  1  0.80144451  0.24859065  0.76455680  1
  P  P280  1  0.80279799  0.58227634  0.01497373  1
  P  P281  1  0.80418900  0.58217133  0.26587139  1
  P  P282  1  0.80618024  0.58315318  0.51481746  1
  P  P283  1  0.80476723  0.58300026  0.76350995  1
  P  P284  1  0.80419290  0.91688372  0.01394224  1
  P  P285  1  0.80465766  0.91810416  0.26564384  1
  P  P286  1  0.80366725  0.91742339  0.51416889  1
  P  P287  1  0.80434342  0.91825591  0.76547774  1
  O  O288  1  0.05807262  0.25005723  0.18736373  1
  O  O289  1  0.05895652  0.24943369  0.43766102  1
  O  O290  1  0.05973128  0.24917569  0.68783304  1
  O  O291  1  0.05952338  0.24930891  0.93728051  1
  O  O292  1  0.05877620  0.58294312  0.18775378  1
  O  O293  1  0.05605156  0.58311747  0.43572027  1
  O  O294  1  0.05591125  0.58358546  0.68677778  1
  O  O295  1  0.05669249  0.58321477  0.93692268  1
  O  O296  1  0.05950618  0.91721078  0.18729254  1
  O  O297  1  0.05944585  0.91702917  0.43757673  1
  O  O298  1  0.06009408  0.91738275  0.68781401  1
  O  O299  1  0.05977334  0.91740577  0.93732886  1
  O  O300  1  0.55693985  0.24973393  0.18768857  1
  O  O301  1  0.55834460  0.24942681  0.43767629  1
  O  O302  1  0.55817338  0.24902088  0.68708921  1
  O  O303  1  0.55640568  0.24958484  0.93641627  1
  O  O304  1  0.55563161  0.58289931  0.18748053  1
  O  O305  1  0.55672181  0.58327103  0.43674726  1
  O  O306  1  0.55612298  0.58309702  0.68616135  1
  O  O307  1  0.55595287  0.58303528  0.93644933  1
  O  O308  1  0.55562393  0.91731174  0.18690194  1
  O  O309  1  0.55858093  0.91707314  0.43793367  1
  O  O310  1  0.55691410  0.91731419  0.68616627  1
  O  O311  1  0.55540094  0.91730722  0.93623124  1
  O  O312  1  0.44149346  0.08355218  0.06233056  1
  O  O313  1  0.44219285  0.08364205  0.31408922  1
  O  O314  1  0.44011118  0.08343998  0.56207997  1
  O  O315  1  0.44027907  0.08340828  0.81210321  1
  O  O316  1  0.44393862  0.41598042  0.06432577  1
  O  O317  1  0.43940788  0.41580212  0.31221055  1
  O  O318  1  0.44333066  0.41561348  0.56268713  1
  O  O319  1  0.44425851  0.41529524  0.81302324  1
  O  O320  1  0.44468681  0.75038199  0.06317146  1
  O  O321  1  0.44228159  0.75077488  0.31416916  1
  O  O322  1  0.43922636  0.75085236  0.56235004  1
  O  O323  1  0.44071943  0.75074628  0.81145530  1
  O  O324  1  0.94366693  0.08353310  0.06370964  1
  O  O325  1  0.94269129  0.08330322  0.31241526  1
  O  O326  1  0.94385181  0.08349546  0.56378903  1
  O  O327  1  0.94132500  0.08373002  0.81187349  1
  O  O328  1  0.94110609  0.41605113  0.06242705  1
  O  O329  1  0.94249846  0.41598397  0.31184834  1
  O  O330  1  0.94477594  0.41539711  0.56321262  1
  O  O331  1  0.94267367  0.41566660  0.81396381  1
  O  O332  1  0.94341289  0.75056212  0.06322141  1
  O  O333  1  0.94420503  0.75118080  0.31289320  1
  O  O334  1  0.94492792  0.75078644  0.56324384  1
  O  O335  1  0.94432744  0.75117467  0.81366914  1
  O  O336  1  0.19181286  0.08401544  0.06327050  1
  O  O337  1  0.19016072  0.08416043  0.31254002  1
  O  O338  1  0.19186388  0.08375308  0.56242011  1
  O  O339  1  0.19434360  0.08373155  0.81142550  1
  O  O340  1  0.19117722  0.41593823  0.06305467  1
  O  O341  1  0.19027483  0.41643166  0.31221495  1
  O  O342  1  0.18974613  0.41674874  0.56218695  1
  O  O343  1  0.19359738  0.41672817  0.81143550  1
  O  O344  1  0.19430294  0.75027693  0.06188002  1
  O  O345  1  0.19366169  0.74992077  0.31175937  1
  O  O346  1  0.19149512  0.74950651  0.56250503  1
  O  O347  1  0.19387880  0.75017208  0.81137660  1
  O  O348  1  0.68982662  0.08315186  0.06235897  1
  O  O349  1  0.69185971  0.08338011  0.31233615  1
  O  O350  1  0.69053344  0.08361342  0.56235942  1
  O  O351  1  0.69073833  0.08357251  0.81204857  1
  O  O352  1  0.69076381  0.41661177  0.06239061  1
  O  O353  1  0.69420156  0.41626043  0.31153167  1
  O  O354  1  0.69092258  0.41601731  0.56271301  1
  O  O355  1  0.69051765  0.41572776  0.81194375  1
  O  O356  1  0.68938384  0.75006772  0.06192228  1
  O  O357  1  0.69343581  0.75017732  0.31099605  1
  O  O358  1  0.69370159  0.75049055  0.56174901  1
  O  O359  1  0.69095622  0.75024206  0.81227374  1
  O  O360  1  0.30526368  0.25012620  0.18811980  1
  O  O361  1  0.30575306  0.24979948  0.43853016  1
  O  O362  1  0.30902998  0.25022007  0.68737042  1
  O  O363  1  0.30873573  0.25014453  0.93734642  1
  O  O364  1  0.30851349  0.58268049  0.18688404  1
  O  O365  1  0.30511322  0.58261285  0.43799564  1
  O  O366  1  0.30599816  0.58240912  0.68826190  1
  O  O367  1  0.30806406  0.58301946  0.93914763  1
  O  O368  1  0.30860289  0.91713968  0.18710666  1
  O  O369  1  0.30509572  0.91793273  0.43767022  1
  O  O370  1  0.30537354  0.91727408  0.68767412  1
  O  O371  1  0.30684984  0.91759331  0.93901922  1
  O  O372  1  0.81022793  0.24940615  0.18764598  1
  O  O373  1  0.80968427  0.24951587  0.43738684  1
  O  O374  1  0.80565665  0.24925691  0.68792672  1
  O  O375  1  0.80664608  0.24948455  0.93890613  1
  O  O376  1  0.80671205  0.58280869  0.18907104  1
  O  O377  1  0.81091468  0.58295644  0.43807344  1
  O  O378  1  0.80982841  0.58325768  0.68677034  1
  O  O379  1  0.80552659  0.58291360  0.93817289  1
  O  O380  1  0.80748498  0.91768412  0.18883610  1
  O  O381  1  0.80941636  0.91742356  0.43761913  1
  O  O382  1  0.80740841  0.91747813  0.68868418  1
  O  O383  1  0.80877848  0.91703955  0.93729710  1
  O  O384  1  0.23329337  0.24909832  0.03756380  1
  O  O385  1  0.23076847  0.25052953  0.28882315  1
  O  O386  1  0.23229006  0.24904615  0.53951103  1
  O  O387  1  0.23405651  0.24968917  0.78769997  1
  O  O388  1  0.23488887  0.58288287  0.04044990  1
  O  O389  1  0.23246385  0.58259806  0.28693602  1
  O  O390  1  0.23272791  0.58349830  0.54005343  1
  O  O391  1  0.23360864  0.58361317  0.79064179  1
  O  O392  1  0.23322678  0.91755153  0.04011783  1
  O  O393  1  0.23259819  0.91751776  0.28682293  1
  O  O394  1  0.23181087  0.91751177  0.53915979  1
  O  O395  1  0.23212491  0.91774285  0.78943430  1
  O  O396  1  0.73453881  0.24985537  0.04102658  1
  O  O397  1  0.73664314  0.24989317  0.28884141  1
  O  O398  1  0.73312919  0.24907121  0.53658028  1
  O  O399  1  0.73150475  0.24915546  0.78922401  1
  O  O400  1  0.73325865  0.58254659  0.04041097  1
  O  O401  1  0.73467676  0.58271790  0.29153788  1
  O  O402  1  0.73599964  0.58347594  0.53837358  1
  O  O403  1  0.73462828  0.58240308  0.78710080  1
  O  O404  1  0.73408524  0.91734140  0.03789103  1
  O  O405  1  0.73491729  0.91730398  0.29054797  1
  O  O406  1  0.73324433  0.91777940  0.53731800  1
  O  O407  1  0.73464283  0.91741604  0.79047149  1
  O  O408  1  0.26384333  0.08397409  0.21142138  1
  O  O409  1  0.26574717  0.08402728  0.46110920  1
  O  O410  1  0.26749504  0.08341581  0.71009089  1
  O  O411  1  0.26663333  0.08363706  0.96240085  1
  O  O412  1  0.26499299  0.41585628  0.21143092  1
  O  O413  1  0.26356936  0.41624468  0.46123687  1
  O  O414  1  0.26584843  0.41580805  0.70919449  1
  O  O415  1  0.26570232  0.41608792  0.96219451  1
  O  O416  1  0.26602865  0.74993913  0.20953276  1
  O  O417  1  0.26631434  0.75096222  0.46167528  1
  O  O418  1  0.26722701  0.75063690  0.70996220  1
  O  O419  1  0.26717548  0.75142993  0.96005395  1
  O  O420  1  0.76736666  0.08354716  0.21241912  1
  O  O421  1  0.76465905  0.08360466  0.46157231  1
  O  O422  1  0.76577468  0.08340481  0.71136340  1
  O  O423  1  0.76440471  0.08378817  0.96213313  1
  O  O424  1  0.76858997  0.41619412  0.21103764  1
  O  O425  1  0.76560194  0.41586363  0.46225011  1
  O  O426  1  0.76439040  0.41557658  0.71074639  1
  O  O427  1  0.76614876  0.41596023  0.96212984  1
  O  O428  1  0.76619557  0.75038213  0.20922565  1
  O  O429  1  0.76692241  0.75075094  0.46017354  1
  O  O430  1  0.76588547  0.75136150  0.71173244  1
  O  O431  1  0.76408168  0.74961726  0.96140784  1
  O  O432  1  0.01759884  0.08431284  0.16460775  1
  O  O433  1  0.01739570  0.08349684  0.41297860  1
  O  O434  1  0.01833496  0.08322811  0.66426654  1
  O  O435  1  0.01546521  0.08327186  0.91282190  1
  O  O436  1  0.01629428  0.41554948  0.16252933  1
  O  O437  1  0.01710623  0.41589429  0.41241028  1
  O  O438  1  0.01834081  0.41645242  0.66457895  1
  O  O439  1  0.01545941  0.41594459  0.91565187  1
  O  O440  1  0.01672248  0.75077679  0.16470039  1
  O  O441  1  0.01658077  0.74989744  0.41506410  1
  O  O442  1  0.01881509  0.75047964  0.66442962  1
  O  O443  1  0.01647076  0.75066125  0.91613271  1
  O  O444  1  0.51664542  0.08318396  0.16283959  1
  O  O445  1  0.51671857  0.08356270  0.41459886  1
  O  O446  1  0.51572941  0.08402952  0.66182269  1
  O  O447  1  0.51553217  0.08394927  0.91216274  1
  O  O448  1  0.51739683  0.41644739  0.16571186  1
  O  O449  1  0.51475402  0.41582094  0.41214942  1
  O  O450  1  0.51778004  0.41501028  0.66343592  1
  O  O451  1  0.51827047  0.41568891  0.91412668  1
  O  O452  1  0.51768830  0.75032273  0.16514230  1
  O  O453  1  0.51519961  0.75024088  0.41574131  1
  O  O454  1  0.51420766  0.75026572  0.66240737  1
  O  O455  1  0.51677112  0.75004136  0.91127131  1
  O  O456  1  0.48398993  0.25008650  0.08571103  1
  O  O457  1  0.48457464  0.24897591  0.33645396  1
  O  O458  1  0.48378449  0.24940446  0.58632110  1
  O  O459  1  0.48304147  0.24924887  0.83486600  1
  O  O460  1  0.48217252  0.58310618  0.08563601  1
  O  O461  1  0.48316155  0.58370358  0.33556734  1
  O  O462  1  0.48335709  0.58233480  0.58428607  1
  O  O463  1  0.48428184  0.58240898  0.83367433  1
  O  O464  1  0.48229581  0.91682307  0.08488611  1
  O  O465  1  0.48443762  0.91753112  0.33699464  1
  O  O466  1  0.48402879  0.91758527  0.58472389  1
  O  O467  1  0.48332269  0.91757156  0.83371714  1
  O  O468  1  0.98392955  0.24957537  0.08650869  1
  O  O469  1  0.98424608  0.24985633  0.33722361  1
  O  O470  1  0.98590484  0.24955650  0.58644636  1
  O  O471  1  0.98538593  0.24990298  0.83645911  1
  O  O472  1  0.98464718  0.58241185  0.08688637  1
  O  O473  1  0.98264954  0.58294102  0.33448115  1
  O  O474  1  0.98262213  0.58277369  0.58492283  1
  O  O475  1  0.98341126  0.58347593  0.83540255  1
  O  O476  1  0.98571795  0.91772966  0.08633632  1
  O  O477  1  0.98441364  0.91765196  0.33718867  1
  O  O478  1  0.98640865  0.91726605  0.58651546  1
  O  O479  1  0.98453779  0.91717603  0.83698996  1
  O  O480  1  0.08773705  0.31475736  0.07745274  1
  O  O481  1  0.08784048  0.31473374  0.32750245  1
  O  O482  1  0.08967373  0.31440528  0.57826793  1
  O  O483  1  0.08933322  0.31464933  0.82772035  1
  O  O484  1  0.08822215  0.64714077  0.07782240  1
  O  O485  1  0.08704685  0.64712955  0.32630059  1
  O  O486  1  0.08601723  0.64856509  0.57730291  1
  O  O487  1  0.08717453  0.64831902  0.82775806  1
  O  O488  1  0.08883165  0.98390500  0.07796890  1
  O  O489  1  0.08818399  0.98273391  0.32795674  1
  O  O490  1  0.09001541  0.98236585  0.57808073  1
  O  O491  1  0.08837786  0.98173322  0.82711015  1
  O  O492  1  0.58768699  0.31525794  0.07888662  1
  O  O493  1  0.58848137  0.31334278  0.32778632  1
  O  O494  1  0.58777407  0.31425726  0.57720047  1
  O  O495  1  0.58711421  0.31428389  0.82707190  1
  O  O496  1  0.58598560  0.64799324  0.07824810  1
  O  O497  1  0.58701668  0.64846875  0.32762049  1
  O  O498  1  0.58703306  0.64740669  0.57697889  1
  O  O499  1  0.58768375  0.64807976  0.82728814  1
  O  O500  1  0.58604219  0.98204491  0.07755766  1
  O  O501  1  0.58772828  0.98316582  0.32842759  1
  O  O502  1  0.58781688  0.98316499  0.57736721  1
  O  O503  1  0.58698319  0.98267628  0.82754707  1
  O  O504  1  0.41324622  0.01747914  0.17199921  1
  O  O505  1  0.41264951  0.01872423  0.42377949  1
  O  O506  1  0.41190997  0.01954503  0.67260856  1
  O  O507  1  0.41141378  0.01991151  0.92263202  1
  O  O508  1  0.41288758  0.35225368  0.17394280  1
  O  O509  1  0.41132949  0.35089643  0.42228929  1
  O  O510  1  0.41405292  0.34992511  0.67201669  1
  O  O511  1  0.41481625  0.34974956  0.92250294  1
  O  O512  1  0.41377391  0.68536801  0.17235461  1
  O  O513  1  0.41082749  0.68577559  0.42312609  1
  O  O514  1  0.41041362  0.68547547  0.67216837  1
  O  O515  1  0.41330710  0.68515931  0.92147819  1
  O  O516  1  0.91369521  0.01949487  0.17367025  1
  O  O517  1  0.91393220  0.01828838  0.42245303  1
  O  O518  1  0.91408782  0.01853327  0.67322469  1
  O  O519  1  0.91237811  0.01743697  0.92154835  1
  O  O520  1  0.91295955  0.34992398  0.17223067  1
  O  O521  1  0.91358978  0.35102374  0.42207435  1
  O  O522  1  0.91468543  0.35139372  0.67295283  1
  O  O523  1  0.91150519  0.35108436  0.92320028  1
  O  O524  1  0.91312796  0.68542071  0.17232260  1
  O  O525  1  0.91248400  0.68572398  0.42134528  1
  O  O526  1  0.91504620  0.68473239  0.67226535  1
  O  O527  1  0.91228414  0.68659332  0.92248840  1
  O  O528  1  0.16013062  0.01905471  0.20294054  1
  O  O529  1  0.16205089  0.01867729  0.45260564  1
  O  O530  1  0.16313852  0.01886353  0.70235815  1
  O  O531  1  0.16330514  0.01826317  0.95356616  1
  O  O532  1  0.16096909  0.35132498  0.20241710  1
  O  O533  1  0.16041208  0.35001029  0.45304879  1
  O  O534  1  0.16200314  0.35059569  0.70284721  1
  O  O535  1  0.16245973  0.35033499  0.95350064  1
  O  O536  1  0.16234023  0.68483367  0.20280064  1
  O  O537  1  0.16292272  0.68578966  0.45220679  1
  O  O538  1  0.16310603  0.68614447  0.70160683  1
  O  O539  1  0.16373205  0.68613957  0.95246345  1
  O  O540  1  0.66347904  0.01857577  0.20215489  1
  O  O541  1  0.66099096  0.01845510  0.45257561  1
  O  O542  1  0.66164705  0.01939549  0.70190152  1
  O  O543  1  0.66071809  0.01866015  0.95202902  1
  O  O544  1  0.66457996  0.35156814  0.20180483  1
  O  O545  1  0.66225661  0.35032119  0.45296712  1
  O  O546  1  0.66099402  0.34959048  0.70268230  1
  O  O547  1  0.66225764  0.35148792  0.95244786  1
  O  O548  1  0.66240466  0.68498606  0.20188026  1
  O  O549  1  0.66327955  0.68603857  0.45233108  1
  O  O550  1  0.66284764  0.68530299  0.70210311  1
  O  O551  1  0.66038061  0.68480222  0.95213330  1
  O  O552  1  0.33669432  0.31401988  0.04783069  1
  O  O553  1  0.33448111  0.31588647  0.29745274  1
  O  O554  1  0.33615691  0.31397477  0.54839883  1
  O  O555  1  0.33800032  0.31400299  0.79792357  1
  O  O556  1  0.33865736  0.64829254  0.04835726  1
  O  O557  1  0.33628393  0.64687008  0.29696957  1
  O  O558  1  0.33651062  0.64880832  0.54642592  1
  O  O559  1  0.33733330  0.64893000  0.79655984  1
  O  O560  1  0.33682088  0.98341788  0.04832431  1
  O  O561  1  0.33611812  0.98229466  0.29718943  1
  O  O562  1  0.33534405  0.98287723  0.54712974  1
  O  O563  1  0.33613446  0.98214692  0.79689033  1
  O  O564  1  0.83819459  0.31575097  0.04758697  1
  O  O565  1  0.84044914  0.31466630  0.29723360  1
  O  O566  1  0.83647435  0.31443029  0.54786191  1
  O  O567  1  0.83556172  0.31341908  0.79742299  1
  O  O568  1  0.83711840  0.64714082  0.04747941  1
  O  O569  1  0.83889528  0.64706085  0.29808824  1
  O  O570  1  0.83994269  0.64804540  0.54794124  1
  O  O571  1  0.83760494  0.64830472  0.79684945  1
  O  O572  1  0.83784318  0.98179692  0.04720183  1
  O  O573  1  0.83848981  0.98336030  0.29805698  1
  O  O574  1  0.83691432  0.98231218  0.54777634  1
  O  O575  1  0.83799002  0.98376817  0.79746999  1
  O  O576  1  0.41282981  0.14754208  0.17264549  1
  O  O577  1  0.41267076  0.14847891  0.42370426  1
  O  O578  1  0.41213969  0.14949835  0.67186910  1
  O  O579  1  0.41213800  0.14981261  0.92192278  1
  O  O580  1  0.41332145  0.48217255  0.17316011  1
  O  O581  1  0.41129917  0.48097015  0.42217305  1
  O  O582  1  0.41415527  0.47996594  0.67258175  1
  O  O583  1  0.41409757  0.47973476  0.92245871  1
  O  O584  1  0.41392337  0.81560995  0.17226034  1
  O  O585  1  0.41142570  0.81566735  0.42345959  1
  O  O586  1  0.41070923  0.81555621  0.67245417  1
  O  O587  1  0.41348917  0.81525187  0.92189007  1
  O  O588  1  0.91362685  0.14933175  0.17297283  1
  O  O589  1  0.91385560  0.14844739  0.42235564  1
  O  O590  1  0.91430332  0.14836620  0.67346516  1
  O  O591  1  0.91187084  0.14758144  0.92198038  1
  O  O592  1  0.91231533  0.47985358  0.17289279  1
  O  O593  1  0.91366158  0.48123010  0.42153243  1
  O  O594  1  0.91429414  0.48142734  0.67203580  1
  O  O595  1  0.91153267  0.48100009  0.92317864  1
  O  O596  1  0.91303367  0.81557438  0.17244604  1
  O  O597  1  0.91362721  0.81620859  0.42238845  1
  O  O598  1  0.91483976  0.81483538  0.67278312  1
  O  O599  1  0.91317194  0.81688873  0.92243901  1
  O  O600  1  0.08779584  0.18478370  0.07755188  1
  O  O601  1  0.08783782  0.18478494  0.32755302  1
  O  O602  1  0.08943525  0.18427115  0.57801801  1
  O  O603  1  0.08915987  0.18496716  0.82727497  1
  O  O604  1  0.08795703  0.51685557  0.07843759  1
  O  O605  1  0.08642267  0.51720371  0.32661593  1
  O  O606  1  0.08658789  0.51834499  0.57774250  1
  O  O607  1  0.08693299  0.51827664  0.82760943  1
  O  O608  1  0.08995286  0.85390076  0.07707634  1
  O  O609  1  0.08811536  0.85277489  0.32724421  1
  O  O610  1  0.09009239  0.85217140  0.57817422  1
  O  O611  1  0.08825909  0.85200028  0.82744701  1
  O  O612  1  0.58754905  0.18496673  0.07834934  1
  O  O613  1  0.58801071  0.18331321  0.32842227  1
  O  O614  1  0.58761376  0.18431560  0.57723035  1
  O  O615  1  0.58689667  0.18432387  0.82691570  1
  O  O616  1  0.58590346  0.51770797  0.07838506  1
  O  O617  1  0.58671717  0.51837824  0.32729038  1
  O  O618  1  0.58717369  0.51708834  0.57752229  1
  O  O619  1  0.58824905  0.51771832  0.82811041  1
  O  O620  1  0.58620190  0.85187540  0.07793461  1
  O  O621  1  0.58811521  0.85301798  0.32798355  1
  O  O622  1  0.58825465  0.85314444  0.57667115  1
  O  O623  1  0.58706247  0.85239601  0.82725036  1
  O  O624  1  0.33684041  0.18400050  0.04714478  1
  O  O625  1  0.33459114  0.18588403  0.29782858  1
  O  O626  1  0.33649624  0.18413508  0.54762440  1
  O  O627  1  0.33753412  0.18403045  0.79696374  1
  O  O628  1  0.33894019  0.51825998  0.04850533  1
  O  O629  1  0.33547240  0.51658223  0.29676326  1
  O  O630  1  0.33631731  0.51855544  0.54745606  1
  O  O631  1  0.33724253  0.51853537  0.79754138  1
  O  O632  1  0.33763797  0.85345876  0.04854503  1
  O  O633  1  0.33602440  0.85217242  0.29717429  1
  O  O634  1  0.33570537  0.85284656  0.54697129  1
  O  O635  1  0.33558560  0.85206910  0.79708282  1
  O  O636  1  0.83886529  0.18588759  0.04841825  1
  O  O637  1  0.84013436  0.18448342  0.29755237  1
  O  O638  1  0.83682075  0.18458270  0.54767329  1
  O  O639  1  0.83516525  0.18342659  0.79719699  1
  O  O640  1  0.83696826  0.51709560  0.04693561  1
  O  O641  1  0.83840593  0.51693689  0.29779418  1
  O  O642  1  0.83942856  0.51803609  0.54812117  1
  O  O643  1  0.83820082  0.51792556  0.79645592  1
  O  O644  1  0.83732518  0.85179966  0.04718183  1
  O  O645  1  0.83931344  0.85336695  0.29815711  1
  O  O646  1  0.83667569  0.85242780  0.54790074  1
  O  O647  1  0.83914475  0.85370362  0.79819130  1
  O  O648  1  0.16028781  0.14915161  0.20272264  1
  O  O649  1  0.16166623  0.14858642  0.45273459  1
  O  O650  1  0.16363549  0.14875203  0.70218567  1
  O  O651  1  0.16292012  0.14825211  0.95298933  1
  O  O652  1  0.16140632  0.48134881  0.20224848  1
  O  O653  1  0.15943583  0.48010451  0.45185185  1
  O  O654  1  0.16180244  0.48057213  0.70194711  1
  O  O655  1  0.16209243  0.48056680  0.95321819  1
  O  O656  1  0.16241273  0.81516390  0.20297015  1
  O  O657  1  0.16262528  0.81590397  0.45325222  1
  O  O658  1  0.16343564  0.81614693  0.70244040  1
  O  O659  1  0.16338018  0.81644891  0.95336083  1
  O  O660  1  0.66351807  0.14836598  0.20229271  1
  O  O661  1  0.66095855  0.14846340  0.45234621  1
  O  O662  1  0.66213853  0.14917808  0.70218545  1
  O  O663  1  0.66064983  0.14841420  0.95254556  1
  O  O664  1  0.66455887  0.48135953  0.20197713  1
  O  O665  1  0.66211597  0.48059262  0.45272868  1
  O  O666  1  0.66033110  0.47964974  0.70177776  1
  O  O667  1  0.66260869  0.48132417  0.95210736  1
  O  O668  1  0.66210605  0.81494666  0.20172478  1
  O  O669  1  0.66330646  0.81630367  0.45276457  1
  O  O670  1  0.66185894  0.81536116  0.70273330  1
  O  O671  1  0.66046672  0.81481662  0.95183113  1
