# generated using pymatgen
data_Na2MnFe(PO4)2
_symmetry_space_group_name_H-M   'P 1'
_cell_length_a   21.07968799
_cell_length_b   18.93120121
_cell_length_c   20.03872800
_cell_angle_alpha   89.99998640
_cell_angle_beta   90.00428455
_cell_angle_gamma   90.00080334
_symmetry_Int_Tables_number   1
_chemical_formula_structural   Na2MnFe(PO4)2
_chemical_formula_sum   'Na96 Mn48 Fe48 P96 O384'
_cell_volume   7996.73121447
_cell_formula_units_Z   48
loop_
 _symmetry_equiv_pos_site_id
 _symmetry_equiv_pos_as_xyz
  1  'x, y, z'
loop_
 _atom_site_type_symbol
 _atom_site_label
 _atom_site_symmetry_multiplicity
 _atom_site_fract_x
 _atom_site_fract_y
 _atom_site_fract_z
 _atom_site_occupancy
  Na  Na0  1  -0.00154623  0.00014732  -0.00122056  1
  Na  Na1  1  -0.00249316  -0.00063560  0.25119307  1
  Na  Na2  1  -0.00170608  -0.00031831  0.50107305  1
  Na  Na3  1  -0.00177606  -0.00026141  0.74864070  1
  Na  Na4  1  0.00097494  0.33312654  0.00012778  1
  Na  Na5  1  0.00009537  0.33344707  0.24985965  1
  Na  Na6  1  -0.00202695  0.33317186  0.49927649  1
  Na  Na7  1  -0.00048770  0.33340632  0.74998585  1
  Na  Na8  1  0.00244935  0.66713057  -0.00085261  1
  Na  Na9  1  0.00210738  0.66725228  0.24923105  1
  Na  Na10  1  -0.00004857  0.66609110  0.50104303  1
  Na  Na11  1  0.00022725  0.66612593  0.75084799  1
  Na  Na12  1  0.50034583  -0.00053102  0.00051453  1
  Na  Na13  1  0.50103306  -0.00029203  0.25064159  1
  Na  Na14  1  0.50211030  0.00012810  0.50014004  1
  Na  Na15  1  0.50172026  0.00006774  0.74965735  1
  Na  Na16  1  0.49935746  0.33321302  -0.00074159  1
  Na  Na17  1  0.50195183  0.33409045  0.24983520  1
  Na  Na18  1  0.50139214  0.33321575  0.50065781  1
  Na  Na19  1  0.49989093  0.33305077  0.74998752  1
  Na  Na20  1  0.49973548  0.66710578  -0.00137133  1
  Na  Na21  1  0.50034689  0.66674551  0.25042382  1
  Na  Na22  1  0.50000473  0.66654226  0.50096452  1
  Na  Na23  1  0.49969693  0.66719428  0.74940540  1
  Na  Na24  1  0.24929719  -0.00022565  0.12420256  1
  Na  Na25  1  0.24892316  -0.00014800  0.37479015  1
  Na  Na26  1  0.24886329  -0.00094924  0.62504357  1
  Na  Na27  1  0.25155932  0.00057159  0.87628516  1
  Na  Na28  1  0.25043046  0.33319734  0.12579416  1
  Na  Na29  1  0.24906160  0.33249356  0.37417045  1
  Na  Na30  1  0.25251831  0.33400498  0.62528203  1
  Na  Na31  1  0.25236077  0.33378378  0.87482206  1
  Na  Na32  1  0.24795021  0.66582818  0.12519936  1
  Na  Na33  1  0.24820502  0.66654759  0.37506590  1
  Na  Na34  1  0.24963518  0.66692169  0.62359242  1
  Na  Na35  1  0.24974502  0.66654322  0.87605861  1
  Na  Na36  1  0.75165526  -0.00011287  0.12432886  1
  Na  Na37  1  0.75225828  -0.00007298  0.37553729  1
  Na  Na38  1  0.75000406  -0.00025077  0.62510997  1
  Na  Na39  1  0.75016831  -0.00035066  0.87536464  1
  Na  Na40  1  0.74904457  0.33364504  0.12553529  1
  Na  Na41  1  0.74858456  0.33305555  0.37463140  1
  Na  Na42  1  0.74935583  0.33379161  0.62534029  1
  Na  Na43  1  0.74697767  0.33209341  0.87405428  1
  Na  Na44  1  0.74897438  0.66661396  0.12469596  1
  Na  Na45  1  0.75010625  0.66611219  0.37507393  1
  Na  Na46  1  0.75133656  0.66688013  0.62512403  1
  Na  Na47  1  0.75000407  0.66665807  0.87554883  1
  Na  Na48  1  0.00215427  0.16575037  -0.00111517  1
  Na  Na49  1  0.00055521  0.16617011  0.24989627  1
  Na  Na50  1  -0.00257902  0.16681705  0.49948675  1
  Na  Na51  1  -0.00227901  0.16716661  0.75033579  1
  Na  Na52  1  0.00046042  0.50064771  0.00065063  1
  Na  Na53  1  -0.00105204  0.50041599  0.24980433  1
  Na  Na54  1  -0.00309760  0.50107183  0.50063328  1
  Na  Na55  1  -0.00062114  0.50068400  0.74963789  1
  Na  Na56  1  -0.00123766  0.83388494  -0.00159104  1
  Na  Na57  1  -0.00036218  0.83371260  0.25049511  1
  Na  Na58  1  0.00219628  0.83229028  0.50136385  1
  Na  Na59  1  0.00048972  0.83323088  0.74949432  1
  Na  Na60  1  0.50169054  0.16620521  -0.00064170  1
  Na  Na61  1  0.50089394  0.16789382  0.25090513  1
  Na  Na62  1  0.50233861  0.16649982  0.50008223  1
  Na  Na63  1  0.50210687  0.16592952  0.75050494  1
  Na  Na64  1  0.49689395  0.50099415  -0.00094619  1
  Na  Na65  1  0.49802626  0.50035401  0.24921096  1
  Na  Na66  1  0.49868140  0.50049111  0.50138106  1
  Na  Na67  1  0.49910886  0.50027338  0.74905835  1
  Na  Na68  1  0.50127249  0.83264824  -0.00007218  1
  Na  Na69  1  0.50344717  0.83253234  0.25060261  1
  Na  Na70  1  0.50275416  0.83314413  0.50030176  1
  Na  Na71  1  0.49999443  0.83382334  0.74937569  1
  Na  Na72  1  0.24798005  0.16739709  0.12490952  1
  Na  Na73  1  0.24791615  0.16695373  0.37422203  1
  Na  Na74  1  0.25163559  0.16542460  0.62469352  1
  Na  Na75  1  0.24983673  0.16686472  0.87585808  1
  Na  Na76  1  0.25081439  0.50050589  0.12522275  1
  Na  Na77  1  0.25101462  0.50009271  0.37459028  1
  Na  Na78  1  0.25138862  0.50029868  0.62408365  1
  Na  Na79  1  0.25250124  0.49991505  0.87545678  1
  Na  Na80  1  0.24899032  0.83345112  0.12510193  1
  Na  Na81  1  0.24730782  0.83361168  0.37525337  1
  Na  Na82  1  0.24796360  0.83392711  0.62489395  1
  Na  Na83  1  0.25113802  0.83262250  0.87607758  1
  Na  Na84  1  0.74859062  0.16707608  0.12480569  1
  Na  Na85  1  0.75080650  0.16632368  0.37588043  1
  Na  Na86  1  0.74943923  0.16659959  0.62601214  1
  Na  Na87  1  0.74744321  0.16708812  0.87386285  1
  Na  Na88  1  0.75154087  0.49966367  0.12545589  1
  Na  Na89  1  0.75320514  0.49902682  0.37533612  1
  Na  Na90  1  0.75160862  0.50056139  0.62488838  1
  Na  Na91  1  0.75055990  0.50062685  0.87488013  1
  Na  Na92  1  0.74858932  0.83372986  0.12478662  1
  Na  Na93  1  0.74820439  0.83380104  0.37361033  1
  Na  Na94  1  0.74867881  0.83363704  0.62505479  1
  Na  Na95  1  0.74990127  0.83282161  0.87597935  1
  Mn  Mn96  1  0.35799791  0.74963110  0.00266759  1
  Mn  Mn97  1  0.60846352  0.75038211  0.62312370  1
  Mn  Mn98  1  0.39284753  0.24931104  0.87723998  1
  Mn  Mn99  1  0.89129850  0.25024938  0.37707754  1
  Mn  Mn100  1  0.60843162  0.08324920  0.12308357  1
  Mn  Mn101  1  0.10715760  0.08368259  0.62340240  1
  Mn  Mn102  1  0.85789658  0.74974369  0.25221286  1
  Mn  Mn103  1  0.39312932  0.24894777  0.62680757  1
  Mn  Mn104  1  0.35820526  0.08416525  0.00279525  1
  Mn  Mn105  1  0.35744797  0.75054690  0.25245254  1
  Mn  Mn106  1  0.60951861  0.08353173  0.37214653  1
  Mn  Mn107  1  0.89143525  0.25052062  0.87763404  1
  Mn  Mn108  1  0.10781946  0.75049092  0.87212026  1
  Mn  Mn109  1  0.64220892  0.91718320  0.99743725  1
  Mn  Mn110  1  0.10629413  0.08302421  0.37300757  1
  Mn  Mn111  1  0.14160811  0.91699190  0.99735183  1
  Mn  Mn112  1  0.10786361  0.41637541  0.62273597  1
  Mn  Mn113  1  0.60792103  0.41664813  0.62262562  1
  Mn  Mn114  1  0.60674684  0.41763183  0.87248278  1
  Mn  Mn115  1  0.85809454  0.74975012  0.50230372  1
  Mn  Mn116  1  0.39305598  0.91623563  0.37727541  1
  Mn  Mn117  1  0.39270620  0.91663393  0.12806520  1
  Mn  Mn118  1  0.39179847  0.58393558  0.62766171  1
  Mn  Mn119  1  0.85756500  0.41597919  0.00181273  1
  Mn  Mn120  1  0.10771302  0.08299096  0.87186616  1
  Mn  Mn121  1  0.10800396  0.41646383  0.12244662  1
  Mn  Mn122  1  0.60737657  0.41776484  0.12259256  1
  Mn  Mn123  1  0.89204963  0.91598327  0.62780571  1
  Mn  Mn124  1  0.64120711  0.58260246  0.99741277  1
  Mn  Mn125  1  0.35725836  0.75064731  0.50141396  1
  Mn  Mn126  1  0.64199106  0.58308746  0.24791665  1
  Mn  Mn127  1  0.85752446  0.74960120  0.00226660  1
  Mn  Mn128  1  0.14187702  0.58290965  0.49754893  1
  Mn  Mn129  1  0.39278726  0.25032512  0.37718239  1
  Mn  Mn130  1  0.14055430  0.91688061  0.24726772  1
  Mn  Mn131  1  0.85753805  0.41688597  0.75296834  1
  Mn  Mn132  1  0.89208259  0.24935567  0.12689554  1
  Mn  Mn133  1  0.35786681  0.41638117  0.25278248  1
  Mn  Mn134  1  0.89310169  0.58394078  0.12707906  1
  Mn  Mn135  1  0.14280746  0.24989679  0.74682171  1
  Mn  Mn136  1  0.14159312  0.24983409  0.49847845  1
  Mn  Mn137  1  0.10716110  0.41719899  0.37326345  1
  Mn  Mn138  1  0.10884212  0.41675395  0.87260891  1
  Mn  Mn139  1  0.35724415  0.08303454  0.25201828  1
  Mn  Mn140  1  0.39230286  0.91721244  0.62704331  1
  Mn  Mn141  1  0.35812361  0.08321462  0.50182117  1
  Mn  Mn142  1  0.64301064  0.58306761  0.49726634  1
  Mn  Mn143  1  0.85731409  0.08412915  0.00191259  1
  Fe  Fe144  1  0.85571231  0.08268380  0.75178947  1
  Fe  Fe145  1  0.39264930  0.58360325  0.37616498  1
  Fe  Fe146  1  0.39287200  0.24984229  0.12696921  1
  Fe  Fe147  1  0.14333131  0.25081972  0.99838657  1
  Fe  Fe148  1  0.10709470  0.75105333  0.12330143  1
  Fe  Fe149  1  0.64348277  0.91688130  0.49788242  1
  Fe  Fe150  1  0.64374297  0.25020543  0.49838124  1
  Fe  Fe151  1  0.39208469  0.58379072  0.12709908  1
  Fe  Fe152  1  0.14196966  0.25015577  0.24753185  1
  Fe  Fe153  1  0.14369148  0.58224160  0.99802028  1
  Fe  Fe154  1  0.64153396  0.25034653  0.99854401  1
  Fe  Fe155  1  0.64280591  0.91604254  0.74895145  1
  Fe  Fe156  1  0.14305364  0.91661944  0.74917409  1
  Fe  Fe157  1  0.35732828  0.41628609  0.00183286  1
  Fe  Fe158  1  0.89223123  0.91527143  0.37734276  1
  Fe  Fe159  1  0.85652745  0.08380577  0.50243505  1
  Fe  Fe160  1  0.85762965  0.08389636  0.25106600  1
  Fe  Fe161  1  0.64307307  0.58367062  0.74869502  1
  Fe  Fe162  1  0.60837514  0.08296496  0.62349093  1
  Fe  Fe163  1  0.35808134  0.41613868  0.50075005  1
  Fe  Fe164  1  0.14330114  0.58348527  0.74877240  1
  Fe  Fe165  1  0.10751423  0.74958411  0.62449747  1
  Fe  Fe166  1  0.64318298  0.24974110  0.24815502  1
  Fe  Fe167  1  0.39311589  0.91638246  0.87576504  1
  Fe  Fe168  1  0.35849306  0.08258259  0.75165926  1
  Fe  Fe169  1  0.60742792  0.08210875  0.87264743  1
  Fe  Fe170  1  0.10655492  0.08258666  0.12362377  1
  Fe  Fe171  1  0.64398640  0.91725411  0.24835242  1
  Fe  Fe172  1  0.89117047  0.25064549  0.62690479  1
  Fe  Fe173  1  0.64258452  0.25025320  0.74767780  1
  Fe  Fe174  1  0.60782360  0.41791252  0.37372499  1
  Fe  Fe175  1  0.85730888  0.41625347  0.25175966  1
  Fe  Fe176  1  0.85704570  0.41591195  0.50181276  1
  Fe  Fe177  1  0.89205210  0.91608900  0.87575948  1
  Fe  Fe178  1  0.85738317  0.75039039  0.75182834  1
  Fe  Fe179  1  0.89292242  0.58424548  0.37609675  1
  Fe  Fe180  1  0.89308971  0.58345146  0.87684145  1
  Fe  Fe181  1  0.35764969  0.41685255  0.75154067  1
  Fe  Fe182  1  0.35689347  0.75050866  0.75132928  1
  Fe  Fe183  1  0.60691018  0.75003524  0.87253762  1
  Fe  Fe184  1  0.60783605  0.74878806  0.37326029  1
  Fe  Fe185  1  0.60713792  0.74927154  0.12351402  1
  Fe  Fe186  1  0.39224794  0.58466278  0.87590530  1
  Fe  Fe187  1  0.89260586  0.91645409  0.12645830  1
  Fe  Fe188  1  0.14244862  0.58266993  0.24846994  1
  Fe  Fe189  1  0.14180094  0.91735871  0.49825588  1
  Fe  Fe190  1  0.89284871  0.58350472  0.62784162  1
  Fe  Fe191  1  0.10662975  0.74976309  0.37336114  1
  P  P192  1  0.05483821  0.24895374  0.11015547  1
  P  P193  1  0.05319702  0.25013653  0.35938265  1
  P  P194  1  0.05087571  0.24988508  0.60990422  1
  P  P195  1  0.05445352  0.25032263  0.86043868  1
  P  P196  1  0.05575277  0.58412979  0.11037397  1
  P  P197  1  0.05257473  0.58371823  0.35970018  1
  P  P198  1  0.05386291  0.58374387  0.61178960  1
  P  P199  1  0.05454929  0.58297797  0.86034411  1
  P  P200  1  0.05156149  0.91706444  0.10962840  1
  P  P201  1  0.05241699  0.91610692  0.36172112  1
  P  P202  1  0.05524665  0.91608748  0.61131751  1
  P  P203  1  0.05214975  0.91693002  0.85859787  1
  P  P204  1  0.55404310  0.25041065  0.11047851  1
  P  P205  1  0.55628096  0.25150623  0.36083784  1
  P  P206  1  0.55616048  0.24896221  0.61057043  1
  P  P207  1  0.55536105  0.24935658  0.86035438  1
  P  P208  1  0.55144161  0.58387378  0.10971393  1
  P  P209  1  0.55224254  0.58272027  0.36037098  1
  P  P210  1  0.55476693  0.58366939  0.61111412  1
  P  P211  1  0.55213156  0.58426727  0.85886922  1
  P  P212  1  0.55513316  0.91592839  0.11141376  1
  P  P213  1  0.55638175  0.91593220  0.36065062  1
  P  P214  1  0.55595720  0.91749872  0.61058585  1
  P  P215  1  0.55311069  0.91620768  0.85948732  1
  P  P216  1  0.44738189  0.08455355  0.14057193  1
  P  P217  1  0.44789723  0.08342325  0.39010984  1
  P  P218  1  0.44829306  0.08317734  0.64059372  1
  P  P219  1  0.44702585  0.08191468  0.88881689  1
  P  P220  1  0.44486555  0.41632685  0.13851144  1
  P  P221  1  0.44784557  0.41722797  0.39055360  1
  P  P222  1  0.44504332  0.41619085  0.63950069  1
  P  P223  1  0.44410053  0.41775252  0.88892569  1
  P  P224  1  0.44774901  0.74943220  0.14030041  1
  P  P225  1  0.44833621  0.74955739  0.39007497  1
  P  P226  1  0.44593319  0.75076673  0.64049188  1
  P  P227  1  0.44602412  0.75063087  0.88807353  1
  P  P228  1  0.94694182  0.08271956  0.14010247  1
  P  P229  1  0.94345125  0.08248237  0.38969736  1
  P  P230  1  0.94357109  0.08426363  0.63957743  1
  P  P231  1  0.94451432  0.08251101  0.88817991  1
  P  P232  1  0.94606319  0.41634693  0.14054082  1
  P  P233  1  0.94434289  0.41761228  0.38935193  1
  P  P234  1  0.94494406  0.41658528  0.63899670  1
  P  P235  1  0.94707633  0.41777740  0.89033242  1
  P  P236  1  0.94789251  0.75071995  0.13955419  1
  P  P237  1  0.94773250  0.74964680  0.39016178  1
  P  P238  1  0.94719576  0.74923934  0.64095501  1
  P  P239  1  0.94507489  0.74983286  0.88828688  1
  P  P240  1  0.19505866  0.08359441  0.23412477  1
  P  P241  1  0.19608370  0.08277437  0.48496499  1
  P  P242  1  0.19844898  0.08235549  0.73522663  1
  P  P243  1  0.19512302  0.08418475  0.98621779  1
  P  P244  1  0.19625495  0.41708423  0.23527541  1
  P  P245  1  0.19810720  0.41643373  0.48472671  1
  P  P246  1  0.19845745  0.41773834  0.73493971  1
  P  P247  1  0.19822486  0.41654560  0.98530854  1
  P  P248  1  0.19417829  0.74913294  0.23563210  1
  P  P249  1  0.19389129  0.75071166  0.48563024  1
  P  P250  1  0.19731615  0.74997188  0.73501869  1
  P  P251  1  0.19504140  0.74939715  0.98639976  1
  P  P252  1  0.69859097  0.08297649  0.23521197  1
  P  P253  1  0.69698559  0.08331650  0.48664744  1
  P  P254  1  0.69542032  0.08230610  0.73597146  1
  P  P255  1  0.69559390  0.08408048  0.98409185  1
  P  P256  1  0.69654274  0.41659892  0.23636592  1
  P  P257  1  0.69758474  0.41646099  0.48470920  1
  P  P258  1  0.69623251  0.41778433  0.73516173  1
  P  P259  1  0.69614866  0.41622584  0.98459816  1
  P  P260  1  0.69501735  0.75026924  0.23536079  1
  P  P261  1  0.69652766  0.75042343  0.48427930  1
  P  P262  1  0.69672437  0.74974501  0.73663086  1
  P  P263  1  0.69421907  0.74965723  0.98525284  1
  P  P264  1  0.30338291  0.25059077  0.01576506  1
  P  P265  1  0.30299013  0.24951521  0.26392637  1
  P  P266  1  0.30350572  0.25042418  0.51473361  1
  P  P267  1  0.30417598  0.24920923  0.76486244  1
  P  P268  1  0.30447493  0.58293325  0.01453600  1
  P  P269  1  0.30373850  0.58392527  0.26467560  1
  P  P270  1  0.30499254  0.58292418  0.51319237  1
  P  P271  1  0.30275349  0.58428938  0.76516122  1
  P  P272  1  0.30473784  0.91654436  0.01422792  1
  P  P273  1  0.30241387  0.91647930  0.26543376  1
  P  P274  1  0.30182488  0.91648388  0.51486313  1
  P  P275  1  0.30287756  0.91642510  0.76553966  1
  P  P276  1  0.80107042  0.25006555  0.01499615  1
  P  P277  1  0.80226109  0.24989429  0.26469151  1
  P  P278  1  0.80260300  0.25038253  0.51555316  1
  P  P279  1  0.80269772  0.24939430  0.76384729  1
  P  P280  1  0.80405056  0.58322720  0.01426464  1
  P  P281  1  0.80409882  0.58301694  0.26533739  1
  P  P282  1  0.80584133  0.58274401  0.51451886  1
  P  P283  1  0.80423585  0.58458656  0.76479275  1
  P  P284  1  0.80508064  0.91645452  0.01443654  1
  P  P285  1  0.80471754  0.91704105  0.26404938  1
  P  P286  1  0.80361624  0.91638267  0.51403661  1
  P  P287  1  0.80238735  0.91615276  0.76534947  1
  O  O288  1  0.05860202  0.25021542  0.18699076  1
  O  O289  1  0.05606831  0.25010715  0.43622891  1
  O  O290  1  0.05558952  0.24983347  0.68662623  1
  O  O291  1  0.05953389  0.25055905  0.93718438  1
  O  O292  1  0.05920692  0.58277689  0.18717758  1
  O  O293  1  0.05576168  0.58252014  0.43650217  1
  O  O294  1  0.05923027  0.58305082  0.68843791  1
  O  O295  1  0.05975166  0.58251488  0.93703115  1
  O  O296  1  0.05461825  0.91707011  0.18642124  1
  O  O297  1  0.05703962  0.91711100  0.43838772  1
  O  O298  1  0.05972685  0.91711071  0.68805422  1
  O  O299  1  0.05610721  0.91714832  0.93531975  1
  O  O300  1  0.55938736  0.25026702  0.18722617  1
  O  O301  1  0.56063552  0.25023882  0.43765423  1
  O  O302  1  0.55997866  0.25001228  0.68747006  1
  O  O303  1  0.55864215  0.25032038  0.93720430  1
  O  O304  1  0.55565535  0.58288704  0.18638635  1
  O  O305  1  0.55591217  0.58261944  0.43706356  1
  O  O306  1  0.55941817  0.58365890  0.68782442  1
  O  O307  1  0.55550939  0.58330060  0.93561433  1
  O  O308  1  0.55965747  0.91719163  0.18814913  1
  O  O309  1  0.56028204  0.91718636  0.43750919  1
  O  O310  1  0.56001608  0.91645902  0.68736539  1
  O  O311  1  0.55627173  0.91642028  0.93623557  1
  O  O312  1  0.44442329  0.08397956  0.06370373  1
  O  O313  1  0.44393049  0.08347500  0.31337263  1
  O  O314  1  0.44414832  0.08319598  0.56388542  1
  O  O315  1  0.44219086  0.08266765  0.81212276  1
  O  O316  1  0.44109287  0.41608857  0.06169253  1
  O  O317  1  0.44408700  0.41628243  0.31373335  1
  O  O318  1  0.44107337  0.41612707  0.56273019  1
  O  O319  1  0.44040282  0.41679655  0.81204281  1
  O  O320  1  0.44412515  0.75004952  0.06352404  1
  O  O321  1  0.44435357  0.75043093  0.31338814  1
  O  O322  1  0.44257372  0.75078014  0.56373314  1
  O  O323  1  0.44110374  0.75059534  0.81144234  1
  O  O324  1  0.94351977  0.08407380  0.06334028  1
  O  O325  1  0.93988379  0.08362502  0.31284102  1
  O  O326  1  0.93945064  0.08355583  0.56268501  1
  O  O327  1  0.93963032  0.08322464  0.81143402  1
  O  O328  1  0.94302381  0.41616610  0.06373864  1
  O  O329  1  0.94052109  0.41623625  0.31254071  1
  O  O330  1  0.94091373  0.41614205  0.56221687  1
  O  O331  1  0.94358115  0.41699233  0.81351342  1
  O  O332  1  0.94415818  0.74979828  0.06285517  1
  O  O333  1  0.94428514  0.74998732  0.31345659  1
  O  O334  1  0.94366292  0.75001992  0.56424906  1
  O  O335  1  0.94115168  0.74993946  0.81153385  1
  O  O336  1  0.19046995  0.08274398  0.06288305  1
  O  O337  1  0.19181304  0.08270085  0.31092235  1
  O  O338  1  0.19309986  0.08324594  0.56175121  1
  O  O339  1  0.19457824  0.08310704  0.81194458  1
  O  O340  1  0.19451849  0.41668791  0.06197248  1
  O  O341  1  0.19307656  0.41715267  0.31202210  1
  O  O342  1  0.19428115  0.41669023  0.56147060  1
  O  O343  1  0.19498349  0.41719550  0.81164839  1
  O  O344  1  0.19076975  0.75076750  0.06313982  1
  O  O345  1  0.18994653  0.75006366  0.31245675  1
  O  O346  1  0.19023834  0.74966431  0.56242961  1
  O  O347  1  0.19408746  0.74978424  0.81181720  1
  O  O348  1  0.69316345  0.08294250  0.06093788  1
  O  O349  1  0.69572303  0.08271425  0.31196789  1
  O  O350  1  0.69289247  0.08302809  0.56332904  1
  O  O351  1  0.69113846  0.08210427  0.81270822  1
  O  O352  1  0.69337755  0.41741699  0.06143858  1
  O  O353  1  0.69199249  0.41799675  0.31300105  1
  O  O354  1  0.69380513  0.41772578  0.56141046  1
  O  O355  1  0.69294540  0.41793293  0.81190683  1
  O  O356  1  0.68999086  0.74934939  0.06206508  1
  O  O357  1  0.69110124  0.74872347  0.31214445  1
  O  O358  1  0.69386392  0.74953114  0.56112756  1
  O  O359  1  0.69191978  0.74965728  0.81331938  1
  O  O360  1  0.30831155  0.24952483  0.18733257  1
  O  O361  1  0.30619071  0.24972810  0.43792003  1
  O  O362  1  0.30717964  0.24877459  0.68810463  1
  O  O363  1  0.30739277  0.24944186  0.93902925  1
  O  O364  1  0.30856632  0.58425771  0.18793197  1
  O  O365  1  0.30919820  0.58381654  0.43639814  1
  O  O366  1  0.30578957  0.58450752  0.68837943  1
  O  O367  1  0.30913014  0.58443672  0.93783514  1
  O  O368  1  0.30629283  0.91618895  0.18863386  1
  O  O369  1  0.30621764  0.91626482  0.43819780  1
  O  O370  1  0.30606129  0.91659995  0.68879667  1
  O  O371  1  0.30962690  0.91638055  0.93751090  1
  O  O372  1  0.80563725  0.25000372  0.18799369  1
  O  O373  1  0.80572824  0.25046137  0.43885386  1
  O  O374  1  0.80731124  0.25032583  0.68719763  1
  O  O375  1  0.80489631  0.24999452  0.93826561  1
  O  O376  1  0.80716402  0.58419447  0.18852932  1
  O  O377  1  0.80985730  0.58412430  0.43776601  1
  O  O378  1  0.80892422  0.58412615  0.68800862  1
  O  O379  1  0.80866384  0.58358769  0.93752820  1
  O  O380  1  0.80910711  0.91594671  0.18726981  1
  O  O381  1  0.80823383  0.91514155  0.43732458  1
  O  O382  1  0.80571722  0.91588270  0.68857565  1
  O  O383  1  0.80911531  0.91604020  0.93767900  1
  O  O384  1  0.23316642  0.25036457  0.03978232  1
  O  O385  1  0.23246045  0.24977379  0.28708533  1
  O  O386  1  0.23405224  0.24996716  0.54070354  1
  O  O387  1  0.23453342  0.24985077  0.79033891  1
  O  O388  1  0.23404542  0.58308713  0.03808579  1
  O  O389  1  0.23332775  0.58331415  0.28814229  1
  O  O390  1  0.23493972  0.58340882  0.53738921  1
  O  O391  1  0.23274802  0.58383193  0.79023285  1
  O  O392  1  0.23449276  0.91662370  0.03774833  1
  O  O393  1  0.23245578  0.91663512  0.28964913  1
  O  O394  1  0.23170270  0.91657588  0.53903548  1
  O  O395  1  0.23284084  0.91643144  0.79068580  1
  O  O396  1  0.73113004  0.25012420  0.03967876  1
  O  O397  1  0.73236231  0.24955486  0.28986151  1
  O  O398  1  0.73252307  0.25045972  0.54032732  1
  O  O399  1  0.73216226  0.24944469  0.78716161  1
  O  O400  1  0.73398646  0.58323600  0.03831533  1
  O  O401  1  0.73432951  0.58297158  0.29032172  1
  O  O402  1  0.73572064  0.58362958  0.53856514  1
  O  O403  1  0.73381140  0.58372282  0.78842810  1
  O  O404  1  0.73493807  0.91677450  0.03819511  1
  O  O405  1  0.73437866  0.91662671  0.28790672  1
  O  O406  1  0.73334747  0.91650228  0.53795693  1
  O  O407  1  0.73231986  0.91617330  0.79012643  1
  O  O408  1  0.26481347  0.08322361  0.20909382  1
  O  O409  1  0.26564855  0.08327078  0.45941944  1
  O  O410  1  0.26854372  0.08227250  0.71067321  1
  O  O411  1  0.26533216  0.08410470  0.96247829  1
  O  O412  1  0.26600368  0.41695367  0.21026638  1
  O  O413  1  0.26799403  0.41638468  0.45975662  1
  O  O414  1  0.26858231  0.41742640  0.71044560  1
  O  O415  1  0.26825809  0.41655376  0.96063020  1
  O  O416  1  0.26424024  0.74986614  0.21140821  1
  O  O417  1  0.26389270  0.75010613  0.46110592  1
  O  O418  1  0.26729336  0.75028196  0.71000469  1
  O  O419  1  0.26512362  0.74940031  0.96240134  1
  O  O420  1  0.76836317  0.08349370  0.20969302  1
  O  O421  1  0.76723415  0.08343616  0.46237412  1
  O  O422  1  0.76583169  0.08271911  0.71211376  1
  O  O423  1  0.76520440  0.08365861  0.95874766  1
  O  O424  1  0.76683118  0.41669849  0.21231659  1
  O  O425  1  0.76775012  0.41615769  0.46050514  1
  O  O426  1  0.76597376  0.41743962  0.71019084  1
  O  O427  1  0.76557891  0.41607708  0.95878681  1
  O  O428  1  0.76508434  0.74987394  0.21107244  1
  O  O429  1  0.76620955  0.75003605  0.45904210  1
  O  O430  1  0.76696692  0.75028846  0.71237614  1
  O  O431  1  0.76442353  0.74983075  0.96171123  1
  O  O432  1  0.01683323  0.08274180  0.16510618  1
  O  O433  1  0.01343994  0.08313558  0.41416674  1
  O  O434  1  0.01370452  0.08331671  0.66362426  1
  O  O435  1  0.01464915  0.08277307  0.91192890  1
  O  O436  1  0.01591962  0.41669300  0.16519583  1
  O  O437  1  0.01431507  0.41718613  0.41393650  1
  O  O438  1  0.01486714  0.41703303  0.66366428  1
  O  O439  1  0.01672236  0.41740688  0.91543685  1
  O  O440  1  0.01785740  0.75058075  0.16429536  1
  O  O441  1  0.01759253  0.74931867  0.41533095  1
  O  O442  1  0.01734137  0.74973221  0.66537289  1
  O  O443  1  0.01508910  0.75011765  0.91260652  1
  O  O444  1  0.51702498  0.08413103  0.16591720  1
  O  O445  1  0.51786520  0.08338350  0.41444319  1
  O  O446  1  0.51848130  0.08317603  0.66464345  1
  O  O447  1  0.51740664  0.08228969  0.91251607  1
  O  O448  1  0.51476665  0.41691583  0.16322312  1
  O  O449  1  0.51785532  0.41698673  0.41530426  1
  O  O450  1  0.51514817  0.41635230  0.66350269  1
  O  O451  1  0.51414194  0.41728677  0.91319233  1
  O  O452  1  0.51776207  0.74957024  0.16493507  1
  O  O453  1  0.51842302  0.74950396  0.41466053  1
  O  O454  1  0.51588955  0.75061235  0.66484227  1
  O  O455  1  0.51637810  0.75021534  0.91190646  1
  O  O456  1  0.48371416  0.25015839  0.08685021  1
  O  O457  1  0.48615253  0.25096239  0.33684263  1
  O  O458  1  0.48615916  0.24952761  0.58636157  1
  O  O459  1  0.48534177  0.24976132  0.83591504  1
  O  O460  1  0.48138886  0.58369892  0.08520291  1
  O  O461  1  0.48227887  0.58319379  0.33532802  1
  O  O462  1  0.48457842  0.58384616  0.58756742  1
  O  O463  1  0.48198705  0.58406947  0.83440996  1
  O  O464  1  0.48518684  0.91611336  0.08701394  1
  O  O465  1  0.48634832  0.91630038  0.33635332  1
  O  O466  1  0.48588067  0.91664587  0.58640843  1
  O  O467  1  0.48315104  0.91642009  0.83449266  1
  O  O468  1  0.98482834  0.24966959  0.08566632  1
  O  O469  1  0.98335570  0.24999018  0.33455543  1
  O  O470  1  0.98076272  0.24998428  0.58574882  1
  O  O471  1  0.98418345  0.25028784  0.83704900  1
  O  O472  1  0.98572493  0.58372196  0.08592031  1
  O  O473  1  0.98262023  0.58380031  0.33477179  1
  O  O474  1  0.98337834  0.58367093  0.58848031  1
  O  O475  1  0.98407124  0.58356142  0.83711559  1
  O  O476  1  0.98171845  0.91690867  0.08432157  1
  O  O477  1  0.98213150  0.91619993  0.33773012  1
  O  O478  1  0.98491500  0.91619991  0.58770350  1
  O  O479  1  0.98199705  0.91633689  0.83443659  1
  O  O480  1  0.08911188  0.31371357  0.07681570  1
  O  O481  1  0.08737049  0.31519554  0.32698970  1
  O  O482  1  0.08473122  0.31493286  0.57710227  1
  O  O483  1  0.08772757  0.31541368  0.82705523  1
  O  O484  1  0.08924745  0.64946324  0.07797905  1
  O  O485  1  0.08688951  0.64879255  0.32771324  1
  O  O486  1  0.08693098  0.64902460  0.57873416  1
  O  O487  1  0.08813333  0.64798112  0.82705159  1
  O  O488  1  0.08543900  0.98223094  0.07710613  1
  O  O489  1  0.08556800  0.98099408  0.32781292  1
  O  O490  1  0.08850011  0.98105482  0.57749893  1
  O  O491  1  0.08589928  0.98181734  0.82547776  1
  O  O492  1  0.58723627  0.31552213  0.07701481  1
  O  O493  1  0.58947113  0.31694313  0.32819622  1
  O  O494  1  0.59013827  0.31372937  0.57724144  1
  O  O495  1  0.58922989  0.31421139  0.82701576  1
  O  O496  1  0.58529045  0.64897450  0.07727745  1
  O  O497  1  0.58650768  0.64765659  0.32781481  1
  O  O498  1  0.58824238  0.64866168  0.57791867  1
  O  O499  1  0.58625113  0.64937504  0.82651909  1
  O  O500  1  0.58864460  0.98090099  0.07788256  1
  O  O501  1  0.59042350  0.98071951  0.32714704  1
  O  O502  1  0.58919735  0.98298103  0.57785844  1
  O  O503  1  0.58748017  0.98103434  0.82682678  1
  O  O504  1  0.41312610  0.01946426  0.17290247  1
  O  O505  1  0.41416363  0.01827718  0.42287310  1
  O  O506  1  0.41444060  0.01812947  0.67349591  1
  O  O507  1  0.41378062  0.01677375  0.92183568  1
  O  O508  1  0.41172104  0.35103283  0.17177539  1
  O  O509  1  0.41376262  0.35227846  0.42349426  1
  O  O510  1  0.41155880  0.35118919  0.67268364  1
  O  O511  1  0.41032902  0.35288294  0.92237815  1
  O  O512  1  0.41382372  0.68428378  0.17264374  1
  O  O513  1  0.41434496  0.68443705  0.42235493  1
  O  O514  1  0.41172147  0.68590065  0.67327307  1
  O  O515  1  0.41259605  0.68549172  0.92141088  1
  O  O516  1  0.91276300  0.01755118  0.17217601  1
  O  O517  1  0.90998953  0.01716058  0.42225391  1
  O  O518  1  0.90950325  0.01926017  0.67253127  1
  O  O519  1  0.91131612  0.01710086  0.92086448  1
  O  O520  1  0.91200074  0.35127398  0.17316381  1
  O  O521  1  0.91032545  0.35277439  0.42274998  1
  O  O522  1  0.91141609  0.35149060  0.67221597  1
  O  O523  1  0.91284985  0.35267254  0.92283639  1
  O  O524  1  0.91411945  0.68579980  0.17273648  1
  O  O525  1  0.91375466  0.68448580  0.42250811  1
  O  O526  1  0.91328980  0.68422962  0.67357385  1
  O  O527  1  0.91187206  0.68454118  0.92148493  1
  O  O528  1  0.16065099  0.01868160  0.20127786  1
  O  O529  1  0.16196989  0.01746891  0.45279165  1
  O  O530  1  0.16431951  0.01726299  0.70303259  1
  O  O531  1  0.16175670  0.01931297  0.95229205  1
  O  O532  1  0.16212153  0.35202752  0.20279427  1
  O  O533  1  0.16382642  0.35145800  0.45243931  1
  O  O534  1  0.16454193  0.35270537  0.70201113  1
  O  O535  1  0.16449041  0.35143803  0.95254133  1
  O  O536  1  0.16090865  0.68368213  0.20314260  1
  O  O537  1  0.15984686  0.68594362  0.45226453  1
  O  O538  1  0.16335263  0.68489262  0.70225117  1
  O  O539  1  0.16162294  0.68400600  0.95389270  1
  O  O540  1  0.66489657  0.01781256  0.20254541  1
  O  O541  1  0.66381096  0.01833986  0.45308277  1
  O  O542  1  0.66251634  0.01706383  0.70259838  1
  O  O543  1  0.66115003  0.01915295  0.95136621  1
  O  O544  1  0.66314408  0.35124047  0.20374496  1
  O  O545  1  0.66346062  0.35143537  0.45253667  1
  O  O546  1  0.66215183  0.35254704  0.70293568  1
  O  O547  1  0.66156169  0.35110661  0.95303524  1
  O  O548  1  0.66092076  0.68558101  0.20181216  1
  O  O549  1  0.66205137  0.68549851  0.45162605  1
  O  O550  1  0.66368106  0.68458028  0.70315438  1
  O  O551  1  0.66058192  0.68484404  0.95176641  1
  O  O552  1  0.33710274  0.31583312  0.04815787  1
  O  O553  1  0.33630481  0.31457375  0.29740481  1
  O  O554  1  0.33778344  0.31570063  0.54647856  1
  O  O555  1  0.33854783  0.31442250  0.79678991  1
  O  O556  1  0.33777678  0.64772800  0.04867816  1
  O  O557  1  0.33686101  0.64891572  0.29836716  1
  O  O558  1  0.33857229  0.64784460  0.54661891  1
  O  O559  1  0.33647291  0.64952215  0.79795662  1
  O  O560  1  0.33815161  0.98164947  0.04737510  1
  O  O561  1  0.33648471  0.98152876  0.29785078  1
  O  O562  1  0.33569173  0.98152998  0.54773950  1
  O  O563  1  0.33730504  0.98128111  0.79822738  1
  O  O564  1  0.83516326  0.31489725  0.04771620  1
  O  O565  1  0.83593844  0.31503257  0.29749806  1
  O  O566  1  0.83658580  0.31543559  0.54827336  1
  O  O567  1  0.83569663  0.31441948  0.79768080  1
  O  O568  1  0.83752860  0.64827053  0.04762328  1
  O  O569  1  0.83823392  0.64800367  0.29830694  1
  O  O570  1  0.83997459  0.64727493  0.54828889  1
  O  O571  1  0.83728588  0.64977872  0.79801474  1
  O  O572  1  0.83884035  0.98149679  0.04731589  1
  O  O573  1  0.83794627  0.98228621  0.29679729  1
  O  O574  1  0.83704777  0.98147280  0.54693441  1
  O  O575  1  0.83632531  0.98129653  0.79777963  1
  O  O576  1  0.41341445  0.14985260  0.17263070  1
  O  O577  1  0.41429059  0.14863522  0.42278873  1
  O  O578  1  0.41447104  0.14805184  0.67370555  1
  O  O579  1  0.41380242  0.14701399  0.92246462  1
  O  O580  1  0.41092728  0.48150558  0.17105305  1
  O  O581  1  0.41364527  0.48235028  0.42265242  1
  O  O582  1  0.41122806  0.48120471  0.67253706  1
  O  O583  1  0.41060600  0.48316146  0.92121974  1
  O  O584  1  0.41400503  0.81439590  0.17337429  1
  O  O585  1  0.41474731  0.81465034  0.42324087  1
  O  O586  1  0.41196975  0.81573410  0.67323156  1
  O  O587  1  0.41306941  0.81575841  0.92167870  1
  O  O588  1  0.91286977  0.14760023  0.17330249  1
  O  O589  1  0.90937099  0.14738707  0.42281154  1
  O  O590  1  0.91023515  0.14946089  0.67240389  1
  O  O591  1  0.91125603  0.14750293  0.92197187  1
  O  O592  1  0.91171371  0.48129702  0.17289719  1
  O  O593  1  0.91087143  0.48297483  0.42172078  1
  O  O594  1  0.91117293  0.48186414  0.67166649  1
  O  O595  1  0.91308175  0.48311984  0.92226861  1
  O  O596  1  0.91402538  0.81582029  0.17205264  1
  O  O597  1  0.91392996  0.81465568  0.42318291  1
  O  O598  1  0.91292517  0.81414770  0.67379983  1
  O  O599  1  0.91135231  0.81495647  0.92105241  1
  O  O600  1  0.08811565  0.18348995  0.07776971  1
  O  O601  1  0.08738271  0.18514247  0.32697651  1
  O  O602  1  0.08443512  0.18466845  0.57714751  1
  O  O603  1  0.08764863  0.18518760  0.82705179  1
  O  O604  1  0.08970116  0.51929134  0.07686660  1
  O  O605  1  0.08661750  0.51885009  0.32660587  1
  O  O606  1  0.08681279  0.51881895  0.57765983  1
  O  O607  1  0.08767258  0.51809311  0.82643514  1
  O  O608  1  0.08577837  0.85204357  0.07717184  1
  O  O609  1  0.08577466  0.85093439  0.32874351  1
  O  O610  1  0.08857155  0.85074755  0.57872065  1
  O  O611  1  0.08652277  0.85201427  0.82612810  1
  O  O612  1  0.58779496  0.18552332  0.07719838  1
  O  O613  1  0.59024597  0.18672238  0.32720026  1
  O  O614  1  0.58960980  0.18357767  0.57811533  1
  O  O615  1  0.58896999  0.18402654  0.82795356  1
  O  O616  1  0.58506864  0.51884882  0.07643465  1
  O  O617  1  0.58577385  0.51752184  0.32738437  1
  O  O618  1  0.58791326  0.51859591  0.57762498  1
  O  O619  1  0.58624018  0.51941464  0.82589933  1
  O  O620  1  0.58855299  0.85061681  0.07877576  1
  O  O621  1  0.59001760  0.85059026  0.32839375  1
  O  O622  1  0.59028769  0.85291237  0.57730513  1
  O  O623  1  0.58712082  0.85111849  0.82679670  1
  O  O624  1  0.33732391  0.18581835  0.04913072  1
  O  O625  1  0.33606720  0.18457716  0.29763954  1
  O  O626  1  0.33816210  0.18549840  0.54710900  1
  O  O627  1  0.33798139  0.18395893  0.79756282  1
  O  O628  1  0.33774490  0.51761865  0.04726622  1
  O  O629  1  0.33768719  0.51901494  0.29769673  1
  O  O630  1  0.33835825  0.51756059  0.54579642  1
  O  O631  1  0.33727307  0.51942080  0.79745365  1
  O  O632  1  0.33791430  0.85141545  0.04766301  1
  O  O633  1  0.33611429  0.85138304  0.29832898  1
  O  O634  1  0.33542214  0.85146689  0.54791966  1
  O  O635  1  0.33681148  0.85118987  0.79806396  1
  O  O636  1  0.83492898  0.18496417  0.04770138  1
  O  O637  1  0.83635695  0.18488527  0.29717932  1
  O  O638  1  0.83644055  0.18535910  0.54831389  1
  O  O639  1  0.83573324  0.18427427  0.79702183  1
  O  O640  1  0.83765807  0.51815667  0.04714298  1
  O  O641  1  0.83848020  0.51797498  0.29727368  1
  O  O642  1  0.83890498  0.51715399  0.54707866  1
  O  O643  1  0.83813353  0.51979340  0.79818795  1
  O  O644  1  0.83847914  0.85152069  0.04800631  1
  O  O645  1  0.83819829  0.85210211  0.29785750  1
  O  O646  1  0.83683965  0.85145237  0.54785018  1
  O  O647  1  0.83651844  0.85130700  0.79816422  1
  O  O648  1  0.16093046  0.14877365  0.20203863  1
  O  O649  1  0.16154350  0.14769714  0.45266451  1
  O  O650  1  0.16455309  0.14732463  0.70207458  1
  O  O651  1  0.16185946  0.14963626  0.95356786  1
  O  O652  1  0.16248698  0.48232120  0.20272976  1
  O  O653  1  0.16411368  0.48151220  0.45204750  1
  O  O654  1  0.16477016  0.48289706  0.70238869  1
  O  O655  1  0.16458674  0.48170606  0.95243870  1
  O  O656  1  0.15998880  0.81389824  0.20219491  1
  O  O657  1  0.16031877  0.81608929  0.45313821  1
  O  O658  1  0.16293412  0.81501750  0.70283520  1
  O  O659  1  0.16153289  0.81420065  0.95261133  1
  O  O660  1  0.66398936  0.14797231  0.20322194  1
  O  O661  1  0.66373275  0.14853561  0.45357193  1
  O  O662  1  0.66179447  0.14725844  0.70276525  1
  O  O663  1  0.66125680  0.14924481  0.95239982  1
  O  O664  1  0.66313225  0.48138990  0.20237066  1
  O  O665  1  0.66408409  0.48144216  0.45111943  1
  O  O666  1  0.66259414  0.48302195  0.70253614  1
  O  O667  1  0.66193162  0.48123131  0.95190761  1
  O  O668  1  0.66168567  0.81579464  0.20304352  1
  O  O669  1  0.66239758  0.81557414  0.45233654  1
  O  O670  1  0.66308120  0.81479658  0.70357163  1
  O  O671  1  0.66067405  0.81473981  0.95211481  1
