# generated using pymatgen
data_Na2MnFe(PO4)2
_symmetry_space_group_name_H-M   'P 1'
_cell_length_a   21.07928395
_cell_length_b   18.93076564
_cell_length_c   20.03941393
_cell_angle_alpha   89.99955510
_cell_angle_beta   89.99924135
_cell_angle_gamma   90.00059845
_symmetry_Int_Tables_number   1
_chemical_formula_structural   Na2MnFe(PO4)2
_chemical_formula_sum   'Na96 Mn48 Fe48 P96 O384'
_cell_volume   7996.66769575
_cell_formula_units_Z   48
loop_
 _symmetry_equiv_pos_site_id
 _symmetry_equiv_pos_as_xyz
  1  'x, y, z'
loop_
 _atom_site_type_symbol
 _atom_site_label
 _atom_site_symmetry_multiplicity
 _atom_site_fract_x
 _atom_site_fract_y
 _atom_site_fract_z
 _atom_site_occupancy
  Na  Na0  1  -0.00153908  -0.00049974  0.00083679  1
  Na  Na1  1  -0.00026065  -0.00019059  0.24907698  1
  Na  Na2  1  -0.00067831  -0.00111085  0.49969656  1
  Na  Na3  1  0.00011480  0.00037415  0.75040778  1
  Na  Na4  1  0.00055711  0.33381584  0.00005782  1
  Na  Na5  1  -0.00006824  0.33338529  0.25064136  1
  Na  Na6  1  -0.00013525  0.33389077  0.49951209  1
  Na  Na7  1  -0.00131364  0.33291163  0.74946957  1
  Na  Na8  1  -0.00117982  0.66584787  -0.00040436  1
  Na  Na9  1  0.00314833  0.66774880  0.25067359  1
  Na  Na10  1  0.00085015  0.66686111  0.50057060  1
  Na  Na11  1  -0.00123582  0.66647104  0.74945877  1
  Na  Na12  1  0.49766617  -0.00106466  -0.00046391  1
  Na  Na13  1  0.50046740  0.00005496  0.25058093  1
  Na  Na14  1  0.50069283  -0.00107088  0.50002905  1
  Na  Na15  1  0.50205527  0.00047248  0.74979533  1
  Na  Na16  1  0.50109391  0.33367067  0.00080567  1
  Na  Na17  1  0.50105392  0.33364955  0.24980797  1
  Na  Na18  1  0.50010742  0.33338158  0.50003284  1
  Na  Na19  1  0.50048954  0.33399410  0.74942423  1
  Na  Na20  1  0.50020657  0.66690516  -0.00061577  1
  Na  Na21  1  0.50051262  0.66675215  0.25082808  1
  Na  Na22  1  0.50095492  0.66718167  0.50009532  1
  Na  Na23  1  0.49806706  0.66554671  0.74980416  1
  Na  Na24  1  0.25182288  0.00087373  0.12491331  1
  Na  Na25  1  0.24859838  -0.00107344  0.37619801  1
  Na  Na26  1  0.25053970  0.00001314  0.62484133  1
  Na  Na27  1  0.25139781  -0.00014980  0.87391377  1
  Na  Na28  1  0.24986840  0.33352291  0.12525702  1
  Na  Na29  1  0.25026908  0.33387911  0.37516020  1
  Na  Na30  1  0.25002266  0.33396071  0.62548350  1
  Na  Na31  1  0.24989359  0.33307605  0.87432785  1
  Na  Na32  1  0.24816959  0.66620020  0.12450639  1
  Na  Na33  1  0.24756081  0.66642951  0.37562827  1
  Na  Na34  1  0.24952461  0.66631911  0.62484730  1
  Na  Na35  1  0.25100242  0.66677198  0.87519617  1
  Na  Na36  1  0.75180119  0.00061689  0.12543986  1
  Na  Na37  1  0.75087274  0.00015660  0.37640385  1
  Na  Na38  1  0.74882236  -0.00123927  0.62392760  1
  Na  Na39  1  0.74918181  -0.00086409  0.87368685  1
  Na  Na40  1  0.74827472  0.33302141  0.12340077  1
  Na  Na41  1  0.74959662  0.33401022  0.37623451  1
  Na  Na42  1  0.75036152  0.33416457  0.62645215  1
  Na  Na43  1  0.74836489  0.33302628  0.87438040  1
  Na  Na44  1  0.74882915  0.66578691  0.12513171  1
  Na  Na45  1  0.74942223  0.66646297  0.37563289  1
  Na  Na46  1  0.75115091  0.66706703  0.62483898  1
  Na  Na47  1  0.75283279  0.66760465  0.87395139  1
  Na  Na48  1  -0.00080899  0.16741965  -0.00004787  1
  Na  Na49  1  0.00114446  0.16676321  0.24976346  1
  Na  Na50  1  0.00110361  0.16637560  0.49929830  1
  Na  Na51  1  -0.00082819  0.16747484  0.75088489  1
  Na  Na52  1  0.00020828  0.49996464  0.00099226  1
  Na  Na53  1  0.00013495  0.50007272  0.25132673  1
  Na  Na54  1  0.00000229  0.50050606  0.50011340  1
  Na  Na55  1  0.00057295  0.49979906  0.74845881  1
  Na  Na56  1  -0.00037907  0.83227562  -0.00028291  1
  Na  Na57  1  0.00104155  0.83264936  0.24909369  1
  Na  Na58  1  -0.00080222  0.83313492  0.50048688  1
  Na  Na59  1  -0.00165002  0.83285255  0.74999305  1
  Na  Na60  1  0.50009769  0.16697723  0.00104409  1
  Na  Na61  1  0.49979573  0.16767974  0.24938848  1
  Na  Na62  1  0.50291997  0.16620926  0.49971953  1
  Na  Na63  1  0.49998939  0.16735350  0.75035283  1
  Na  Na64  1  0.50043894  0.49994810  -0.00001437  1
  Na  Na65  1  0.50167269  0.49968314  0.25035599  1
  Na  Na66  1  0.49920693  0.50060880  0.49984723  1
  Na  Na67  1  0.50056970  0.49951758  0.74958059  1
  Na  Na68  1  0.49876701  0.83321703  -0.00132713  1
  Na  Na69  1  0.49957858  0.83336331  0.25126296  1
  Na  Na70  1  0.50042307  0.83273965  0.50088331  1
  Na  Na71  1  0.49987293  0.83277013  0.74899993  1
  Na  Na72  1  0.25030209  0.16774036  0.12498944  1
  Na  Na73  1  0.25045978  0.16632664  0.37604474  1
  Na  Na74  1  0.24802631  0.16815441  0.62423270  1
  Na  Na75  1  0.25197092  0.16627958  0.87428193  1
  Na  Na76  1  0.24959110  0.49996141  0.12472856  1
  Na  Na77  1  0.24779337  0.50104070  0.37503817  1
  Na  Na78  1  0.25005795  0.50020516  0.62599190  1
  Na  Na79  1  0.25025067  0.50011617  0.87397062  1
  Na  Na80  1  0.24820525  0.83395477  0.12553692  1
  Na  Na81  1  0.24941046  0.83244045  0.37546576  1
  Na  Na82  1  0.25139713  0.83206461  0.62523334  1
  Na  Na83  1  0.25091814  0.83274539  0.87467169  1
  Na  Na84  1  0.74811215  0.16834157  0.12429377  1
  Na  Na85  1  0.74879677  0.16736487  0.37618532  1
  Na  Na86  1  0.74892516  0.16774407  0.62552045  1
  Na  Na87  1  0.75214359  0.16611807  0.87393970  1
  Na  Na88  1  0.74921963  0.50010355  0.12376417  1
  Na  Na89  1  0.75095357  0.49911470  0.37603931  1
  Na  Na90  1  0.75034985  0.50008796  0.62620972  1
  Na  Na91  1  0.74835738  0.50088945  0.87421300  1
  Na  Na92  1  0.75140436  0.83225149  0.12606937  1
  Na  Na93  1  0.75004677  0.83290786  0.37604601  1
  Na  Na94  1  0.74972491  0.83331192  0.62366781  1
  Na  Na95  1  0.74943224  0.83326164  0.87378294  1
  Mn  Mn96  1  0.60786524  0.08274137  0.12221513  1
  Mn  Mn97  1  0.39159476  0.58332399  0.37766288  1
  Mn  Mn98  1  0.35778243  0.08326085  0.25277864  1
  Mn  Mn99  1  0.89118007  0.91662654  0.87756021  1
  Mn  Mn100  1  0.14214563  0.91593033  0.74734233  1
  Mn  Mn101  1  0.64206819  0.58438553  0.74744426  1
  Mn  Mn102  1  0.60809618  0.08315650  0.37268957  1
  Mn  Mn103  1  0.35807744  0.41722606  0.75235296  1
  Mn  Mn104  1  0.39265577  0.58385544  0.12726196  1
  Mn  Mn105  1  0.14179926  0.25006543  0.74792962  1
  Mn  Mn106  1  0.85840556  0.74923463  0.25307284  1
  Mn  Mn107  1  0.60821595  0.41711728  0.37329301  1
  Mn  Mn108  1  0.39292814  0.25004737  0.12702317  1
  Mn  Mn109  1  0.64214096  0.24941987  0.74792510  1
  Mn  Mn110  1  0.64245935  0.91710334  0.24759135  1
  Mn  Mn111  1  0.64210818  0.91648425  0.99820012  1
  Mn  Mn112  1  0.14273618  0.91783119  0.99736105  1
  Mn  Mn113  1  0.85708575  0.41684123  0.00163404  1
  Mn  Mn114  1  0.85775211  0.41741415  0.75271340  1
  Mn  Mn115  1  0.60788437  0.08363162  0.87318117  1
  Mn  Mn116  1  0.35655686  0.74984955  0.25227613  1
  Mn  Mn117  1  0.89160145  0.25057781  0.12711843  1
  Mn  Mn118  1  0.10771909  0.08266703  0.37251092  1
  Mn  Mn119  1  0.10785361  0.08367976  0.87308757  1
  Mn  Mn120  1  0.39257300  0.91703858  0.87674269  1
  Mn  Mn121  1  0.85764001  0.08374570  0.50312051  1
  Mn  Mn122  1  0.60791908  0.74924117  0.87224663  1
  Mn  Mn123  1  0.35806339  0.41740852  0.25223838  1
  Mn  Mn124  1  0.10732320  0.41641339  0.62210729  1
  Mn  Mn125  1  0.39281238  0.24963271  0.62645837  1
  Mn  Mn126  1  0.64234779  0.58249417  0.24793172  1
  Mn  Mn127  1  0.39186888  0.91675700  0.37768041  1
  Mn  Mn128  1  0.14189823  0.91619158  0.49852843  1
  Mn  Mn129  1  0.10700392  0.74926292  0.87236980  1
  Mn  Mn130  1  0.35783897  0.75010292  0.00278229  1
  Mn  Mn131  1  0.10793071  0.41666875  0.12261792  1
  Mn  Mn132  1  0.85792503  0.08280497  0.75156784  1
  Mn  Mn133  1  0.85768398  0.08434089  0.25262893  1
  Mn  Mn134  1  0.35850417  0.08315717  0.75127611  1
  Mn  Mn135  1  0.89178889  0.24974408  0.37754666  1
  Mn  Mn136  1  0.89188312  0.58297510  0.12720871  1
  Mn  Mn137  1  0.10824492  0.08319640  0.12186328  1
  Mn  Mn138  1  0.14220447  0.58241211  0.99683727  1
  Mn  Mn139  1  0.35774822  0.08345483  0.50297960  1
  Mn  Mn140  1  0.89287577  0.58408725  0.37762508  1
  Mn  Mn141  1  0.89223580  0.91631612  0.12726267  1
  Mn  Mn142  1  0.60796587  0.75025517  0.12260080  1
  Mn  Mn143  1  0.14259744  0.24991700  0.24796298  1
  Fe  Fe144  1  0.60719553  0.41713326  0.62275573  1
  Fe  Fe145  1  0.85746152  0.41708519  0.50181674  1
  Fe  Fe146  1  0.35754984  0.41615489  0.00144230  1
  Fe  Fe147  1  0.14207080  0.91641425  0.24801683  1
  Fe  Fe148  1  0.14257282  0.58287920  0.49928453  1
  Fe  Fe149  1  0.10745095  0.75027297  0.37402819  1
  Fe  Fe150  1  0.60808866  0.41716505  0.12269380  1
  Fe  Fe151  1  0.89296494  0.58234652  0.87651518  1
  Fe  Fe152  1  0.64294321  0.25077163  0.49876474  1
  Fe  Fe153  1  0.64310208  0.91595094  0.49820108  1
  Fe  Fe154  1  0.35738254  0.74964922  0.75068089  1
  Fe  Fe155  1  0.60800087  0.08316065  0.62321193  1
  Fe  Fe156  1  0.39303610  0.25023962  0.37715734  1
  Fe  Fe157  1  0.10751415  0.41681498  0.87378911  1
  Fe  Fe158  1  0.39254642  0.58239767  0.87682707  1
  Fe  Fe159  1  0.10701487  0.08292012  0.62391980  1
  Fe  Fe160  1  0.85714573  0.75024311  0.75077445  1
  Fe  Fe161  1  0.89279921  0.58359701  0.62637681  1
  Fe  Fe162  1  0.14232003  0.25100068  0.49831817  1
  Fe  Fe163  1  0.64268744  0.58354550  0.99752231  1
  Fe  Fe164  1  0.35722420  0.74908021  0.50213076  1
  Fe  Fe165  1  0.89297354  0.91631364  0.37620957  1
  Fe  Fe166  1  0.39388440  0.91615339  0.62628936  1
  Fe  Fe167  1  0.39251588  0.58366949  0.62606145  1
  Fe  Fe168  1  0.89269897  0.24961226  0.62601637  1
  Fe  Fe169  1  0.60636533  0.41681153  0.87387391  1
  Fe  Fe170  1  0.85737645  0.74937432  0.50183155  1
  Fe  Fe171  1  0.14337351  0.25009741  0.99805223  1
  Fe  Fe172  1  0.35782264  0.08409907  0.00170899  1
  Fe  Fe173  1  0.64235247  0.25036815  0.24886523  1
  Fe  Fe174  1  0.89288692  0.25076191  0.87720484  1
  Fe  Fe175  1  0.60738837  0.74993998  0.37405411  1
  Fe  Fe176  1  0.89228358  0.91666572  0.62637859  1
  Fe  Fe177  1  0.39274252  0.25081225  0.87716332  1
  Fe  Fe178  1  0.39195488  0.91617324  0.12720053  1
  Fe  Fe179  1  0.10710690  0.74994582  0.12276043  1
  Fe  Fe180  1  0.85683871  0.41636392  0.25154469  1
  Fe  Fe181  1  0.85717920  0.08318925  0.00136571  1
  Fe  Fe182  1  0.64276139  0.25001058  0.99711492  1
  Fe  Fe183  1  0.85700310  0.75011417  0.00166643  1
  Fe  Fe184  1  0.64249296  0.91608082  0.74741646  1
  Fe  Fe185  1  0.35672344  0.41723642  0.50120447  1
  Fe  Fe186  1  0.10682027  0.75044469  0.62356865  1
  Fe  Fe187  1  0.14214376  0.58345755  0.24813357  1
  Fe  Fe188  1  0.64297323  0.58337365  0.49932971  1
  Fe  Fe189  1  0.60722367  0.74935507  0.62276482  1
  Fe  Fe190  1  0.14268562  0.58382176  0.74837586  1
  Fe  Fe191  1  0.10722398  0.41699910  0.37360085  1
  P  P192  1  0.05413803  0.25018486  0.10894345  1
  P  P193  1  0.05448305  0.25108838  0.36123191  1
  P  P194  1  0.05254119  0.24938859  0.60947954  1
  P  P195  1  0.05343257  0.25106991  0.86141633  1
  P  P196  1  0.05449154  0.58391574  0.11097449  1
  P  P197  1  0.05574514  0.58343247  0.36166621  1
  P  P198  1  0.05398793  0.58436183  0.61086546  1
  P  P199  1  0.05270222  0.58231268  0.85903734  1
  P  P200  1  0.05456315  0.91573677  0.11051061  1
  P  P201  1  0.05280678  0.91540746  0.35956818  1
  P  P202  1  0.05179043  0.91626748  0.61054455  1
  P  P203  1  0.05279740  0.91651337  0.85988780  1
  P  P204  1  0.55599493  0.25081539  0.11054332  1
  P  P205  1  0.55419093  0.25053727  0.36060141  1
  P  P206  1  0.55442805  0.25027931  0.60957214  1
  P  P207  1  0.55324239  0.25090797  0.86128527  1
  P  P208  1  0.55445599  0.58293633  0.10918309  1
  P  P209  1  0.55458695  0.58414764  0.36180477  1
  P  P210  1  0.55279958  0.58357916  0.60962851  1
  P  P211  1  0.55313492  0.58246109  0.86075916  1
  P  P212  1  0.55140954  0.91636414  0.10967141  1
  P  P213  1  0.55480144  0.91543779  0.36150076  1
  P  P214  1  0.55483204  0.91586125  0.61069319  1
  P  P215  1  0.55433119  0.91630174  0.85886197  1
  P  P216  1  0.44544075  0.08252432  0.13917044  1
  P  P217  1  0.44672726  0.08428736  0.39033948  1
  P  P218  1  0.44872786  0.08250808  0.63943515  1
  P  P219  1  0.44621491  0.08456463  0.89048172  1
  P  P220  1  0.44740787  0.41686767  0.13904759  1
  P  P221  1  0.44607763  0.41612561  0.39073435  1
  P  P222  1  0.44632452  0.41764118  0.63820746  1
  P  P223  1  0.44687843  0.41661848  0.89042585  1
  P  P224  1  0.44667187  0.75063081  0.14058050  1
  P  P225  1  0.44667245  0.74988542  0.39113431  1
  P  P226  1  0.44594808  0.74943634  0.63874128  1
  P  P227  1  0.44519710  0.74887140  0.88819090  1
  P  P228  1  0.94549725  0.08387167  0.13905448  1
  P  P229  1  0.94647887  0.08246488  0.39005415  1
  P  P230  1  0.94770815  0.08337316  0.63970284  1
  P  P231  1  0.94585147  0.08402440  0.89075876  1
  P  P232  1  0.94590500  0.41667692  0.14109168  1
  P  P233  1  0.94586405  0.41695694  0.38969957  1
  P  P234  1  0.94483735  0.41681511  0.63832286  1
  P  P235  1  0.94783040  0.41728892  0.88985888  1
  P  P236  1  0.94652353  0.74935538  0.13914014  1
  P  P237  1  0.94759376  0.75057435  0.39084617  1
  P  P238  1  0.94543318  0.74973034  0.63887780  1
  P  P239  1  0.94419292  0.74868479  0.88903036  1
  P  P240  1  0.19659438  0.08255141  0.23499200  1
  P  P241  1  0.19488206  0.08378878  0.48666119  1
  P  P242  1  0.19628456  0.08333712  0.73396697  1
  P  P243  1  0.19868922  0.08449750  0.98452256  1
  P  P244  1  0.19555108  0.41749515  0.23615988  1
  P  P245  1  0.19669872  0.41720023  0.48501298  1
  P  P246  1  0.19511610  0.41763070  0.73614766  1
  P  P247  1  0.19747431  0.41574767  0.98400156  1
  P  P248  1  0.19387563  0.74994508  0.23585579  1
  P  P249  1  0.19573953  0.74914345  0.48647294  1
  P  P250  1  0.19683961  0.74881204  0.73447472  1
  P  P251  1  0.19555469  0.75006794  0.98553902  1
  P  P252  1  0.69673090  0.08428294  0.23504350  1
  P  P253  1  0.69519712  0.08341531  0.48677470  1
  P  P254  1  0.69608745  0.08246703  0.73414080  1
  P  P255  1  0.69802461  0.08367966  0.98454863  1
  P  P256  1  0.69708650  0.41596594  0.23432904  1
  P  P257  1  0.69651879  0.41730824  0.48724505  1
  P  P258  1  0.69425338  0.41698320  0.73580210  1
  P  P259  1  0.69454343  0.41706862  0.98478567  1
  P  P260  1  0.69600278  0.74978750  0.23640874  1
  P  P261  1  0.69596134  0.74928140  0.48624982  1
  P  P262  1  0.69705372  0.75038935  0.73368808  1
  P  P263  1  0.69780205  0.74928623  0.98458188  1
  P  P264  1  0.30396696  0.25076688  0.01362719  1
  P  P265  1  0.30443290  0.25037739  0.26608887  1
  P  P266  1  0.30305903  0.25135997  0.51390221  1
  P  P267  1  0.30444911  0.25019656  0.76516666  1
  P  P268  1  0.30464145  0.58188861  0.01383114  1
  P  P269  1  0.30159366  0.58386027  0.26515450  1
  P  P270  1  0.30254518  0.58305771  0.51548553  1
  P  P271  1  0.30433872  0.58439036  0.76403801  1
  P  P272  1  0.30433624  0.91747010  0.01551471  1
  P  P273  1  0.30240875  0.91625437  0.26463452  1
  P  P274  1  0.30409038  0.91540425  0.51598271  1
  P  P275  1  0.30504221  0.91554388  0.76304538  1
  P  P276  1  0.80328483  0.24982730  0.01313425  1
  P  P277  1  0.80158657  0.25140699  0.26518575  1
  P  P278  1  0.80265697  0.25109561  0.51599007  1
  P  P279  1  0.80550710  0.25022245  0.76443898  1
  P  P280  1  0.80324969  0.58377545  0.01331473  1
  P  P281  1  0.80333173  0.58197268  0.26540340  1
  P  P282  1  0.80323995  0.58337626  0.51554608  1
  P  P283  1  0.80525713  0.58434413  0.76401279  1
  P  P284  1  0.80317605  0.91628417  0.01492779  1
  P  P285  1  0.80410986  0.91654319  0.26647875  1
  P  P286  1  0.80441041  0.91551644  0.51398611  1
  P  P287  1  0.80336419  0.91574923  0.76287852  1
  O  O288  1  0.05750643  0.25001840  0.18576713  1
  O  O289  1  0.05877188  0.25084378  0.43799847  1
  O  O290  1  0.05590167  0.25037115  0.68625250  1
  O  O291  1  0.05877083  0.25037780  0.93801292  1
  O  O292  1  0.05827352  0.58314682  0.18776968  1
  O  O293  1  0.05928124  0.58310205  0.43850553  1
  O  O294  1  0.05855062  0.58379888  0.68750465  1
  O  O295  1  0.05621641  0.58304057  0.93583551  1
  O  O296  1  0.05842984  0.91681149  0.18729436  1
  O  O297  1  0.05636987  0.91603876  0.43632389  1
  O  O298  1  0.05540663  0.91602883  0.68721403  1
  O  O299  1  0.05633472  0.91645556  0.93665968  1
  O  O300  1  0.55965790  0.25023389  0.18738369  1
  O  O301  1  0.55938250  0.25072395  0.43728682  1
  O  O302  1  0.55670634  0.25030413  0.68643820  1
  O  O303  1  0.55816232  0.24983301  0.93797738  1
  O  O304  1  0.55722050  0.58334972  0.18606352  1
  O  O305  1  0.55905210  0.58333409  0.43849805  1
  O  O306  1  0.55605883  0.58361728  0.68637313  1
  O  O307  1  0.55816718  0.58385479  0.93737279  1
  O  O308  1  0.55565404  0.91660479  0.18640488  1
  O  O309  1  0.55938289  0.91583976  0.43827445  1
  O  O310  1  0.55894872  0.91585992  0.68745316  1
  O  O311  1  0.55717341  0.91597917  0.93568425  1
  O  O312  1  0.44128031  0.08347694  0.06238484  1
  O  O313  1  0.44372649  0.08371417  0.31351211  1
  O  O314  1  0.44466207  0.08306959  0.56275842  1
  O  O315  1  0.44377458  0.08388689  0.81363847  1
  O  O316  1  0.44221039  0.41668598  0.06243941  1
  O  O317  1  0.44346728  0.41706325  0.31388780  1
  O  O318  1  0.44110957  0.41720483  0.56162837  1
  O  O319  1  0.44381703  0.41663047  0.81358842  1
  O  O320  1  0.44363286  0.74990821  0.06375141  1
  O  O321  1  0.44241117  0.74966007  0.31443561  1
  O  O322  1  0.44131129  0.74924861  0.56205816  1
  O  O323  1  0.44133986  0.74934135  0.81142318  1
  O  O324  1  0.94058946  0.08393250  0.06231188  1
  O  O325  1  0.94357154  0.08370042  0.31324888  1
  O  O326  1  0.94432273  0.08321823  0.56296163  1
  O  O327  1  0.94306505  0.08329082  0.81392299  1
  O  O328  1  0.94216808  0.41674000  0.06430050  1
  O  O329  1  0.94096573  0.41660435  0.31306075  1
  O  O330  1  0.94094765  0.41711007  0.56153432  1
  O  O331  1  0.94433224  0.41713923  0.81312445  1
  O  O332  1  0.94126734  0.74916943  0.06245647  1
  O  O333  1  0.94430632  0.74953386  0.31408452  1
  O  O334  1  0.94104950  0.74958869  0.56214552  1
  O  O335  1  0.94035126  0.74995769  0.81223369  1
  O  O336  1  0.19480037  0.08406140  0.06123281  1
  O  O337  1  0.19349300  0.08275566  0.31184235  1
  O  O338  1  0.19030199  0.08314454  0.56341059  1
  O  O339  1  0.19333019  0.08312181  0.81077913  1
  O  O340  1  0.19376222  0.41659124  0.06075310  1
  O  O341  1  0.19142973  0.41685302  0.31287935  1
  O  O342  1  0.19346088  0.41686613  0.56183843  1
  O  O343  1  0.19092745  0.41692856  0.81283641  1
  O  O344  1  0.19116975  0.74989820  0.06231087  1
  O  O345  1  0.19062472  0.75024741  0.31275104  1
  O  O346  1  0.19080757  0.75029096  0.56314084  1
  O  O347  1  0.19314718  0.74953942  0.81120486  1
  O  O348  1  0.69429667  0.08333672  0.06126992  1
  O  O349  1  0.69382680  0.08331525  0.31188353  1
  O  O350  1  0.69138787  0.08315717  0.56355384  1
  O  O351  1  0.69337339  0.08329554  0.81094348  1
  O  O352  1  0.69137002  0.41713843  0.06161357  1
  O  O353  1  0.69376390  0.41687602  0.31115509  1
  O  O354  1  0.69181684  0.41746514  0.56392091  1
  O  O355  1  0.68968747  0.41699853  0.81253049  1
  O  O356  1  0.69426240  0.74962749  0.06133223  1
  O  O357  1  0.69160166  0.74994087  0.31314693  1
  O  O358  1  0.69134971  0.74937766  0.56294654  1
  O  O359  1  0.69346753  0.74947156  0.81041142  1
  O  O360  1  0.30775541  0.25057486  0.18923482  1
  O  O361  1  0.30807527  0.25029476  0.43731389  1
  O  O362  1  0.30773346  0.25054402  0.68834007  1
  O  O363  1  0.30839645  0.25072237  0.93692970  1
  O  O364  1  0.30597728  0.58379851  0.18846588  1
  O  O365  1  0.30570035  0.58347214  0.43876587  1
  O  O366  1  0.30904902  0.58343327  0.68732515  1
  O  O367  1  0.30880784  0.58246849  0.93702969  1
  O  O368  1  0.30747847  0.91632241  0.18798961  1
  O  O369  1  0.30659601  0.91606846  0.43912587  1
  O  O370  1  0.30975402  0.91640305  0.68634363  1
  O  O371  1  0.30732376  0.91637108  0.93864086  1
  O  O372  1  0.80502280  0.25075147  0.18846322  1
  O  O373  1  0.80622552  0.25038891  0.43922980  1
  O  O374  1  0.80981738  0.25020898  0.68768295  1
  O  O375  1  0.80854943  0.25079630  0.93645140  1
  O  O376  1  0.80604406  0.58298511  0.18859804  1
  O  O377  1  0.80676447  0.58334138  0.43883034  1
  O  O378  1  0.80940313  0.58324446  0.68726937  1
  O  O379  1  0.80810505  0.58268422  0.93665721  1
  O  O380  1  0.80739262  0.91626699  0.18964890  1
  O  O381  1  0.80936285  0.91613023  0.43738681  1
  O  O382  1  0.80842772  0.91657020  0.68619735  1
  O  O383  1  0.80519088  0.91624815  0.93804291  1
  O  O384  1  0.23381063  0.25089610  0.03806668  1
  O  O385  1  0.23457771  0.24993106  0.29065680  1
  O  O386  1  0.23266855  0.25140672  0.53774294  1
  O  O387  1  0.23454736  0.24982395  0.78961868  1
  O  O388  1  0.23460855  0.58251769  0.03795039  1
  O  O389  1  0.23150019  0.58403692  0.28932641  1
  O  O390  1  0.23244587  0.58291497  0.54022747  1
  O  O391  1  0.23392998  0.58382842  0.78772321  1
  O  O392  1  0.23455843  0.91727196  0.04041623  1
  O  O393  1  0.23213826  0.91566936  0.28853785  1
  O  O394  1  0.23430748  0.91599091  0.54102458  1
  O  O395  1  0.23500887  0.91586314  0.78728251  1
  O  O396  1  0.73280386  0.25058739  0.03636108  1
  O  O397  1  0.73173861  0.25086989  0.29042100  1
  O  O398  1  0.73253470  0.25101343  0.54040572  1
  O  O399  1  0.73525305  0.24985025  0.78805083  1
  O  O400  1  0.73297509  0.58311133  0.03723287  1
  O  O401  1  0.73381937  0.58244388  0.29101114  1
  O  O402  1  0.73312955  0.58359812  0.54022930  1
  O  O403  1  0.73506797  0.58394599  0.78782707  1
  O  O404  1  0.73387554  0.91627822  0.04135931  1
  O  O405  1  0.73435109  0.91669144  0.29128526  1
  O  O406  1  0.73375668  0.91578171  0.53707519  1
  O  O407  1  0.73300492  0.91589285  0.78651081  1
  O  O408  1  0.26625975  0.08383530  0.20988989  1
  O  O409  1  0.26501483  0.08285123  0.46270978  1
  O  O410  1  0.26605746  0.08407788  0.70894145  1
  O  O411  1  0.26871952  0.08373697  0.95992486  1
  O  O412  1  0.26546046  0.41700991  0.21147544  1
  O  O413  1  0.26671384  0.41755069  0.46019035  1
  O  O414  1  0.26522618  0.41719237  0.71204661  1
  O  O415  1  0.26750384  0.41621834  0.95940887  1
  O  O416  1  0.26376355  0.74978274  0.21095260  1
  O  O417  1  0.26622143  0.74936298  0.46290231  1
  O  O418  1  0.26697236  0.74906031  0.71011606  1
  O  O419  1  0.26563138  0.74988320  0.96161142  1
  O  O420  1  0.76629487  0.08440780  0.20963004  1
  O  O421  1  0.76519880  0.08355211  0.46230086  1
  O  O422  1  0.76577282  0.08308072  0.70887675  1
  O  O423  1  0.76791196  0.08308604  0.95950359  1
  O  O424  1  0.76693706  0.41660379  0.20915821  1
  O  O425  1  0.76685450  0.41694930  0.46326413  1
  O  O426  1  0.76460092  0.41721499  0.71259733  1
  O  O427  1  0.76445572  0.41688482  0.95992228  1
  O  O428  1  0.76605452  0.74919982  0.21230841  1
  O  O429  1  0.76650930  0.74941139  0.46267805  1
  O  O430  1  0.76717995  0.75007611  0.70932520  1
  O  O431  1  0.76769541  0.75003434  0.95958326  1
  O  O432  1  0.01563356  0.08374320  0.16276367  1
  O  O433  1  0.01616506  0.08259824  0.41515269  1
  O  O434  1  0.01754300  0.08355066  0.66504553  1
  O  O435  1  0.01556143  0.08342299  0.91599454  1
  O  O436  1  0.01579684  0.41656282  0.16545658  1
  O  O437  1  0.01631350  0.41735664  0.41320224  1
  O  O438  1  0.01489419  0.41651945  0.66259969  1
  O  O439  1  0.01770412  0.41721650  0.91501500  1
  O  O440  1  0.01683420  0.74984080  0.16268423  1
  O  O441  1  0.01767724  0.74986004  0.41542483  1
  O  O442  1  0.01583978  0.74978845  0.66281518  1
  O  O443  1  0.01425059  0.74897638  0.91326384  1
  O  O444  1  0.51540527  0.08350386  0.16359477  1
  O  O445  1  0.51644606  0.08310045  0.41529665  1
  O  O446  1  0.51882297  0.08333269  0.66393240  1
  O  O447  1  0.51584824  0.08334554  0.91597463  1
  O  O448  1  0.51777455  0.41682585  0.16268489  1
  O  O449  1  0.51583324  0.41685227  0.41575628  1
  O  O450  1  0.51676773  0.41712726  0.66179741  1
  O  O451  1  0.51686149  0.41676033  0.91523054  1
  O  O452  1  0.51626120  0.75015248  0.16594683  1
  O  O453  1  0.51690253  0.75001035  0.41515890  1
  O  O454  1  0.51645834  0.74933484  0.66235026  1
  O  O455  1  0.51517679  0.74961555  0.91268421  1
  O  O456  1  0.48585442  0.25011176  0.08655348  1
  O  O457  1  0.48384578  0.25090907  0.33704045  1
  O  O458  1  0.48474627  0.24996615  0.58414591  1
  O  O459  1  0.48302263  0.25098610  0.83725948  1
  O  O460  1  0.48474121  0.58362832  0.08413885  1
  O  O461  1  0.48457096  0.58326568  0.33746039  1
  O  O462  1  0.48267729  0.58397847  0.58503290  1
  O  O463  1  0.48284702  0.58218314  0.83689734  1
  O  O464  1  0.48148181  0.91609003  0.08504218  1
  O  O465  1  0.48468158  0.91634901  0.33761249  1
  O  O466  1  0.48441238  0.91546655  0.58677066  1
  O  O467  1  0.48456417  0.91664965  0.83395415  1
  O  O468  1  0.98422078  0.25060257  0.08451950  1
  O  O469  1  0.98445464  0.25028959  0.33696142  1
  O  O470  1  0.98242520  0.25007655  0.58479743  1
  O  O471  1  0.98299351  0.25060496  0.83785697  1
  O  O472  1  0.98459644  0.58313443  0.08638120  1
  O  O473  1  0.98572919  0.58387509  0.33715466  1
  O  O474  1  0.98356578  0.58387048  0.58711451  1
  O  O475  1  0.98268386  0.58296434  0.83441852  1
  O  O476  1  0.98461102  0.91570064  0.08609492  1
  O  O477  1  0.98277897  0.91607965  0.33482559  1
  O  O478  1  0.98173420  0.91596068  0.58575134  1
  O  O479  1  0.98295409  0.91667233  0.83519920  1
  O  O480  1  0.08844180  0.31516013  0.07646477  1
  O  O481  1  0.08759526  0.31652404  0.32840199  1
  O  O482  1  0.08680122  0.31427389  0.57647311  1
  O  O483  1  0.08630095  0.31629744  0.82794948  1
  O  O484  1  0.08786385  0.64913293  0.07808044  1
  O  O485  1  0.08960218  0.64859995  0.32909318  1
  O  O486  1  0.08737782  0.64943608  0.57773808  1
  O  O487  1  0.08698698  0.64715266  0.82604159  1
  O  O488  1  0.08799803  0.98087102  0.07717342  1
  O  O489  1  0.08721277  0.98010723  0.32652798  1
  O  O490  1  0.08543970  0.98142093  0.57787663  1
  O  O491  1  0.08699605  0.98154939  0.82758498  1
  O  O492  1  0.58924682  0.31613403  0.07773069  1
  O  O493  1  0.58789064  0.31547013  0.32728519  1
  O  O494  1  0.58844527  0.31554267  0.57722441  1
  O  O495  1  0.58671561  0.31599472  0.82832078  1
  O  O496  1  0.58905969  0.64774332  0.07651443  1
  O  O497  1  0.58768366  0.64958998  0.32904781  1
  O  O498  1  0.58716198  0.64849556  0.57707660  1
  O  O499  1  0.58628044  0.64739064  0.82671061  1
  O  O500  1  0.58515766  0.98147924  0.07676548  1
  O  O501  1  0.58848776  0.98034910  0.32815783  1
  O  O502  1  0.58811898  0.98094057  0.57740078  1
  O  O503  1  0.58881005  0.98133382  0.82679419  1
  O  O504  1  0.41231533  0.01699336  0.17194572  1
  O  O505  1  0.41203135  0.01953396  0.42273211  1
  O  O506  1  0.41539073  0.01719832  0.67211833  1
  O  O507  1  0.41114578  0.01987163  0.92265922  1
  O  O508  1  0.41407149  0.35184542  0.17244200  1
  O  O509  1  0.41212908  0.35084962  0.42292184  1
  O  O510  1  0.41295800  0.35273550  0.67189189  1
  O  O511  1  0.41298621  0.35159076  0.92323085  1
  O  O512  1  0.41242241  0.68554094  0.17308535  1
  O  O513  1  0.41288165  0.68481834  0.42418134  1
  O  O514  1  0.41240945  0.68443139  0.67207650  1
  O  O515  1  0.41191436  0.68360111  0.92114289  1
  O  O516  1  0.91204580  0.01876131  0.17210130  1
  O  O517  1  0.91252027  0.01715823  0.42200525  1
  O  O518  1  0.91371813  0.01819679  0.67221238  1
  O  O519  1  0.91119613  0.01912037  0.92315138  1
  O  O520  1  0.91176813  0.35165638  0.17375460  1
  O  O521  1  0.91237437  0.35205836  0.42328517  1
  O  O522  1  0.91121933  0.35175992  0.67119545  1
  O  O523  1  0.91360869  0.35242955  0.92259325  1
  O  O524  1  0.91368336  0.68422266  0.17289952  1
  O  O525  1  0.91321935  0.68586137  0.42394997  1
  O  O526  1  0.91203034  0.68463372  0.67209446  1
  O  O527  1  0.91081047  0.68318524  0.92151920  1
  O  O528  1  0.16312984  0.01712072  0.20260091  1
  O  O529  1  0.16118646  0.01870268  0.45354526  1
  O  O530  1  0.16231832  0.01817532  0.70140462  1
  O  O531  1  0.16457941  0.01958708  0.95167429  1
  O  O532  1  0.16188851  0.35253475  0.20290111  1
  O  O533  1  0.16252335  0.35237064  0.45216792  1
  O  O534  1  0.16146389  0.35272372  0.70276627  1
  O  O535  1  0.16345023  0.35065176  0.95150501  1
  O  O536  1  0.15996769  0.68477180  0.20317645  1
  O  O537  1  0.16247404  0.68387898  0.45363870  1
  O  O538  1  0.16288093  0.68372262  0.70193963  1
  O  O539  1  0.16203825  0.68496751  0.95236737  1
  O  O540  1  0.66275227  0.01913625  0.20229990  1
  O  O541  1  0.66181954  0.01818825  0.45378585  1
  O  O542  1  0.66205233  0.01730761  0.70189563  1
  O  O543  1  0.66384552  0.01860959  0.95217397  1
  O  O544  1  0.66307751  0.35078432  0.20215175  1
  O  O545  1  0.66305299  0.35230574  0.45391289  1
  O  O546  1  0.66100552  0.35188917  0.70249985  1
  O  O547  1  0.66047687  0.35202425  0.95208456  1
  O  O548  1  0.66221989  0.68484406  0.20340783  1
  O  O549  1  0.66272312  0.68409463  0.45307568  1
  O  O550  1  0.66298151  0.68543845  0.70072035  1
  O  O551  1  0.66423763  0.68402422  0.95171889  1
  O  O552  1  0.33747750  0.31592327  0.04684874  1
  O  O553  1  0.33838109  0.31548758  0.29860724  1
  O  O554  1  0.33630919  0.31663056  0.54687564  1
  O  O555  1  0.33831150  0.31531706  0.79795841  1
  O  O556  1  0.33834134  0.64683734  0.04709098  1
  O  O557  1  0.33525448  0.64878012  0.29830863  1
  O  O558  1  0.33655820  0.64803410  0.54836542  1
  O  O559  1  0.33759488  0.64955318  0.79702870  1
  O  O560  1  0.33841702  0.98275318  0.04745125  1
  O  O561  1  0.33553357  0.98144311  0.29805869  1
  O  O562  1  0.33890903  0.98013235  0.54850591  1
  O  O563  1  0.33860085  0.98059482  0.79630001  1
  O  O564  1  0.83656775  0.31473712  0.04692344  1
  O  O565  1  0.83536569  0.31667464  0.29759146  1
  O  O566  1  0.83681683  0.31598103  0.54845197  1
  O  O567  1  0.83869423  0.31539526  0.79788009  1
  O  O568  1  0.83628452  0.64913520  0.04647677  1
  O  O569  1  0.83789717  0.64673750  0.29813917  1
  O  O570  1  0.83742304  0.64844739  0.54805865  1
  O  O571  1  0.83863684  0.64970273  0.79640374  1
  O  O572  1  0.83770728  0.98147828  0.04666218  1
  O  O573  1  0.83841029  0.98158436  0.29879122  1
  O  O574  1  0.83758352  0.98045290  0.54798428  1
  O  O575  1  0.83660408  0.98067303  0.79658666  1
  O  O576  1  0.41149437  0.14746283  0.17217821  1
  O  O577  1  0.41337785  0.14984935  0.42270419  1
  O  O578  1  0.41460153  0.14743549  0.67215871  1
  O  O579  1  0.41257396  0.15000049  0.92276434  1
  O  O580  1  0.41421054  0.48198130  0.17257833  1
  O  O581  1  0.41128143  0.48081667  0.42336420  1
  O  O582  1  0.41342222  0.48295151  0.67160751  1
  O  O583  1  0.41267495  0.48157594  0.92292767  1
  O  O584  1  0.41252643  0.81584692  0.17269951  1
  O  O585  1  0.41270877  0.81475990  0.42406589  1
  O  O586  1  0.41266840  0.81454114  0.67209902  1
  O  O587  1  0.41134752  0.81382621  0.92124426  1
  O  O588  1  0.91230661  0.14908568  0.17237346  1
  O  O589  1  0.91226163  0.14738554  0.42287708  1
  O  O590  1  0.91362969  0.14851594  0.67195190  1
  O  O591  1  0.91180780  0.14927915  0.92288263  1
  O  O592  1  0.91191331  0.48165722  0.17383118  1
  O  O593  1  0.91237446  0.48195293  0.42315891  1
  O  O594  1  0.91162676  0.48210281  0.67143461  1
  O  O595  1  0.91393688  0.48254273  0.92233245  1
  O  O596  1  0.91301943  0.81427553  0.17252568  1
  O  O597  1  0.91373016  0.81578962  0.42307967  1
  O  O598  1  0.91185853  0.81472212  0.67215762  1
  O  O599  1  0.91030937  0.81343540  0.92262584  1
  O  O600  1  0.08824280  0.18528522  0.07603288  1
  O  O601  1  0.08828697  0.18610947  0.32820570  1
  O  O602  1  0.08642430  0.18423239  0.57727504  1
  O  O603  1  0.08667365  0.18605347  0.82774682  1
  O  O604  1  0.08842801  0.51898570  0.07782476  1
  O  O605  1  0.08919892  0.51828357  0.32847810  1
  O  O606  1  0.08755754  0.51944745  0.57722743  1
  O  O607  1  0.08666277  0.51712776  0.82677124  1
  O  O608  1  0.08823235  0.85054021  0.07799438  1
  O  O609  1  0.08647505  0.85000024  0.32738195  1
  O  O610  1  0.08578662  0.85125816  0.57773874  1
  O  O611  1  0.08651968  0.85132727  0.82717030  1
  O  O612  1  0.58995254  0.18604351  0.07708771  1
  O  O613  1  0.58739543  0.18543913  0.32715510  1
  O  O614  1  0.58899402  0.18538005  0.57740927  1
  O  O615  1  0.58664468  0.18588595  0.82776928  1
  O  O616  1  0.58842550  0.51769227  0.07697223  1
  O  O617  1  0.58846233  0.51925277  0.32851640  1
  O  O618  1  0.58676290  0.51857980  0.57681959  1
  O  O619  1  0.58659843  0.51731705  0.82795364  1
  O  O620  1  0.58544081  0.85135380  0.07696198  1
  O  O621  1  0.58773912  0.84999301  0.32860073  1
  O  O622  1  0.58841523  0.85074652  0.57755740  1
  O  O623  1  0.58840839  0.85131470  0.82610805  1
  O  O624  1  0.33745527  0.18565125  0.04677206  1
  O  O625  1  0.33878695  0.18552640  0.29871080  1
  O  O626  1  0.33625489  0.18634338  0.54776660  1
  O  O627  1  0.33891961  0.18533517  0.79745320  1
  O  O628  1  0.33780680  0.51643342  0.04663501  1
  O  O629  1  0.33529678  0.51879911  0.29804374  1
  O  O630  1  0.33666000  0.51798192  0.54801418  1
  O  O631  1  0.33806298  0.51952005  0.79767121  1
  O  O632  1  0.33846063  0.85257739  0.04860637  1
  O  O633  1  0.33608466  0.85137473  0.29795992  1
  O  O634  1  0.33812949  0.85006900  0.54789010  1
  O  O635  1  0.33824712  0.85015125  0.79581576  1
  O  O636  1  0.83595843  0.18452797  0.04650692  1
  O  O637  1  0.83582975  0.18659754  0.29817792  1
  O  O638  1  0.83652408  0.18595744  0.54888292  1
  O  O639  1  0.83929822  0.18531960  0.79738515  1
  O  O640  1  0.83686300  0.51893238  0.04693230  1
  O  O641  1  0.83729011  0.51659516  0.29725658  1
  O  O642  1  0.83721354  0.51843665  0.54842119  1
  O  O643  1  0.83893558  0.51958063  0.79785935  1
  O  O644  1  0.83761978  0.85101127  0.04680345  1
  O  O645  1  0.83834713  0.85152272  0.29908642  1
  O  O646  1  0.83748643  0.85037055  0.54732812  1
  O  O647  1  0.83655175  0.85055000  0.79597374  1
  O  O648  1  0.16204098  0.14745034  0.20266434  1
  O  O649  1  0.16193039  0.14917059  0.45369975  1
  O  O650  1  0.16151451  0.14818779  0.70182878  1
  O  O651  1  0.16513954  0.14977687  0.95188934  1
  O  O652  1  0.16213856  0.48283694  0.20336842  1
  O  O653  1  0.16247234  0.48235940  0.45287525  1
  O  O654  1  0.16183580  0.48294338  0.70328857  1
  O  O655  1  0.16315473  0.48052949  0.95092191  1
  O  O656  1  0.16005116  0.81500687  0.20295236  1
  O  O657  1  0.16223346  0.81394598  0.45255990  1
  O  O658  1  0.16271514  0.81360330  0.70124889  1
  O  O659  1  0.16220160  0.81514063  0.95234630  1
  O  O660  1  0.66239874  0.14941634  0.20330991  1
  O  O661  1  0.66171871  0.14880889  0.45418345  1
  O  O662  1  0.66141921  0.14739719  0.70185794  1
  O  O663  1  0.66430465  0.14885726  0.95177342  1
  O  O664  1  0.66256715  0.48072743  0.20145132  1
  O  O665  1  0.66351818  0.48248815  0.45377452  1
  O  O666  1  0.66076481  0.48190123  0.70232021  1
  O  O667  1  0.66071195  0.48219652  0.95198438  1
  O  O668  1  0.66292107  0.81498423  0.20295755  1
  O  O669  1  0.66250084  0.81426823  0.45281729  1
  O  O670  1  0.66305333  0.81531044  0.70107740  1
  O  O671  1  0.66348770  0.81421766  0.95207075  1
