# generated using pymatgen
data_Na2MnFe(PO4)2
_symmetry_space_group_name_H-M   'P 1'
_cell_length_a   21.08340644
_cell_length_b   18.93603398
_cell_length_c   20.04253161
_cell_angle_alpha   89.99954793
_cell_angle_beta   90.00200000
_cell_angle_gamma   90.00101226
_symmetry_Int_Tables_number   1
_chemical_formula_structural   Na2MnFe(PO4)2
_chemical_formula_sum   'Na96 Mn48 Fe48 P96 O384'
_cell_volume   8001.70216626
_cell_formula_units_Z   48
loop_
 _symmetry_equiv_pos_site_id
 _symmetry_equiv_pos_as_xyz
  1  'x, y, z'
loop_
 _atom_site_type_symbol
 _atom_site_label
 _atom_site_symmetry_multiplicity
 _atom_site_fract_x
 _atom_site_fract_y
 _atom_site_fract_z
 _atom_site_occupancy
  Na  Na0  1  0.00034334  -0.00015888  0.00112858  1
  Na  Na1  1  0.00279907  0.00059121  0.24921228  1
  Na  Na2  1  -0.00022823  -0.00041023  0.49963281  1
  Na  Na3  1  -0.00219840  -0.00112096  0.75099907  1
  Na  Na4  1  0.00079783  0.33380604  -0.00051176  1
  Na  Na5  1  -0.00002971  0.33385031  0.24927245  1
  Na  Na6  1  -0.00049907  0.33360239  0.50049215  1
  Na  Na7  1  -0.00083767  0.33283829  0.75062400  1
  Na  Na8  1  -0.00354495  0.66607989  -0.00094886  1
  Na  Na9  1  -0.00210146  0.66636507  0.24984361  1
  Na  Na10  1  -0.00107582  0.66625371  0.50079421  1
  Na  Na11  1  -0.00183164  0.66626399  0.75042215  1
  Na  Na12  1  0.50111164  0.00063307  -0.00100297  1
  Na  Na13  1  0.49872018  0.00013531  0.24887427  1
  Na  Na14  1  0.49791742  -0.00008646  0.50059041  1
  Na  Na15  1  0.49985414  -0.00002357  0.75061282  1
  Na  Na16  1  0.50149876  0.33431405  -0.00030091  1
  Na  Na17  1  0.50093672  0.33338831  0.24989234  1
  Na  Na18  1  0.49960968  0.33331828  0.50043801  1
  Na  Na19  1  0.49936505  0.33357032  0.75062114  1
  Na  Na20  1  0.49995685  0.66630791  -0.00070343  1
  Na  Na21  1  0.50029359  0.66744331  0.25040785  1
  Na  Na22  1  0.49885856  0.66635197  0.50078089  1
  Na  Na23  1  0.49923002  0.66597550  0.74920384  1
  Na  Na24  1  0.24903041  -0.00075897  0.12493129  1
  Na  Na25  1  0.25213299  0.00045014  0.37498308  1
  Na  Na26  1  0.25265109  0.00047688  0.62520196  1
  Na  Na27  1  0.25190069  0.00128267  0.87450772  1
  Na  Na28  1  0.24863019  0.33313031  0.12566000  1
  Na  Na29  1  0.24890982  0.33329980  0.37453561  1
  Na  Na30  1  0.24940051  0.33416833  0.62539954  1
  Na  Na31  1  0.24755453  0.33286344  0.87402839  1
  Na  Na32  1  0.24968124  0.66649375  0.12367765  1
  Na  Na33  1  0.25298830  0.66835153  0.37500267  1
  Na  Na34  1  0.25057769  0.66628505  0.62572307  1
  Na  Na35  1  0.25068799  0.66683851  0.87625940  1
  Na  Na36  1  0.74764633  -0.00078556  0.12470553  1
  Na  Na37  1  0.75030235  0.00078689  0.37561571  1
  Na  Na38  1  0.74837713  -0.00079466  0.62511396  1
  Na  Na39  1  0.74959967  -0.00008207  0.87475345  1
  Na  Na40  1  0.75056347  0.33339388  0.12348799  1
  Na  Na41  1  0.75015707  0.33314301  0.37586331  1
  Na  Na42  1  0.75208678  0.33444602  0.62634941  1
  Na  Na43  1  0.75156849  0.33412569  0.87471460  1
  Na  Na44  1  0.75158842  0.66676017  0.12425438  1
  Na  Na45  1  0.75171152  0.66678055  0.37425296  1
  Na  Na46  1  0.75059636  0.66630570  0.62419997  1
  Na  Na47  1  0.75303091  0.66779777  0.87627151  1
  Na  Na48  1  -0.00061115  0.16718838  -0.00025815  1
  Na  Na49  1  0.00214404  0.16581070  0.24957550  1
  Na  Na50  1  -0.00114994  0.16774673  0.50088254  1
  Na  Na51  1  -0.00086108  0.16724216  0.75125151  1
  Na  Na52  1  -0.00236251  0.49995912  -0.00028163  1
  Na  Na53  1  -0.00281611  0.49990685  0.24961566  1
  Na  Na54  1  -0.00062519  0.49969275  0.50086277  1
  Na  Na55  1  0.00058530  0.49894197  0.74936237  1
  Na  Na56  1  0.00079657  0.83294318  0.00012016  1
  Na  Na57  1  0.00163814  0.83290063  0.24918756  1
  Na  Na58  1  -0.00081775  0.83367405  0.49913459  1
  Na  Na59  1  -0.00307094  0.83460827  0.75150733  1
  Na  Na60  1  0.49820750  0.16723046  0.00001343  1
  Na  Na61  1  0.49980434  0.16604021  0.24952493  1
  Na  Na62  1  0.49839457  0.16714220  0.49916910  1
  Na  Na63  1  0.49908400  0.16652429  0.75036700  1
  Na  Na64  1  0.50179757  0.49968966  -0.00062686  1
  Na  Na65  1  0.50158817  0.49979106  0.24962739  1
  Na  Na66  1  0.50042187  0.49985717  0.50137777  1
  Na  Na67  1  0.50111599  0.49925228  0.74985158  1
  Na  Na68  1  0.50264142  0.83205147  -0.00137308  1
  Na  Na69  1  0.49860317  0.83341000  0.24999174  1
  Na  Na70  1  0.49643685  0.83445852  0.50100709  1
  Na  Na71  1  0.49917648  0.83351360  0.75039057  1
  Na  Na72  1  0.25162996  0.16584331  0.12520400  1
  Na  Na73  1  0.25318076  0.16602696  0.37453871  1
  Na  Na74  1  0.25211616  0.16647931  0.62551815  1
  Na  Na75  1  0.24986865  0.16758445  0.87495557  1
  Na  Na76  1  0.24959176  0.49960690  0.12456245  1
  Na  Na77  1  0.24818673  0.50054566  0.37519764  1
  Na  Na78  1  0.24799747  0.49974106  0.62536216  1
  Na  Na79  1  0.24890090  0.49967132  0.87535344  1
  Na  Na80  1  0.24794157  0.83393836  0.12415484  1
  Na  Na81  1  0.25095498  0.83345187  0.37506611  1
  Na  Na82  1  0.25367991  0.83180897  0.62514093  1
  Na  Na83  1  0.24932900  0.83367496  0.87488170  1
  Na  Na84  1  0.74861401  0.16717516  0.12399054  1
  Na  Na85  1  0.74831033  0.16694243  0.37571245  1
  Na  Na86  1  0.75057662  0.16617571  0.62535851  1
  Na  Na87  1  0.75195697  0.16595196  0.87488330  1
  Na  Na88  1  0.75146225  0.49967327  0.12407615  1
  Na  Na89  1  0.75320979  0.49846655  0.37477390  1
  Na  Na90  1  0.74960411  0.49985845  0.62484923  1
  Na  Na91  1  0.75066943  0.49944441  0.87560069  1
  Na  Na92  1  0.75048023  0.83320848  0.12451911  1
  Na  Na93  1  0.75081230  0.83334537  0.37516132  1
  Na  Na94  1  0.75165528  0.83305627  0.62537122  1
  Na  Na95  1  0.75096508  0.83358279  0.87551914  1
  Mn  Mn96  1  0.64350470  0.58307066  0.24778442  1
  Mn  Mn97  1  0.89170115  0.24999341  0.37677675  1
  Mn  Mn98  1  0.64255142  0.24954004  0.99741241  1
  Mn  Mn99  1  0.35821758  0.41731555  0.25211116  1
  Mn  Mn100  1  0.39246409  0.91648817  0.12627292  1
  Mn  Mn101  1  0.85848391  0.75030821  0.50237425  1
  Mn  Mn102  1  0.10739083  0.08343595  0.87280840  1
  Mn  Mn103  1  0.39279766  0.58297806  0.12715731  1
  Mn  Mn104  1  0.10691041  0.41711639  0.12264226  1
  Mn  Mn105  1  0.14327215  0.91671984  0.49871989  1
  Mn  Mn106  1  0.14233400  0.24928185  0.49825857  1
  Mn  Mn107  1  0.64218334  0.25010357  0.49912427  1
  Mn  Mn108  1  0.10849915  0.74910825  0.37248418  1
  Mn  Mn109  1  0.89303405  0.91688402  0.12763396  1
  Mn  Mn110  1  0.10914915  0.08383118  0.37329044  1
  Mn  Mn111  1  0.14136700  0.58456397  0.24755657  1
  Mn  Mn112  1  0.10802541  0.08309704  0.62301402  1
  Mn  Mn113  1  0.14233949  0.91658771  0.74749836  1
  Mn  Mn114  1  0.60710278  0.75036360  0.37287293  1
  Mn  Mn115  1  0.89284637  0.91681975  0.37638403  1
  Mn  Mn116  1  0.60891825  0.41681212  0.37284268  1
  Mn  Mn117  1  0.14099721  0.58300974  0.99728215  1
  Mn  Mn118  1  0.14266390  0.24929944  0.24775304  1
  Mn  Mn119  1  0.89210426  0.58347633  0.62839441  1
  Mn  Mn120  1  0.85803221  0.08351586  0.50252273  1
  Mn  Mn121  1  0.39146934  0.25116483  0.87754591  1
  Mn  Mn122  1  0.85764131  0.08355431  0.25169404  1
  Mn  Mn123  1  0.64277619  0.58331157  0.49766289  1
  Mn  Mn124  1  0.60861897  0.74889657  0.87205245  1
  Mn  Mn125  1  0.10628703  0.74932968  0.87239511  1
  Mn  Mn126  1  0.64269976  0.25017585  0.74747434  1
  Mn  Mn127  1  0.14186611  0.58393860  0.49755661  1
  Mn  Mn128  1  0.85744399  0.08328963  0.75235385  1
  Mn  Mn129  1  0.35755519  0.75058747  0.00245848  1
  Mn  Mn130  1  0.64127613  0.91665794  0.24774649  1
  Mn  Mn131  1  0.39191658  0.58309325  0.37692635  1
  Mn  Mn132  1  0.39204902  0.58243577  0.62833695  1
  Mn  Mn133  1  0.60752590  0.75019681  0.62309533  1
  Mn  Mn134  1  0.89248178  0.24967786  0.12758340  1
  Mn  Mn135  1  0.64331934  0.58379386  0.99761074  1
  Mn  Mn136  1  0.64129401  0.91612136  0.49795762  1
  Mn  Mn137  1  0.10764464  0.75045604  0.62365874  1
  Mn  Mn138  1  0.39265268  0.91580890  0.87743818  1
  Mn  Mn139  1  0.39242731  0.25044746  0.37707470  1
  Mn  Mn140  1  0.35763812  0.41601783  0.00191397  1
  Mn  Mn141  1  0.60768521  0.08401932  0.87280334  1
  Mn  Mn142  1  0.35730171  0.41686245  0.50241824  1
  Mn  Mn143  1  0.60682293  0.08288515  0.37276281  1
  Fe  Fe144  1  0.85730099  0.75086036  0.00276960  1
  Fe  Fe145  1  0.39281440  0.91732867  0.62767899  1
  Fe  Fe146  1  0.35826181  0.08348715  0.50264853  1
  Fe  Fe147  1  0.89280077  0.58317132  0.37674252  1
  Fe  Fe148  1  0.89281067  0.24952673  0.62738054  1
  Fe  Fe149  1  0.60794976  0.41699269  0.87263426  1
  Fe  Fe150  1  0.64211282  0.25015152  0.24777594  1
  Fe  Fe151  1  0.89332329  0.24980395  0.87707735  1
  Fe  Fe152  1  0.89236832  0.58353277  0.12690266  1
  Fe  Fe153  1  0.10635791  0.41688185  0.87319462  1
  Fe  Fe154  1  0.85693683  0.41592064  0.25184578  1
  Fe  Fe155  1  0.39301982  0.25067109  0.12624804  1
  Fe  Fe156  1  0.35649517  0.41713355  0.75194789  1
  Fe  Fe157  1  0.60841536  0.41662288  0.12334150  1
  Fe  Fe158  1  0.10878974  0.08326318  0.12251160  1
  Fe  Fe159  1  0.60604812  0.08400361  0.62376724  1
  Fe  Fe160  1  0.85791219  0.41603441  0.50256163  1
  Fe  Fe161  1  0.39271862  0.58262744  0.87596908  1
  Fe  Fe162  1  0.60739266  0.41576773  0.62400224  1
  Fe  Fe163  1  0.39237820  0.25045476  0.62700149  1
  Fe  Fe164  1  0.35680267  0.08355563  0.00174484  1
  Fe  Fe165  1  0.35755330  0.75027982  0.25061033  1
  Fe  Fe166  1  0.85742190  0.41617556  0.00158147  1
  Fe  Fe167  1  0.64338075  0.91665848  0.99862009  1
  Fe  Fe168  1  0.89190256  0.91747291  0.62677326  1
  Fe  Fe169  1  0.60834637  0.75011723  0.12377922  1
  Fe  Fe170  1  0.10653821  0.41630783  0.62363883  1
  Fe  Fe171  1  0.14244841  0.25031677  0.74807835  1
  Fe  Fe172  1  0.14258679  0.91732743  0.99788729  1
  Fe  Fe173  1  0.89214926  0.58276799  0.87610001  1
  Fe  Fe174  1  0.14361965  0.91649388  0.24882187  1
  Fe  Fe175  1  0.64327732  0.91601754  0.74809427  1
  Fe  Fe176  1  0.85767703  0.75035295  0.25154740  1
  Fe  Fe177  1  0.10701407  0.74981600  0.12337258  1
  Fe  Fe178  1  0.35765230  0.74981454  0.50234798  1
  Fe  Fe179  1  0.39139638  0.91627147  0.37656169  1
  Fe  Fe180  1  0.14276773  0.24937403  0.99861018  1
  Fe  Fe181  1  0.85712592  0.74976287  0.75168342  1
  Fe  Fe182  1  0.60666710  0.08329973  0.12290861  1
  Fe  Fe183  1  0.14234551  0.58333014  0.74927918  1
  Fe  Fe184  1  0.10614983  0.41684740  0.37357556  1
  Fe  Fe185  1  0.85745141  0.41751326  0.75220943  1
  Fe  Fe186  1  0.64328141  0.58382609  0.74916676  1
  Fe  Fe187  1  0.35751009  0.08249228  0.25090234  1
  Fe  Fe188  1  0.89164137  0.91730285  0.87779911  1
  Fe  Fe189  1  0.35727393  0.74897660  0.75235452  1
  Fe  Fe190  1  0.35747831  0.08382252  0.75178376  1
  Fe  Fe191  1  0.85728430  0.08306631  0.00246113  1
  P  P192  1  0.05433675  0.24925309  0.10916719  1
  P  P193  1  0.05321449  0.25100609  0.36006727  1
  P  P194  1  0.05343745  0.25058180  0.61178034  1
  P  P195  1  0.05425209  0.25063383  0.86096362  1
  P  P196  1  0.05127438  0.58419817  0.10974280  1
  P  P197  1  0.05167506  0.58230452  0.35995441  1
  P  P198  1  0.05452295  0.58283275  0.61177398  1
  P  P199  1  0.05169442  0.58239159  0.85954783  1
  P  P200  1  0.05622963  0.91640609  0.11080575  1
  P  P201  1  0.05491853  0.91657393  0.35920512  1
  P  P202  1  0.05173686  0.91651663  0.61022235  1
  P  P203  1  0.05274451  0.91687462  0.86142764  1
  P  P204  1  0.55375959  0.24982194  0.11078434  1
  P  P205  1  0.55416444  0.24998936  0.35930066  1
  P  P206  1  0.55182657  0.25000765  0.61074997  1
  P  P207  1  0.55334014  0.25070784  0.85987687  1
  P  P208  1  0.55443604  0.58365549  0.10991371  1
  P  P209  1  0.55353499  0.58351696  0.35990215  1
  P  P210  1  0.55513496  0.58237533  0.61175600  1
  P  P211  1  0.55340717  0.58273018  0.85911065  1
  P  P212  1  0.55407970  0.91665144  0.10891035  1
  P  P213  1  0.55068559  0.91664375  0.35997201  1
  P  P214  1  0.55311342  0.91742388  0.61174290  1
  P  P215  1  0.55585922  0.91643498  0.86030542  1
  P  P216  1  0.44557782  0.08402782  0.13840350  1
  P  P217  1  0.44408716  0.08234100  0.38909024  1
  P  P218  1  0.44563421  0.08391188  0.63984922  1
  P  P219  1  0.44439423  0.08353975  0.88971185  1
  P  P220  1  0.44846424  0.41604167  0.13947921  1
  P  P221  1  0.44740157  0.41697236  0.39053472  1
  P  P222  1  0.44678962  0.41580011  0.64107891  1
  P  P223  1  0.44675463  0.41787570  0.88871754  1
  P  P224  1  0.44805371  0.75017335  0.13986180  1
  P  P225  1  0.44431725  0.75069811  0.38960023  1
  P  P226  1  0.44468388  0.75037518  0.64007599  1
  P  P227  1  0.44560920  0.74840223  0.88872109  1
  P  P228  1  0.94776282  0.08319539  0.13899761  1
  P  P229  1  0.94736799  0.08356500  0.38989912  1
  P  P230  1  0.94678601  0.08332530  0.64062008  1
  P  P231  1  0.94555930  0.08328479  0.89098189  1
  P  P232  1  0.94430272  0.41701632  0.13908465  1
  P  P233  1  0.94528532  0.41694890  0.38956703  1
  P  P234  1  0.94567138  0.41573658  0.64002877  1
  P  P235  1  0.94552409  0.41652035  0.88888669  1
  P  P236  1  0.94596908  0.74990072  0.13920134  1
  P  P237  1  0.94594882  0.74940932  0.38857913  1
  P  P238  1  0.94595851  0.75115532  0.64119741  1
  P  P239  1  0.94341451  0.75013714  0.88940730  1
  P  P240  1  0.19775518  0.08245568  0.23458442  1
  P  P241  1  0.19912941  0.08333197  0.48545034  1
  P  P242  1  0.19783762  0.08413025  0.73526710  1
  P  P243  1  0.19660492  0.08360193  0.98587373  1
  P  P244  1  0.19521721  0.41723511  0.23598082  1
  P  P245  1  0.19432746  0.41639765  0.48551197  1
  P  P246  1  0.19486592  0.41699939  0.73614806  1
  P  P247  1  0.19525682  0.41553033  0.98422969  1
  P  P248  1  0.19755553  0.75070953  0.23415278  1
  P  P249  1  0.19818273  0.75033690  0.48540400  1
  P  P250  1  0.19774843  0.74905158  0.73569875  1
  P  P251  1  0.19449912  0.75064983  0.98576947  1
  P  P252  1  0.69550464  0.08407501  0.23418944  1
  P  P253  1  0.69488544  0.08334407  0.48651229  1
  P  P254  1  0.69570949  0.08272690  0.73447686  1
  P  P255  1  0.69655945  0.08269164  0.98593135  1
  P  P256  1  0.69782760  0.41592531  0.23414681  1
  P  P257  1  0.69723525  0.41620742  0.48653824  1
  P  P258  1  0.69637627  0.41770107  0.73594681  1
  P  P259  1  0.69624042  0.41657248  0.98525020  1
  P  P260  1  0.69781404  0.74983478  0.23444963  1
  P  P261  1  0.69692772  0.74997685  0.48476264  1
  P  P262  1  0.69825307  0.74966407  0.73530274  1
  P  P263  1  0.69691950  0.75077105  0.98633094  1
  P  P264  1  0.30262637  0.24988719  0.01553473  1
  P  P265  1  0.30513047  0.24962874  0.26337214  1
  P  P266  1  0.30416444  0.24994156  0.51587227  1
  P  P267  1  0.30339813  0.25090018  0.76364714  1
  P  P268  1  0.30407549  0.58271737  0.01378647  1
  P  P269  1  0.30290927  0.58425576  0.26450624  1
  P  P270  1  0.30325370  0.58358574  0.51547643  1
  P  P271  1  0.30238525  0.58245953  0.76591262  1
  P  P272  1  0.30209936  0.91738953  0.01461607  1
  P  P273  1  0.30326669  0.91629934  0.26450273  1
  P  P274  1  0.30585564  0.91668878  0.51480474  1
  P  P275  1  0.30493665  0.91662547  0.76407900  1
  P  P276  1  0.80520052  0.24973011  0.01335410  1
  P  P277  1  0.80150638  0.25026847  0.26464908  1
  P  P278  1  0.80426165  0.25050765  0.51632674  1
  P  P279  1  0.80553165  0.25086512  0.76473063  1
  P  P280  1  0.80613304  0.58303205  0.01395074  1
  P  P281  1  0.80593360  0.58320047  0.26381046  1
  P  P282  1  0.80534389  0.58233651  0.51394025  1
  P  P283  1  0.80279569  0.58312189  0.76558464  1
  P  P284  1  0.80393738  0.91729397  0.01426478  1
  P  P285  1  0.80291264  0.91644440  0.26478752  1
  P  P286  1  0.80380180  0.91701645  0.51576966  1
  P  P287  1  0.80390720  0.91628418  0.76464498  1
  O  O288  1  0.05746066  0.24955444  0.18597335  1
  O  O289  1  0.05600989  0.25008453  0.43687139  1
  O  O290  1  0.05839527  0.24980317  0.68848278  1
  O  O291  1  0.05900221  0.24977397  0.93759571  1
  O  O292  1  0.05497958  0.58374441  0.18644093  1
  O  O293  1  0.05540901  0.58338024  0.43670005  1
  O  O294  1  0.05883562  0.58369517  0.68848159  1
  O  O295  1  0.05502576  0.58314626  0.93626590  1
  O  O296  1  0.06045635  0.91661303  0.18756422  1
  O  O297  1  0.05787640  0.91644676  0.43603091  1
  O  O298  1  0.05580807  0.91647070  0.68699239  1
  O  O299  1  0.05840229  0.91717251  0.93803595  1
  O  O300  1  0.55804301  0.24982270  0.18747754  1
  O  O301  1  0.55721187  0.25023702  0.43610192  1
  O  O302  1  0.55570339  0.24991944  0.68740885  1
  O  O303  1  0.55674983  0.25004759  0.93664736  1
  O  O304  1  0.55741694  0.58390882  0.18666977  1
  O  O305  1  0.55665882  0.58351084  0.43672830  1
  O  O306  1  0.55970539  0.58341781  0.68843545  1
  O  O307  1  0.55756766  0.58365927  0.93580376  1
  O  O308  1  0.55608036  0.91663307  0.18577227  1
  O  O309  1  0.55447065  0.91656732  0.43670363  1
  O  O310  1  0.55854733  0.91619827  0.68839207  1
  O  O311  1  0.56041862  0.91640536  0.93706280  1
  O  O312  1  0.44074936  0.08321416  0.06167392  1
  O  O313  1  0.44036427  0.08279813  0.31223332  1
  O  O314  1  0.44177846  0.08389650  0.56305480  1
  O  O315  1  0.44014197  0.08363439  0.81289607  1
  O  O316  1  0.44446099  0.41659898  0.06279429  1
  O  O317  1  0.44413038  0.41710600  0.31375113  1
  O  O318  1  0.44295767  0.41677528  0.56441511  1
  O  O319  1  0.44116941  0.41703961  0.81215544  1
  O  O320  1  0.44402098  0.75030448  0.06311898  1
  O  O321  1  0.44044411  0.75008025  0.31277964  1
  O  O322  1  0.44087632  0.74941591  0.56325691  1
  O  O323  1  0.44094314  0.74923640  0.81198231  1
  O  O324  1  0.94197129  0.08312862  0.06242344  1
  O  O325  1  0.94414989  0.08353644  0.31310916  1
  O  O326  1  0.94420228  0.08342264  0.56384709  1
  O  O327  1  0.94266436  0.08290399  0.81423395  1
  O  O328  1  0.94069111  0.41585429  0.06227683  1
  O  O329  1  0.94078548  0.41563023  0.31280998  1
  O  O330  1  0.94156591  0.41646125  0.56330247  1
  O  O331  1  0.94142197  0.41683487  0.81214836  1
  O  O332  1  0.94124639  0.75103817  0.06245372  1
  O  O333  1  0.94185254  0.75041765  0.31181438  1
  O  O334  1  0.94361350  0.75017435  0.56435715  1
  O  O335  1  0.93957607  0.75027668  0.81257497  1
  O  O336  1  0.19244956  0.08338489  0.06259025  1
  O  O337  1  0.19459185  0.08360852  0.31132899  1
  O  O338  1  0.19473698  0.08343253  0.56212348  1
  O  O339  1  0.19368327  0.08376789  0.81197105  1
  O  O340  1  0.19236034  0.41680533  0.06103915  1
  O  O341  1  0.19057407  0.41733580  0.31270447  1
  O  O342  1  0.19005781  0.41639505  0.56232229  1
  O  O343  1  0.19011422  0.41680015  0.81284092  1
  O  O344  1  0.19024724  0.74941905  0.06250695  1
  O  O345  1  0.19429110  0.74954138  0.31092463  1
  O  O346  1  0.19392375  0.74999462  0.56206856  1
  O  O347  1  0.19333544  0.74978814  0.81237676  1
  O  O348  1  0.69120732  0.08358844  0.06253021  1
  O  O349  1  0.69268249  0.08321546  0.31103236  1
  O  O350  1  0.68989440  0.08340922  0.56322163  1
  O  O351  1  0.69310567  0.08389048  0.81131062  1
  O  O352  1  0.69129268  0.41649280  0.06194136  1
  O  O353  1  0.69465416  0.41654266  0.31093127  1
  O  O354  1  0.69184800  0.41608279  0.56318179  1
  O  O355  1  0.69165678  0.41670926  0.81269009  1
  O  O356  1  0.69193277  0.74993204  0.06294380  1
  O  O357  1  0.69356059  0.74992794  0.31112795  1
  O  O358  1  0.69326488  0.75006112  0.56155035  1
  O  O359  1  0.69518076  0.74978702  0.81205862  1
  O  O360  1  0.30917340  0.25072630  0.18661885  1
  O  O361  1  0.30698823  0.25092080  0.43904754  1
  O  O362  1  0.30828192  0.25106792  0.68703495  1
  O  O363  1  0.30588177  0.25100479  0.93873461  1
  O  O364  1  0.30620057  0.58304945  0.18769109  1
  O  O365  1  0.30635575  0.58279720  0.43873788  1
  O  O366  1  0.30587257  0.58212871  0.68912918  1
  O  O367  1  0.30878543  0.58247751  0.93712978  1
  O  O368  1  0.30645216  0.91627599  0.18779339  1
  O  O369  1  0.30851406  0.91675330  0.43794613  1
  O  O370  1  0.30894624  0.91671305  0.68728143  1
  O  O371  1  0.30619514  0.91662461  0.93796291  1
  O  O372  1  0.80559407  0.24959104  0.18794384  1
  O  O373  1  0.80675301  0.24976349  0.43949637  1
  O  O374  1  0.80939325  0.24989131  0.68796284  1
  O  O375  1  0.80920595  0.24985368  0.93660534  1
  O  O376  1  0.80904509  0.58354542  0.18690913  1
  O  O377  1  0.80921171  0.58285029  0.43717088  1
  O  O378  1  0.80592260  0.58278163  0.68876259  1
  O  O379  1  0.80954591  0.58278171  0.93713816  1
  O  O380  1  0.80635973  0.91696135  0.18801144  1
  O  O381  1  0.80747798  0.91732083  0.43901678  1
  O  O382  1  0.80846791  0.91720450  0.68796499  1
  O  O383  1  0.80798149  0.91748634  0.93751158  1
  O  O384  1  0.23262734  0.24968286  0.04019365  1
  O  O385  1  0.23522090  0.24956772  0.28798421  1
  O  O386  1  0.23448548  0.25003865  0.54109630  1
  O  O387  1  0.23296445  0.25074552  0.78734666  1
  O  O388  1  0.23386140  0.58277223  0.03746755  1
  O  O389  1  0.23330471  0.58471760  0.28989442  1
  O  O390  1  0.23356203  0.58327878  0.54058169  1
  O  O391  1  0.23225999  0.58288238  0.79051450  1
  O  O392  1  0.23204732  0.91695020  0.03890061  1
  O  O393  1  0.23334093  0.91678800  0.28967288  1
  O  O394  1  0.23612971  0.91632578  0.54025884  1
  O  O395  1  0.23495596  0.91707219  0.78861017  1
  O  O396  1  0.73518482  0.24990524  0.03757650  1
  O  O397  1  0.73158584  0.25022205  0.28944023  1
  O  O398  1  0.73466325  0.25030997  0.54183673  1
  O  O399  1  0.73544085  0.25019320  0.78886599  1
  O  O400  1  0.73611617  0.58324599  0.03835000  1
  O  O401  1  0.73611130  0.58282663  0.28883220  1
  O  O402  1  0.73550345  0.58289741  0.53857537  1
  O  O403  1  0.73293614  0.58333351  0.79079397  1
  O  O404  1  0.73374262  0.91662447  0.03842507  1
  O  O405  1  0.73321851  0.91680086  0.28998781  1
  O  O406  1  0.73391084  0.91626451  0.54027608  1
  O  O407  1  0.73347338  0.91677718  0.78828244  1
  O  O408  1  0.26789863  0.08241088  0.21001758  1
  O  O409  1  0.26922585  0.08336596  0.46130471  1
  O  O410  1  0.26807017  0.08375286  0.71123312  1
  O  O411  1  0.26681524  0.08403583  0.96159384  1
  O  O412  1  0.26525081  0.41680092  0.21179991  1
  O  O413  1  0.26444038  0.41673621  0.46158140  1
  O  O414  1  0.26535030  0.41698270  0.71252052  1
  O  O415  1  0.26498974  0.41607683  0.95917886  1
  O  O416  1  0.26753680  0.75027902  0.20915251  1
  O  O417  1  0.26832482  0.75077264  0.46135016  1
  O  O418  1  0.26797994  0.74890215  0.71167352  1
  O  O419  1  0.26460318  0.75065263  0.96179658  1
  O  O420  1  0.76518072  0.08318967  0.20881197  1
  O  O421  1  0.76500436  0.08368269  0.46272161  1
  O  O422  1  0.76549271  0.08290576  0.70961172  1
  O  O423  1  0.76689745  0.08303486  0.96232149  1
  O  O424  1  0.76783956  0.41646319  0.20935679  1
  O  O425  1  0.76758650  0.41581916  0.46303091  1
  O  O426  1  0.76689706  0.41720482  0.71264859  1
  O  O427  1  0.76682487  0.41664452  0.96225344  1
  O  O428  1  0.76803578  0.74981888  0.21033641  1
  O  O429  1  0.76671036  0.75016172  0.46015042  1
  O  O430  1  0.76822266  0.74960802  0.71027327  1
  O  O431  1  0.76741862  0.75057679  0.96311353  1
  O  O432  1  0.01832892  0.08311614  0.16185234  1
  O  O433  1  0.01699133  0.08373330  0.41527785  1
  O  O434  1  0.01619852  0.08318731  0.66673329  1
  O  O435  1  0.01539422  0.08329836  0.91584930  1
  O  O436  1  0.01432252  0.41655909  0.16333011  1
  O  O437  1  0.01548240  0.41668043  0.41375875  1
  O  O438  1  0.01598457  0.41604131  0.66392161  1
  O  O439  1  0.01586850  0.41657555  0.91292307  1
  O  O440  1  0.01639598  0.75018788  0.16276169  1
  O  O441  1  0.01583006  0.74970799  0.41328750  1
  O  O442  1  0.01543771  0.75047258  0.66704056  1
  O  O443  1  0.01353469  0.74974478  0.91350737  1
  O  O444  1  0.51598860  0.08316628  0.16198583  1
  O  O445  1  0.51402244  0.08348052  0.41362998  1
  O  O446  1  0.51586755  0.08351671  0.66420321  1
  O  O447  1  0.51459275  0.08394015  0.91331913  1
  O  O448  1  0.51861568  0.41640583  0.16388363  1
  O  O449  1  0.51703462  0.41672365  0.41573905  1
  O  O450  1  0.51703000  0.41616684  0.66521103  1
  O  O451  1  0.51726108  0.41738437  0.91200237  1
  O  O452  1  0.51820119  0.75052755  0.16416600  1
  O  O453  1  0.51420998  0.75007716  0.41437588  1
  O  O454  1  0.51477268  0.74978379  0.66424148  1
  O  O455  1  0.51581357  0.74890491  0.91232240  1
  O  O456  1  0.48357692  0.25019090  0.08626817  1
  O  O457  1  0.48438051  0.24985330  0.33449222  1
  O  O458  1  0.48186484  0.25036173  0.58591098  1
  O  O459  1  0.48350844  0.25027816  0.83529324  1
  O  O460  1  0.48483767  0.58318739  0.08432162  1
  O  O461  1  0.48395538  0.58342785  0.33464756  1
  O  O462  1  0.48491385  0.58267014  0.58799186  1
  O  O463  1  0.48330530  0.58280371  0.83480547  1
  O  O464  1  0.48454661  0.91650855  0.08298487  1
  O  O465  1  0.48080220  0.91664234  0.33507093  1
  O  O466  1  0.48259915  0.91746059  0.58859159  1
  O  O467  1  0.48557302  0.91642491  0.83698811  1
  O  O468  1  0.98450772  0.25019302  0.08446524  1
  O  O469  1  0.98374219  0.25022663  0.33425414  1
  O  O470  1  0.98312619  0.25063780  0.58809416  1
  O  O471  1  0.98368164  0.25007817  0.83776039  1
  O  O472  1  0.98123532  0.58358550  0.08509842  1
  O  O473  1  0.98175228  0.58263169  0.33517712  1
  O  O474  1  0.98441640  0.58304615  0.58773868  1
  O  O475  1  0.98152159  0.58252563  0.83510781  1
  O  O476  1  0.98601466  0.91640091  0.08691726  1
  O  O477  1  0.98525715  0.91678327  0.33391688  1
  O  O478  1  0.98175930  0.91683257  0.58568307  1
  O  O479  1  0.98204892  0.91688694  0.83894974  1
  O  O480  1  0.08880073  0.31408307  0.07663481  1
  O  O481  1  0.08698132  0.31643867  0.32806315  1
  O  O482  1  0.08671667  0.31571850  0.57875399  1
  O  O483  1  0.08714268  0.31587398  0.82760143  1
  O  O484  1  0.08484329  0.64929498  0.07701922  1
  O  O485  1  0.08564558  0.64727627  0.32695585  1
  O  O486  1  0.08788116  0.64782691  0.57821359  1
  O  O487  1  0.08563586  0.64730809  0.82654228  1
  O  O488  1  0.08978014  0.98146469  0.07745063  1
  O  O489  1  0.08945528  0.98155597  0.32700111  1
  O  O490  1  0.08595026  0.98147023  0.57761497  1
  O  O491  1  0.08575634  0.98180090  0.82760475  1
  O  O492  1  0.58767783  0.31473138  0.07781184  1
  O  O493  1  0.58842175  0.31493480  0.32666789  1
  O  O494  1  0.58599262  0.31514670  0.57831364  1
  O  O495  1  0.58724700  0.31585091  0.82754849  1
  O  O496  1  0.58826281  0.64897199  0.07741009  1
  O  O497  1  0.58766024  0.64852418  0.32746666  1
  O  O498  1  0.58850864  0.64729268  0.57814583  1
  O  O499  1  0.58735980  0.64760367  0.82585249  1
  O  O500  1  0.58844459  0.98188328  0.07687159  1
  O  O501  1  0.58457631  0.98165335  0.32729106  1
  O  O502  1  0.58601658  0.98265782  0.57851734  1
  O  O503  1  0.58916189  0.98149766  0.82710359  1
  O  O504  1  0.41189801  0.01915231  0.17192981  1
  O  O505  1  0.41092825  0.01699814  0.42192476  1
  O  O506  1  0.41182126  0.01902738  0.67302186  1
  O  O507  1  0.41116878  0.01837632  0.92292522  1
  O  O508  1  0.41472744  0.35095123  0.17207584  1
  O  O509  1  0.41313299  0.35189093  0.42275574  1
  O  O510  1  0.41294374  0.35072590  0.67372124  1
  O  O511  1  0.41354818  0.35292191  0.92259519  1
  O  O512  1  0.41422908  0.68519760  0.17268906  1
  O  O513  1  0.41016475  0.68594265  0.42289105  1
  O  O514  1  0.41069204  0.68547838  0.67328592  1
  O  O515  1  0.41238912  0.68312004  0.92145051  1
  O  O516  1  0.91471169  0.01825456  0.17269402  1
  O  O517  1  0.91323097  0.01847541  0.42222559  1
  O  O518  1  0.91226477  0.01823379  0.67265679  1
  O  O519  1  0.91128457  0.01843837  0.92376908  1
  O  O520  1  0.91042825  0.35231570  0.17272840  1
  O  O521  1  0.91160031  0.35215812  0.42325157  1
  O  O522  1  0.91208601  0.35085703  0.67310325  1
  O  O523  1  0.91218057  0.35136857  0.92209667  1
  O  O524  1  0.91257166  0.68468247  0.17189099  1
  O  O525  1  0.91244730  0.68406178  0.42117461  1
  O  O526  1  0.91109484  0.68628360  0.67359495  1
  O  O527  1  0.90967760  0.68495002  0.92193511  1
  O  O528  1  0.16375132  0.01734789  0.20236837  1
  O  O529  1  0.16551487  0.01823209  0.45273700  1
  O  O530  1  0.16424986  0.01901891  0.70232444  1
  O  O531  1  0.16330312  0.01850608  0.95252447  1
  O  O532  1  0.16146618  0.35222322  0.20301228  1
  O  O533  1  0.16091410  0.35127145  0.45243875  1
  O  O534  1  0.16150598  0.35199214  0.70256013  1
  O  O535  1  0.16144101  0.35005695  0.95233649  1
  O  O536  1  0.16288523  0.68615648  0.20103769  1
  O  O537  1  0.16478737  0.68523244  0.45209033  1
  O  O538  1  0.16402463  0.68391613  0.70324400  1
  O  O539  1  0.16103813  0.68563502  0.95230424  1
  O  O540  1  0.66048228  0.01943291  0.20172846  1
  O  O541  1  0.66165338  0.01821758  0.45308577  1
  O  O542  1  0.66152968  0.01752232  0.70262462  1
  O  O543  1  0.66340126  0.01746783  0.95291445  1
  O  O544  1  0.66382549  0.35088527  0.20158010  1
  O  O545  1  0.66378324  0.35125669  0.45320544  1
  O  O546  1  0.66291963  0.35282851  0.70210680  1
  O  O547  1  0.66298265  0.35170198  0.95159157  1
  O  O548  1  0.66419823  0.68480625  0.20134617  1
  O  O549  1  0.66324484  0.68484142  0.45215304  1
  O  O550  1  0.66436086  0.68453738  0.70295969  1
  O  O551  1  0.66402085  0.68570940  0.95239915  1
  O  O552  1  0.33661229  0.31483236  0.04853884  1
  O  O553  1  0.33862507  0.31446988  0.29696938  1
  O  O554  1  0.33837487  0.31481097  0.54878007  1
  O  O555  1  0.33634020  0.31613792  0.79726577  1
  O  O556  1  0.33749707  0.64789023  0.04683998  1
  O  O557  1  0.33738287  0.64953014  0.29597304  1
  O  O558  1  0.33731139  0.64878691  0.54759873  1
  O  O559  1  0.33678715  0.64727902  0.79840954  1
  O  O560  1  0.33564631  0.98255621  0.04723897  1
  O  O561  1  0.33763251  0.98118009  0.29704090  1
  O  O562  1  0.33973475  0.98193452  0.54744517  1
  O  O563  1  0.33880360  0.98169564  0.79673480  1
  O  O564  1  0.83862952  0.31494448  0.04623917  1
  O  O565  1  0.83542530  0.31546872  0.29708418  1
  O  O566  1  0.83869959  0.31554797  0.54837859  1
  O  O567  1  0.83892446  0.31619564  0.79735969  1
  O  O568  1  0.83989495  0.64815970  0.04677403  1
  O  O569  1  0.83972531  0.64832451  0.29654854  1
  O  O570  1  0.83927802  0.64724844  0.54699616  1
  O  O571  1  0.83719786  0.64805514  0.79775416  1
  O  O572  1  0.83707110  0.98240290  0.04766647  1
  O  O573  1  0.83706517  0.98148254  0.29725684  1
  O  O574  1  0.83744037  0.98211651  0.54883457  1
  O  O575  1  0.83747470  0.98112037  0.79839017  1
  O  O576  1  0.41258007  0.14927775  0.17149659  1
  O  O577  1  0.40986862  0.14710615  0.42222546  1
  O  O578  1  0.41222511  0.14912922  0.67286680  1
  O  O579  1  0.41049299  0.14838084  0.92277344  1
  O  O580  1  0.41463814  0.48101872  0.17251727  1
  O  O581  1  0.41332050  0.48197605  0.42310161  1
  O  O582  1  0.41272259  0.48058848  0.67442341  1
  O  O583  1  0.41384516  0.48305486  0.92205220  1
  O  O584  1  0.41385359  0.81511359  0.17251186  1
  O  O585  1  0.41081884  0.81612047  0.42210294  1
  O  O586  1  0.41131603  0.81564317  0.67273874  1
  O  O587  1  0.41226565  0.81341640  0.92233399  1
  O  O588  1  0.91469264  0.14826070  0.17258084  1
  O  O589  1  0.91300586  0.14855277  0.42220055  1
  O  O590  1  0.91252460  0.14847038  0.67283028  1
  O  O591  1  0.91155637  0.14860019  0.92308925  1
  O  O592  1  0.91091257  0.48236469  0.17151822  1
  O  O593  1  0.91195860  0.48228303  0.42231068  1
  O  O594  1  0.91210265  0.48074087  0.67355510  1
  O  O595  1  0.91191736  0.48145365  0.92205567  1
  O  O596  1  0.91251745  0.81465456  0.17305321  1
  O  O597  1  0.91216236  0.81433309  0.42172855  1
  O  O598  1  0.91166279  0.81637529  0.67294547  1
  O  O599  1  0.91013396  0.81528263  0.92279200  1
  O  O600  1  0.08816209  0.18404400  0.07664393  1
  O  O601  1  0.08811168  0.18622408  0.32776930  1
  O  O602  1  0.08659747  0.18555135  0.57808489  1
  O  O603  1  0.08775151  0.18584843  0.82713479  1
  O  O604  1  0.08517261  0.51916212  0.07694446  1
  O  O605  1  0.08524082  0.51708219  0.32752419  1
  O  O606  1  0.08761776  0.51735962  0.57909600  1
  O  O607  1  0.08579631  0.51742630  0.82717454  1
  O  O608  1  0.08948147  0.85120389  0.07768894  1
  O  O609  1  0.08914248  0.85154868  0.32670846  1
  O  O610  1  0.08546061  0.85138191  0.57752518  1
  O  O611  1  0.08557736  0.85177369  0.82773169  1
  O  O612  1  0.58688203  0.18446915  0.07753394  1
  O  O613  1  0.58819112  0.18498471  0.32671528  1
  O  O614  1  0.58532388  0.18483761  0.57787042  1
  O  O615  1  0.58742304  0.18577587  0.82720559  1
  O  O616  1  0.58884065  0.51851732  0.07783294  1
  O  O617  1  0.58793044  0.51848969  0.32768673  1
  O  O618  1  0.58830600  0.51679563  0.57916499  1
  O  O619  1  0.58758540  0.51775878  0.82671155  1
  O  O620  1  0.58882389  0.85168088  0.07693324  1
  O  O621  1  0.58475315  0.85173379  0.32722011  1
  O  O622  1  0.58586928  0.85233479  0.57770902  1
  O  O623  1  0.58930299  0.85142801  0.82689754  1
  O  O624  1  0.33712956  0.18491145  0.04751936  1
  O  O625  1  0.33865202  0.18411343  0.29545963  1
  O  O626  1  0.33857121  0.18481716  0.54787054  1
  O  O627  1  0.33670740  0.18587214  0.79694233  1
  O  O628  1  0.33738369  0.51767269  0.04718803  1
  O  O629  1  0.33677048  0.51925551  0.29750461  1
  O  O630  1  0.33734186  0.51864363  0.54836538  1
  O  O631  1  0.33613300  0.51725157  0.79864876  1
  O  O632  1  0.33598671  0.85252398  0.04774219  1
  O  O633  1  0.33697875  0.85104072  0.29706953  1
  O  O634  1  0.34026017  0.85180787  0.54730209  1
  O  O635  1  0.33819530  0.85124771  0.79699021  1
  O  O636  1  0.83853188  0.18459454  0.04663915  1
  O  O637  1  0.83537367  0.18528772  0.29759565  1
  O  O638  1  0.83881085  0.18563385  0.54884347  1
  O  O639  1  0.83959054  0.18610688  0.79797617  1
  O  O640  1  0.83963499  0.51785468  0.04682930  1
  O  O641  1  0.83991115  0.51798017  0.29623324  1
  O  O642  1  0.83877369  0.51714391  0.54690344  1
  O  O643  1  0.83693586  0.51809027  0.79821088  1
  O  O644  1  0.83778451  0.85232137  0.04714622  1
  O  O645  1  0.83691792  0.85113629  0.29682471  1
  O  O646  1  0.83835801  0.85225349  0.54832376  1
  O  O647  1  0.83702030  0.85106954  0.79773110  1
  O  O648  1  0.16379705  0.14725150  0.20130535  1
  O  O649  1  0.16550633  0.14838677  0.45243172  1
  O  O650  1  0.16435643  0.14927574  0.70251128  1
  O  O651  1  0.16307372  0.14876290  0.95297058  1
  O  O652  1  0.16189831  0.48236282  0.20260399  1
  O  O653  1  0.16032820  0.48125092  0.45239187  1
  O  O654  1  0.16152953  0.48216735  0.70306362  1
  O  O655  1  0.16041399  0.48013225  0.95139620  1
  O  O656  1  0.16366689  0.81607639  0.20227892  1
  O  O657  1  0.16435613  0.81526766  0.45265314  1
  O  O658  1  0.16451330  0.81424605  0.70241932  1
  O  O659  1  0.16099853  0.81591668  0.95311826  1
  O  O660  1  0.66171247  0.14948285  0.20195406  1
  O  O661  1  0.66139297  0.14839810  0.45344466  1
  O  O662  1  0.66143309  0.14764366  0.70171338  1
  O  O663  1  0.66329448  0.14761197  0.95208694  1
  O  O664  1  0.66375944  0.48090430  0.20131273  1
  O  O665  1  0.66444392  0.48130814  0.45273247  1
  O  O666  1  0.66328054  0.48286848  0.70295165  1
  O  O667  1  0.66305391  0.48164023  0.95183562  1
  O  O668  1  0.66383385  0.81478148  0.20155198  1
  O  O669  1  0.66281602  0.81502797  0.45223940  1
  O  O670  1  0.66428785  0.81473819  0.70266464  1
  O  O671  1  0.66377767  0.81576517  0.95301075  1
