# generated using pymatgen
data_Na2MnFe(PO4)2
_symmetry_space_group_name_H-M   'P 1'
_cell_length_a   21.08834087
_cell_length_b   18.94210869
_cell_length_c   20.04717070
_cell_angle_alpha   89.99990605
_cell_angle_beta   89.99904447
_cell_angle_gamma   90.00075136
_symmetry_Int_Tables_number   1
_chemical_formula_structural   Na2MnFe(PO4)2
_chemical_formula_sum   'Na96 Mn48 Fe48 P96 O384'
_cell_volume   8007.99559306
_cell_formula_units_Z   48
loop_
 _symmetry_equiv_pos_site_id
 _symmetry_equiv_pos_as_xyz
  1  'x, y, z'
loop_
 _atom_site_type_symbol
 _atom_site_label
 _atom_site_symmetry_multiplicity
 _atom_site_fract_x
 _atom_site_fract_y
 _atom_site_fract_z
 _atom_site_occupancy
  Na  Na0  1  0.00058972  0.00059288  -0.00147474  1
  Na  Na1  1  0.00079714  0.00083307  0.24974095  1
  Na  Na2  1  0.00057853  0.00066883  0.50146665  1
  Na  Na3  1  0.00112362  0.00078689  0.75019860  1
  Na  Na4  1  0.00032610  0.33297003  0.00011348  1
  Na  Na5  1  0.00236612  0.33369571  0.24977656  1
  Na  Na6  1  0.00259026  0.33315747  0.49925910  1
  Na  Na7  1  0.00043781  0.33227058  0.75057372  1
  Na  Na8  1  -0.00131540  0.66617583  0.00080370  1
  Na  Na9  1  -0.00110056  0.66694993  0.24901189  1
  Na  Na10  1  -0.00093326  0.66621717  0.50063629  1
  Na  Na11  1  -0.00006127  0.66643996  0.74975306  1
  Na  Na12  1  0.49862187  0.00081742  -0.00039760  1
  Na  Na13  1  0.49725186  0.00029196  0.24976209  1
  Na  Na14  1  0.49621043  -0.00027963  0.50029963  1
  Na  Na15  1  0.49778224  0.00015509  0.74944118  1
  Na  Na16  1  0.50148133  0.33340383  0.00005474  1
  Na  Na17  1  0.50302769  0.33379610  0.25060043  1
  Na  Na18  1  0.50299290  0.33357416  0.50005273  1
  Na  Na19  1  0.50056082  0.33242513  0.75026930  1
  Na  Na20  1  0.50117557  0.66667554  0.00014224  1
  Na  Na21  1  0.50061468  0.66620637  0.24983846  1
  Na  Na22  1  0.49966289  0.66616037  0.50064278  1
  Na  Na23  1  0.50083848  0.66649477  0.74948101  1
  Na  Na24  1  0.25078131  0.00028288  0.12491766  1
  Na  Na25  1  0.25195441  0.00122310  0.37594400  1
  Na  Na26  1  0.25112893  0.00058960  0.62419204  1
  Na  Na27  1  0.25117229  0.00027723  0.87421936  1
  Na  Na28  1  0.24651376  0.33225516  0.12472504  1
  Na  Na29  1  0.24626914  0.33274230  0.37479650  1
  Na  Na30  1  0.24690517  0.33228554  0.62508416  1
  Na  Na31  1  0.24897155  0.33328672  0.87587746  1
  Na  Na32  1  0.24829848  0.66616585  0.12477827  1
  Na  Na33  1  0.24753196  0.66569338  0.37455592  1
  Na  Na34  1  0.24898115  0.66649617  0.62579466  1
  Na  Na35  1  0.24784072  0.66547818  0.87534848  1
  Na  Na36  1  0.74892064  -0.00025582  0.12476403  1
  Na  Na37  1  0.75129082  0.00080167  0.37516060  1
  Na  Na38  1  0.75080199  0.00132418  0.62581511  1
  Na  Na39  1  0.74822407  0.00017961  0.87514532  1
  Na  Na40  1  0.74994029  0.33271784  0.12511023  1
  Na  Na41  1  0.74854481  0.33216928  0.37425682  1
  Na  Na42  1  0.74973779  0.33242161  0.62534980  1
  Na  Na43  1  0.75147020  0.33304455  0.87524104  1
  Na  Na44  1  0.75362023  0.66686554  0.12450782  1
  Na  Na45  1  0.75375716  0.66716238  0.37432991  1
  Na  Na46  1  0.75024124  0.66652945  0.62528081  1
  Na  Na47  1  0.75019019  0.66661125  0.87495323  1
  Na  Na48  1  -0.00085783  0.16756583  -0.00050265  1
  Na  Na49  1  0.00083669  0.16704807  0.25038797  1
  Na  Na50  1  0.00120565  0.16619420  0.50110558  1
  Na  Na51  1  -0.00123651  0.16740911  0.75025583  1
  Na  Na52  1  -0.00218517  0.50074258  0.00025647  1
  Na  Na53  1  -0.00112560  0.50016344  0.24889318  1
  Na  Na54  1  0.00146140  0.49913575  0.49974787  1
  Na  Na55  1  0.00119485  0.49919669  0.75058644  1
  Na  Na56  1  0.00103641  0.83314013  -0.00038061  1
  Na  Na57  1  0.00012479  0.83337117  0.24904292  1
  Na  Na58  1  0.00033187  0.83346696  0.50071329  1
  Na  Na59  1  0.00253703  0.83259439  0.74988755  1
  Na  Na60  1  0.50041857  0.16680236  -0.00000747  1
  Na  Na61  1  0.50067722  0.16703555  0.24994155  1
  Na  Na62  1  0.49946078  0.16721519  0.49976389  1
  Na  Na63  1  0.49974736  0.16674492  0.74962200  1
  Na  Na64  1  0.49993983  0.50012201  -0.00049432  1
  Na  Na65  1  0.50219066  0.49885708  0.25019847  1
  Na  Na66  1  0.50098082  0.49978783  0.50062020  1
  Na  Na67  1  0.50012097  0.50003737  0.74994456  1
  Na  Na68  1  0.49990872  0.83331882  -0.00005569  1
  Na  Na69  1  0.49837934  0.83365327  0.25016049  1
  Na  Na70  1  0.49791195  0.83439879  0.50061062  1
  Na  Na71  1  0.50052496  0.83344559  0.74988455  1
  Na  Na72  1  0.25141546  0.16624287  0.12509527  1
  Na  Na73  1  0.24906796  0.16682027  0.37526795  1
  Na  Na74  1  0.24935690  0.16677868  0.62485294  1
  Na  Na75  1  0.25073516  0.16685596  0.87497812  1
  Na  Na76  1  0.24635157  0.50087285  0.12455861  1
  Na  Na77  1  0.24755536  0.49963474  0.37537693  1
  Na  Na78  1  0.24781531  0.49995429  0.62498427  1
  Na  Na79  1  0.24906510  0.49966629  0.87628181  1
  Na  Na80  1  0.24846101  0.83372486  0.12465596  1
  Na  Na81  1  0.25001701  0.83314382  0.37466390  1
  Na  Na82  1  0.25015647  0.83340406  0.62518208  1
  Na  Na83  1  0.24803717  0.83441997  0.87407139  1
  Na  Na84  1  0.74958540  0.16728859  0.12438425  1
  Na  Na85  1  0.75002430  0.16753891  0.37436141  1
  Na  Na86  1  0.75083768  0.16660581  0.62635388  1
  Na  Na87  1  0.74919191  0.16748020  0.87461780  1
  Na  Na88  1  0.75262155  0.49908247  0.12482924  1
  Na  Na89  1  0.75140877  0.49970187  0.37428915  1
  Na  Na90  1  0.74965274  0.50051710  0.62401073  1
  Na  Na91  1  0.75160569  0.49964180  0.87636499  1
  Na  Na92  1  0.75228067  0.83219884  0.12484984  1
  Na  Na93  1  0.75188210  0.83303983  0.37516987  1
  Na  Na94  1  0.74998433  0.83324545  0.62605446  1
  Na  Na95  1  0.74869111  0.83366774  0.87460134  1
  Mn  Mn96  1  0.35713172  0.74940403  0.25238165  1
  Mn  Mn97  1  0.60840573  0.75002713  0.37293678  1
  Mn  Mn98  1  0.10862152  0.08386387  0.12216024  1
  Mn  Mn99  1  0.10691157  0.41702890  0.87310129  1
  Mn  Mn100  1  0.64226349  0.91732216  0.49752814  1
  Mn  Mn101  1  0.85824267  0.08339468  0.25224701  1
  Mn  Mn102  1  0.35696252  0.41640537  0.25197381  1
  Mn  Mn103  1  0.60877235  0.74959736  0.12309753  1
  Mn  Mn104  1  0.85710192  0.08312576  0.00200439  1
  Mn  Mn105  1  0.64357615  0.58285930  0.99782606  1
  Mn  Mn106  1  0.10788167  0.74996077  0.62255358  1
  Mn  Mn107  1  0.14240752  0.91695744  0.24807119  1
  Mn  Mn108  1  0.39176489  0.58259615  0.12721857  1
  Mn  Mn109  1  0.64322335  0.58328043  0.49695060  1
  Mn  Mn110  1  0.60819145  0.41681044  0.87259301  1
  Mn  Mn111  1  0.89248120  0.58208801  0.62771601  1
  Mn  Mn112  1  0.39233197  0.25088035  0.37692347  1
  Mn  Mn113  1  0.89263742  0.91689128  0.37783007  1
  Mn  Mn114  1  0.89237818  0.91756190  0.12673381  1
  Mn  Mn115  1  0.89240958  0.91743731  0.62803801  1
  Mn  Mn116  1  0.85822493  0.41640118  0.75199093  1
  Mn  Mn117  1  0.89326122  0.24991424  0.37729369  1
  Mn  Mn118  1  0.35716851  0.41651193  0.00278952  1
  Mn  Mn119  1  0.35688489  0.41626683  0.75210641  1
  Mn  Mn120  1  0.89231542  0.91633963  0.87686150  1
  Mn  Mn121  1  0.14269169  0.91702952  0.49749255  1
  Mn  Mn122  1  0.35731165  0.74968241  0.50185852  1
  Mn  Mn123  1  0.60716333  0.08354994  0.12293287  1
  Mn  Mn124  1  0.35720056  0.74986361  0.00140488  1
  Mn  Mn125  1  0.85858417  0.41575674  0.50204949  1
  Mn  Mn126  1  0.60867031  0.41656787  0.62306481  1
  Mn  Mn127  1  0.64156457  0.91676336  0.99746224  1
  Mn  Mn128  1  0.64405258  0.58340289  0.24779699  1
  Mn  Mn129  1  0.14120003  0.58315354  0.49717453  1
  Mn  Mn130  1  0.35714749  0.41618223  0.50176419  1
  Mn  Mn131  1  0.60739566  0.08309596  0.62272708  1
  Mn  Mn132  1  0.35716111  0.74956574  0.75333532  1
  Mn  Mn133  1  0.64198138  0.91650193  0.24826207  1
  Mn  Mn134  1  0.60775652  0.75048223  0.62239418  1
  Mn  Mn135  1  0.39251376  0.25136025  0.12709514  1
  Mn  Mn136  1  0.39121617  0.91615708  0.12687115  1
  Mn  Mn137  1  0.39176459  0.25041657  0.62696037  1
  Mn  Mn138  1  0.39177946  0.58324726  0.62765601  1
  Mn  Mn139  1  0.39176065  0.58294728  0.37662376  1
  Mn  Mn140  1  0.85727027  0.75063919  0.75296126  1
  Mn  Mn141  1  0.10818184  0.08314178  0.87216169  1
  Mn  Mn142  1  0.60753770  0.08319298  0.37340636  1
  Mn  Mn143  1  0.10704272  0.74996119  0.12212968  1
  Fe  Fe144  1  0.39200055  0.91625221  0.37677288  1
  Fe  Fe145  1  0.89247863  0.58329393  0.87635408  1
  Fe  Fe146  1  0.85686676  0.08322452  0.75194876  1
  Fe  Fe147  1  0.85767255  0.41621700  0.25193937  1
  Fe  Fe148  1  0.14101553  0.58306050  0.24798950  1
  Fe  Fe149  1  0.85854219  0.75029111  0.25242197  1
  Fe  Fe150  1  0.14199943  0.58303017  0.74889221  1
  Fe  Fe151  1  0.39215775  0.91642347  0.62740052  1
  Fe  Fe152  1  0.10740452  0.41579183  0.62357745  1
  Fe  Fe153  1  0.64327098  0.25003648  0.99791717  1
  Fe  Fe154  1  0.64312095  0.25006740  0.74865774  1
  Fe  Fe155  1  0.39255756  0.91635583  0.87617210  1
  Fe  Fe156  1  0.14357213  0.91751011  0.74802293  1
  Fe  Fe157  1  0.14265938  0.91697220  0.99742502  1
  Fe  Fe158  1  0.64339867  0.24999669  0.24794123  1
  Fe  Fe159  1  0.10705663  0.74980235  0.87372598  1
  Fe  Fe160  1  0.60603504  0.08302789  0.87294384  1
  Fe  Fe161  1  0.60869770  0.41710051  0.12320680  1
  Fe  Fe162  1  0.60746309  0.75017334  0.87378269  1
  Fe  Fe163  1  0.89249206  0.25020543  0.87705879  1
  Fe  Fe164  1  0.64359803  0.24947379  0.49869446  1
  Fe  Fe165  1  0.89401603  0.58306605  0.37641227  1
  Fe  Fe166  1  0.10589548  0.41654818  0.12324434  1
  Fe  Fe167  1  0.10745018  0.08397788  0.62375677  1
  Fe  Fe168  1  0.64157887  0.91720643  0.74840106  1
  Fe  Fe169  1  0.35699127  0.08400041  0.25199983  1
  Fe  Fe170  1  0.85778296  0.75019310  0.00060243  1
  Fe  Fe171  1  0.14247921  0.24920902  0.99793105  1
  Fe  Fe172  1  0.60845535  0.41711426  0.37302730  1
  Fe  Fe173  1  0.85772748  0.41606294  0.00233987  1
  Fe  Fe174  1  0.10667219  0.75010046  0.37317277  1
  Fe  Fe175  1  0.35674744  0.08416386  0.75145561  1
  Fe  Fe176  1  0.14224194  0.24966831  0.74861025  1
  Fe  Fe177  1  0.10788215  0.08279824  0.37338239  1
  Fe  Fe178  1  0.14211321  0.24928482  0.49822530  1
  Fe  Fe179  1  0.89307727  0.25006517  0.12662648  1
  Fe  Fe180  1  0.85842011  0.08341501  0.50194688  1
  Fe  Fe181  1  0.39225648  0.58331530  0.87654883  1
  Fe  Fe182  1  0.89329548  0.24985888  0.62645428  1
  Fe  Fe183  1  0.35643351  0.08434355  0.50163791  1
  Fe  Fe184  1  0.14248606  0.24967864  0.24772846  1
  Fe  Fe185  1  0.89334144  0.58272272  0.12679449  1
  Fe  Fe186  1  0.35717187  0.08364149  0.00083547  1
  Fe  Fe187  1  0.64255885  0.58319232  0.74923227  1
  Fe  Fe188  1  0.85827296  0.75093249  0.50181973  1
  Fe  Fe189  1  0.14122745  0.58356989  0.99755549  1
  Fe  Fe190  1  0.10706337  0.41714212  0.37198378  1
  Fe  Fe191  1  0.39253628  0.25021513  0.87663314  1
  P  P192  1  0.05406087  0.25056009  0.11035025  1
  P  P193  1  0.05572427  0.24920005  0.36065619  1
  P  P194  1  0.05447042  0.24940926  0.61121062  1
  P  P195  1  0.05375787  0.24973956  0.86064985  1
  P  P196  1  0.05345833  0.58238273  0.11052727  1
  P  P197  1  0.05255841  0.58372756  0.35912361  1
  P  P198  1  0.05455644  0.58221614  0.61136356  1
  P  P199  1  0.05317398  0.58412812  0.86093526  1
  P  P200  1  0.05421680  0.91735942  0.10868790  1
  P  P201  1  0.05341483  0.91699152  0.36025390  1
  P  P202  1  0.05517015  0.91808198  0.61157900  1
  P  P203  1  0.05535048  0.91598734  0.86012561  1
  P  P204  1  0.55575487  0.25110124  0.11039333  1
  P  P205  1  0.55588294  0.25043276  0.36072226  1
  P  P206  1  0.55534896  0.24960856  0.61048578  1
  P  P207  1  0.55396045  0.24915609  0.86078022  1
  P  P208  1  0.55418061  0.58227901  0.10992704  1
  P  P209  1  0.55392330  0.58274311  0.35981672  1
  P  P210  1  0.55494991  0.58325426  0.61094792  1
  P  P211  1  0.55283222  0.58383669  0.85988743  1
  P  P212  1  0.55271000  0.91681451  0.10986113  1
  P  P213  1  0.55148898  0.91717077  0.36013179  1
  P  P214  1  0.55280068  0.91734229  0.61083248  1
  P  P215  1  0.55223748  0.91733637  0.85965144  1
  P  P216  1  0.44405891  0.08418890  0.13931024  1
  P  P217  1  0.44423448  0.08356302  0.38944641  1
  P  P218  1  0.44400392  0.08342400  0.63935439  1
  P  P219  1  0.44507115  0.08385953  0.88868275  1
  P  P220  1  0.44844525  0.41654209  0.14036526  1
  P  P221  1  0.44833762  0.41645871  0.39013597  1
  P  P222  1  0.44681489  0.41618596  0.64034300  1
  P  P223  1  0.44626535  0.41634524  0.88986991  1
  P  P224  1  0.44661381  0.74937705  0.13999525  1
  P  P225  1  0.44672983  0.75002104  0.39016199  1
  P  P226  1  0.44593957  0.75056102  0.64040584  1
  P  P227  1  0.44773281  0.74982367  0.88965395  1
  P  P228  1  0.94709947  0.08456583  0.13962599  1
  P  P229  1  0.94810486  0.08369081  0.39102899  1
  P  P230  1  0.94603490  0.08452390  0.64000148  1
  P  P231  1  0.94533186  0.08395918  0.88853983  1
  P  P232  1  0.94554082  0.41569717  0.13907718  1
  P  P233  1  0.94743053  0.41680258  0.38830695  1
  P  P234  1  0.94845248  0.41499161  0.63988556  1
  P  P235  1  0.94554324  0.41632208  0.89051405  1
  P  P236  1  0.94457911  0.74976477  0.13880204  1
  P  P237  1  0.94665375  0.74945958  0.38946040  1
  P  P238  1  0.94548233  0.75020247  0.63956611  1
  P  P239  1  0.94740441  0.74948894  0.89016628  1
  P  P240  1  0.19677130  0.08384577  0.23614022  1
  P  P241  1  0.19569196  0.08404787  0.48596127  1
  P  P242  1  0.19716225  0.08359388  0.73452614  1
  P  P243  1  0.19775190  0.08345858  0.98459279  1
  P  P244  1  0.19362638  0.41667170  0.23511813  1
  P  P245  1  0.19383995  0.41537968  0.48543442  1
  P  P246  1  0.19512287  0.41640217  0.73522760  1
  P  P247  1  0.19405470  0.41642172  0.98668891  1
  P  P248  1  0.19454124  0.74924663  0.23582306  1
  P  P249  1  0.19565358  0.75011478  0.48400842  1
  P  P250  1  0.19483613  0.74995679  0.73668104  1
  P  P251  1  0.19532508  0.75002920  0.98423432  1
  P  P252  1  0.69666071  0.08400608  0.23508439  1
  P  P253  1  0.69847054  0.08429154  0.48546753  1
  P  P254  1  0.69561546  0.08361205  0.73672603  1
  P  P255  1  0.69518343  0.08444633  0.98412691  1
  P  P256  1  0.69689203  0.41625713  0.23539118  1
  P  P257  1  0.69699209  0.41546567  0.48428038  1
  P  P258  1  0.69716488  0.41674833  0.73560783  1
  P  P259  1  0.69744186  0.41572974  0.98626473  1
  P  P260  1  0.69916997  0.74972536  0.23504920  1
  P  P261  1  0.69876089  0.75026685  0.48493366  1
  P  P262  1  0.69460628  0.74996677  0.73657804  1
  P  P263  1  0.69767544  0.74957125  0.98442810  1
  P  P264  1  0.30332185  0.24954017  0.01376612  1
  P  P265  1  0.30178736  0.25019773  0.26481722  1
  P  P266  1  0.30160326  0.24987531  0.51460595  1
  P  P267  1  0.30220574  0.24961168  0.76531832  1
  P  P268  1  0.30250417  0.58342903  0.01388969  1
  P  P269  1  0.30068115  0.58244981  0.26480461  1
  P  P270  1  0.30244740  0.58291209  0.51515018  1
  P  P271  1  0.30174968  0.58272118  0.76598821  1
  P  P272  1  0.30326197  0.91708459  0.01294384  1
  P  P273  1  0.30377459  0.91737856  0.26555818  1
  P  P274  1  0.30524954  0.91734889  0.51446523  1
  P  P275  1  0.30403497  0.91763610  0.76402910  1
  P  P276  1  0.80439717  0.25040842  0.01440043  1
  P  P277  1  0.80422579  0.25083654  0.26358265  1
  P  P278  1  0.80370786  0.24925982  0.51557578  1
  P  P279  1  0.80453944  0.24920454  0.76434278  1
  P  P280  1  0.80645751  0.58331968  0.01404512  1
  P  P281  1  0.80697625  0.58269453  0.26393833  1
  P  P282  1  0.80583606  0.58375096  0.51350269  1
  P  P283  1  0.80275623  0.58309623  0.76565617  1
  P  P284  1  0.80301860  0.91606242  0.01454583  1
  P  P285  1  0.80375448  0.91638918  0.26516163  1
  P  P286  1  0.80381609  0.91718549  0.51563633  1
  P  P287  1  0.80163828  0.91780733  0.76517093  1
  O  O288  1  0.05881965  0.24934027  0.18704102  1
  O  O289  1  0.05895420  0.24894869  0.43749370  1
  O  O290  1  0.05859655  0.24911806  0.68795557  1
  O  O291  1  0.05882237  0.24912597  0.93730448  1
  O  O292  1  0.05773557  0.58327325  0.18718754  1
  O  O293  1  0.05557710  0.58355509  0.43590332  1
  O  O294  1  0.05844278  0.58303894  0.68813852  1
  O  O295  1  0.05739156  0.58354666  0.93769565  1
  O  O296  1  0.05741340  0.91756969  0.18547071  1
  O  O297  1  0.05615826  0.91701829  0.43703631  1
  O  O298  1  0.05962021  0.91764022  0.68831131  1
  O  O299  1  0.05935486  0.91735994  0.93690527  1
  O  O300  1  0.55991681  0.25029512  0.18718416  1
  O  O301  1  0.55999155  0.24924525  0.43748935  1
  O  O302  1  0.55986002  0.24945407  0.68725712  1
  O  O303  1  0.55882805  0.25003599  0.93743865  1
  O  O304  1  0.55789613  0.58270179  0.18663314  1
  O  O305  1  0.55699398  0.58346244  0.43661981  1
  O  O306  1  0.55953429  0.58302467  0.68768212  1
  O  O307  1  0.55718199  0.58313942  0.93654673  1
  O  O308  1  0.55597776  0.91694106  0.18663105  1
  O  O309  1  0.55560081  0.91744273  0.43687431  1
  O  O310  1  0.55816337  0.91769388  0.68747880  1
  O  O311  1  0.55566954  0.91750067  0.93636654  1
  O  O312  1  0.43998207  0.08426928  0.06247391  1
  O  O313  1  0.44038093  0.08482784  0.31261013  1
  O  O314  1  0.43980703  0.08466974  0.56260380  1
  O  O315  1  0.44053871  0.08423530  0.81196539  1
  O  O316  1  0.44360227  0.41627297  0.06370503  1
  O  O317  1  0.44372181  0.41606722  0.31348225  1
  O  O318  1  0.44337870  0.41594463  0.56360101  1
  O  O319  1  0.44302571  0.41602998  0.81314763  1
  O  O320  1  0.44308544  0.74934785  0.06321990  1
  O  O321  1  0.44340954  0.74922409  0.31338046  1
  O  O322  1  0.44269032  0.74981395  0.56367220  1
  O  O323  1  0.44398898  0.74974239  0.81298524  1
  O  O324  1  0.94357830  0.08395746  0.06287844  1
  O  O325  1  0.94388213  0.08382527  0.31433955  1
  O  O326  1  0.94149347  0.08361269  0.56329288  1
  O  O327  1  0.94101630  0.08320240  0.81183086  1
  O  O328  1  0.94136556  0.41546403  0.06234837  1
  O  O329  1  0.94254535  0.41575779  0.31169591  1
  O  O330  1  0.94506598  0.41555607  0.56317754  1
  O  O331  1  0.94321466  0.41612254  0.81369105  1
  O  O332  1  0.94082347  0.75062985  0.06204422  1
  O  O333  1  0.94236809  0.75073150  0.31269572  1
  O  O334  1  0.94130246  0.75070127  0.56278686  1
  O  O335  1  0.94376608  0.75026754  0.81341107  1
  O  O336  1  0.19461214  0.08356510  0.06128283  1
  O  O337  1  0.19219186  0.08316448  0.31278671  1
  O  O338  1  0.19117505  0.08348063  0.56258635  1
  O  O339  1  0.19390277  0.08349615  0.81128395  1
  O  O340  1  0.18987558  0.41659493  0.06339720  1
  O  O341  1  0.18989640  0.41715542  0.31201974  1
  O  O342  1  0.19017245  0.41624231  0.56222592  1
  O  O343  1  0.19246012  0.41644555  0.81204273  1
  O  O344  1  0.19275357  0.74984297  0.06103097  1
  O  O345  1  0.19022755  0.74975995  0.31256296  1
  O  O346  1  0.19281896  0.75019960  0.56085208  1
  O  O347  1  0.19095323  0.74971536  0.81339557  1
  O  O348  1  0.69247133  0.08349527  0.06089425  1
  O  O349  1  0.69367733  0.08351150  0.31184191  1
  O  O350  1  0.69434544  0.08360749  0.56213373  1
  O  O351  1  0.69056696  0.08339901  0.81332230  1
  O  O352  1  0.69294074  0.41655923  0.06289800  1
  O  O353  1  0.69225041  0.41702221  0.31206105  1
  O  O354  1  0.69405467  0.41653769  0.56108097  1
  O  O355  1  0.69471060  0.41663633  0.81242012  1
  O  O356  1  0.69439170  0.74937686  0.06115327  1
  O  O357  1  0.69480057  0.74967881  0.31171799  1
  O  O358  1  0.69437091  0.75008871  0.56164729  1
  O  O359  1  0.69037768  0.75008954  0.81335842  1
  O  O360  1  0.30581120  0.25111385  0.18814571  1
  O  O361  1  0.30556690  0.25072942  0.43798448  1
  O  O362  1  0.30581470  0.25041183  0.68866370  1
  O  O363  1  0.30841531  0.25057755  0.93714041  1
  O  O364  1  0.30489544  0.58240866  0.18809679  1
  O  O365  1  0.30579174  0.58276124  0.43836969  1
  O  O366  1  0.30574728  0.58301285  0.68929397  1
  O  O367  1  0.30848668  0.58325344  0.93729470  1
  O  O368  1  0.30599962  0.91636731  0.18867852  1
  O  O369  1  0.30896501  0.91628219  0.43767671  1
  O  O370  1  0.30837305  0.91648563  0.68734011  1
  O  O371  1  0.30846977  0.91618375  0.93626331  1
  O  O372  1  0.80895176  0.25023835  0.18695830  1
  O  O373  1  0.80743735  0.24993324  0.43884256  1
  O  O374  1  0.80932791  0.25002869  0.68771523  1
  O  O375  1  0.80888536  0.25002665  0.93767748  1
  O  O376  1  0.81047993  0.58238927  0.18707016  1
  O  O377  1  0.81033509  0.58283007  0.43674904  1
  O  O378  1  0.80654682  0.58293625  0.68889972  1
  O  O379  1  0.80980337  0.58343868  0.93721529  1
  O  O380  1  0.80666336  0.91710979  0.18841002  1
  O  O381  1  0.80689605  0.91718828  0.43885959  1
  O  O382  1  0.80596671  0.91733976  0.68854618  1
  O  O383  1  0.80616293  0.91690725  0.93781580  1
  O  O384  1  0.23291383  0.24952245  0.03733425  1
  O  O385  1  0.23167401  0.25023223  0.28910056  1
  O  O386  1  0.23153885  0.24938758  0.53908687  1
  O  O387  1  0.23197800  0.24986434  0.78964815  1
  O  O388  1  0.23181587  0.58355588  0.03645051  1
  O  O389  1  0.23052344  0.58231275  0.28893095  1
  O  O390  1  0.23265855  0.58320839  0.53988336  1
  O  O391  1  0.23146313  0.58256887  0.78995414  1
  O  O392  1  0.23292718  0.91694187  0.03669385  1
  O  O393  1  0.23422568  0.91733324  0.29115174  1
  O  O394  1  0.23521866  0.91691171  0.53871786  1
  O  O395  1  0.23356310  0.91759779  0.78751753  1
  O  O396  1  0.73401902  0.24979091  0.03795731  1
  O  O397  1  0.73391120  0.25039869  0.28729072  1
  O  O398  1  0.73364930  0.24970061  0.54006605  1
  O  O399  1  0.73406709  0.24987274  0.78788943  1
  O  O400  1  0.73654022  0.58292171  0.03877250  1
  O  O401  1  0.73703442  0.58305807  0.28844050  1
  O  O402  1  0.73580774  0.58342722  0.53762170  1
  O  O403  1  0.73272794  0.58317369  0.79019301  1
  O  O404  1  0.73338784  0.91608863  0.03980156  1
  O  O405  1  0.73422912  0.91671024  0.29080970  1
  O  O406  1  0.73423478  0.91727645  0.54117789  1
  O  O407  1  0.73145235  0.91728688  0.78925607  1
  O  O408  1  0.26697210  0.08345812  0.21203825  1
  O  O409  1  0.26606530  0.08390759  0.46232034  1
  O  O410  1  0.26722292  0.08360927  0.70996260  1
  O  O411  1  0.26760032  0.08359120  0.95942342  1
  O  O412  1  0.26352970  0.41651218  0.21045356  1
  O  O413  1  0.26373098  0.41613462  0.46075319  1
  O  O414  1  0.26470021  0.41621806  0.70967763  1
  O  O415  1  0.26403232  0.41640580  0.96236299  1
  O  O416  1  0.26444903  0.74985799  0.21131719  1
  O  O417  1  0.26528659  0.74968558  0.45896949  1
  O  O418  1  0.26476105  0.75010637  0.71205436  1
  O  O419  1  0.26492152  0.74988669  0.95869728  1
  O  O420  1  0.76625676  0.08384291  0.20962544  1
  O  O421  1  0.76855411  0.08416028  0.46095458  1
  O  O422  1  0.76603199  0.08375193  0.71307257  1
  O  O423  1  0.76491682  0.08392877  0.95909978  1
  O  O424  1  0.76731323  0.41637552  0.21182035  1
  O  O425  1  0.76675520  0.41558864  0.45922128  1
  O  O426  1  0.76662226  0.41650961  0.70960456  1
  O  O427  1  0.76778414  0.41619081  0.96253514  1
  O  O428  1  0.76935322  0.74939385  0.21107501  1
  O  O429  1  0.76893593  0.75036410  0.46086155  1
  O  O430  1  0.76467789  0.75012173  0.71237829  1
  O  O431  1  0.76772532  0.74989451  0.95975192  1
  O  O432  1  0.01681234  0.08436637  0.16453011  1
  O  O433  1  0.01825853  0.08342568  0.41508833  1
  O  O434  1  0.01643509  0.08428974  0.66361733  1
  O  O435  1  0.01543889  0.08389123  0.91258227  1
  O  O436  1  0.01591824  0.41630855  0.16283721  1
  O  O437  1  0.01787019  0.41635588  0.41180770  1
  O  O438  1  0.01823677  0.41516616  0.66509912  1
  O  O439  1  0.01515968  0.41661222  0.91588555  1
  O  O440  1  0.01468099  0.75015051  0.16285026  1
  O  O441  1  0.01691152  0.74988992  0.41358093  1
  O  O442  1  0.01553418  0.74984957  0.66340559  1
  O  O443  1  0.01738587  0.74977998  0.91483244  1
  O  O444  1  0.51413703  0.08400381  0.16328647  1
  O  O445  1  0.51423415  0.08380897  0.41392014  1
  O  O446  1  0.51411365  0.08358547  0.66328944  1
  O  O447  1  0.51546871  0.08372107  0.91249106  1
  O  O448  1  0.51865309  0.41642877  0.16409696  1
  O  O449  1  0.51852658  0.41658975  0.41412017  1
  O  O450  1  0.51651765  0.41612497  0.66530403  1
  O  O451  1  0.51611189  0.41661950  0.91475115  1
  O  O452  1  0.51633108  0.74967765  0.16498966  1
  O  O453  1  0.51631343  0.75024801  0.41566502  1
  O  O454  1  0.51569765  0.75033281  0.66520218  1
  O  O455  1  0.51782157  0.75018495  0.91436259  1
  O  O456  1  0.48563573  0.25054279  0.08638069  1
  O  O457  1  0.48577032  0.25022065  0.33653658  1
  O  O458  1  0.48519890  0.25005654  0.58673880  1
  O  O459  1  0.48346059  0.24956713  0.83725827  1
  O  O460  1  0.48442629  0.58267937  0.08498751  1
  O  O461  1  0.48432589  0.58250125  0.33439706  1
  O  O462  1  0.48483797  0.58304934  0.58715637  1
  O  O463  1  0.48257107  0.58314836  0.83575549  1
  O  O464  1  0.48304775  0.91690199  0.08471477  1
  O  O465  1  0.48142142  0.91705217  0.33581167  1
  O  O466  1  0.48233923  0.91728967  0.58780689  1
  O  O467  1  0.48201977  0.91710761  0.83519055  1
  O  O468  1  0.98368753  0.25039111  0.08678596  1
  O  O469  1  0.98579772  0.25003866  0.33598883  1
  O  O470  1  0.98428394  0.24941610  0.58682488  1
  O  O471  1  0.98329319  0.25015354  0.83749797  1
  O  O472  1  0.98294516  0.58269537  0.08719554  1
  O  O473  1  0.98263890  0.58352760  0.33411964  1
  O  O474  1  0.98473558  0.58266214  0.58668137  1
  O  O475  1  0.98284810  0.58298550  0.83697849  1
  O  O476  1  0.98447182  0.91721081  0.08382835  1
  O  O477  1  0.98394883  0.91722590  0.33448606  1
  O  O478  1  0.98514542  0.91746026  0.58758648  1
  O  O479  1  0.98532852  0.91661102  0.83584285  1
  O  O480  1  0.08726888  0.31580587  0.07751152  1
  O  O481  1  0.08992378  0.31404732  0.32792467  1
  O  O482  1  0.08809506  0.31439545  0.57817769  1
  O  O483  1  0.08718639  0.31474077  0.82755341  1
  O  O484  1  0.08681863  0.64719716  0.07680723  1
  O  O485  1  0.08637879  0.64882140  0.32658870  1
  O  O486  1  0.08829984  0.64704995  0.57804783  1
  O  O487  1  0.08625719  0.64926089  0.82780118  1
  O  O488  1  0.08842115  0.98226225  0.07600737  1
  O  O489  1  0.08774083  0.98219919  0.32816662  1
  O  O490  1  0.08823006  0.98348611  0.57871299  1
  O  O491  1  0.08944755  0.98074222  0.82674170  1
  O  O492  1  0.58932402  0.31629804  0.07758935  1
  O  O493  1  0.58959005  0.31571233  0.32818042  1
  O  O494  1  0.58948306  0.31431273  0.57748987  1
  O  O495  1  0.58767265  0.31397896  0.82723974  1
  O  O496  1  0.58840676  0.64726713  0.07739333  1
  O  O497  1  0.58804570  0.64779948  0.32728013  1
  O  O498  1  0.58823830  0.64839251  0.57772033  1
  O  O499  1  0.58640740  0.64902216  0.82725684  1
  O  O500  1  0.58662902  0.98190565  0.07732490  1
  O  O501  1  0.58502891  0.98230042  0.32731624  1
  O  O502  1  0.58574903  0.98231481  0.57704828  1
  O  O503  1  0.58575073  0.98250871  0.82660782  1
  O  O504  1  0.41012753  0.01927553  0.17213804  1
  O  O505  1  0.41046763  0.01833480  0.42175045  1
  O  O506  1  0.41038133  0.01826491  0.67206918  1
  O  O507  1  0.41164549  0.01867871  0.92171863  1
  O  O508  1  0.41486107  0.35156673  0.17357757  1
  O  O509  1  0.41484204  0.35135106  0.42332261  1
  O  O510  1  0.41278245  0.35114801  0.67292863  1
  O  O511  1  0.41258189  0.35107566  0.92254567  1
  O  O512  1  0.41265510  0.68430249  0.17257785  1
  O  O513  1  0.41271754  0.68483704  0.42260472  1
  O  O514  1  0.41184936  0.68562804  0.67319494  1
  O  O515  1  0.41406560  0.68465239  0.92233826  1
  O  O516  1  0.91318032  0.01948930  0.17228828  1
  O  O517  1  0.91404265  0.01889015  0.42398830  1
  O  O518  1  0.91239440  0.01982004  0.67381378  1
  O  O519  1  0.91196903  0.01895736  0.92187078  1
  O  O520  1  0.91261742  0.35058773  0.17270099  1
  O  O521  1  0.91427160  0.35199307  0.42227421  1
  O  O522  1  0.91447086  0.34992993  0.67222780  1
  O  O523  1  0.91148651  0.35113850  0.92287559  1
  O  O524  1  0.91141843  0.68439283  0.17154309  1
  O  O525  1  0.91342593  0.68404665  0.42194985  1
  O  O526  1  0.91182519  0.68512416  0.67232680  1
  O  O527  1  0.91340041  0.68443604  0.92248758  1
  O  O528  1  0.16326264  0.01904763  0.20257550  1
  O  O529  1  0.16251312  0.01911496  0.45213452  1
  O  O530  1  0.16315922  0.01873710  0.70170684  1
  O  O531  1  0.16382668  0.01847794  0.95192623  1
  O  O532  1  0.15970787  0.35136961  0.20278385  1
  O  O533  1  0.16034943  0.34998692  0.45311525  1
  O  O534  1  0.16080736  0.35124708  0.70307928  1
  O  O535  1  0.16058843  0.35122812  0.95378707  1
  O  O536  1  0.16113556  0.68398583  0.20295343  1
  O  O537  1  0.16093129  0.68535535  0.45173137  1
  O  O538  1  0.16131927  0.68470520  0.70387635  1
  O  O539  1  0.16063994  0.68505965  0.95208215  1
  O  O540  1  0.66233195  0.01903607  0.20270552  1
  O  O541  1  0.66453099  0.01937632  0.45242125  1
  O  O542  1  0.66245090  0.01861394  0.70307554  1
  O  O543  1  0.66049036  0.01975971  0.95143706  1
  O  O544  1  0.66336286  0.35119762  0.20240479  1
  O  O545  1  0.66288057  0.35014976  0.45253755  1
  O  O546  1  0.66280659  0.35156066  0.70370993  1
  O  O547  1  0.66422102  0.35060927  0.95307168  1
  O  O548  1  0.66567519  0.68468862  0.20196531  1
  O  O549  1  0.66532867  0.68526456  0.45181058  1
  O  O550  1  0.66158053  0.68456550  0.70370226  1
  O  O551  1  0.66383541  0.68453801  0.95172635  1
  O  O552  1  0.33630671  0.31444735  0.04786999  1
  O  O553  1  0.33531310  0.31517326  0.29811585  1
  O  O554  1  0.33492930  0.31490460  0.54792922  1
  O  O555  1  0.33620193  0.31431100  0.79862471  1
  O  O556  1  0.33540349  0.64851709  0.04740328  1
  O  O557  1  0.33435867  0.64753937  0.29755820  1
  O  O558  1  0.33644416  0.64798820  0.54762972  1
  O  O559  1  0.33549781  0.64766295  0.79913071  1
  O  O560  1  0.33644902  0.98237061  0.04577377  1
  O  O561  1  0.33815848  0.98253929  0.29724409  1
  O  O562  1  0.33862978  0.98279945  0.54682773  1
  O  O563  1  0.33738021  0.98287358  0.79674976  1
  O  O564  1  0.83762757  0.31548167  0.04777125  1
  O  O565  1  0.83727233  0.31603026  0.29696601  1
  O  O566  1  0.83787487  0.31413440  0.54855561  1
  O  O567  1  0.83821819  0.31394659  0.79800472  1
  O  O568  1  0.84006734  0.64854732  0.04663108  1
  O  O569  1  0.84101506  0.64767718  0.29657359  1
  O  O570  1  0.83918434  0.64892528  0.54631757  1
  O  O571  1  0.83693518  0.64798580  0.79834193  1
  O  O572  1  0.83693037  0.98118831  0.04725524  1
  O  O573  1  0.83813610  0.98132552  0.29764592  1
  O  O574  1  0.83801883  0.98244143  0.54773212  1
  O  O575  1  0.83531616  0.98282120  0.79787752  1
  O  O576  1  0.41064611  0.14924008  0.17258815  1
  O  O577  1  0.41037791  0.14841569  0.42288288  1
  O  O578  1  0.41036135  0.14820956  0.67306495  1
  O  O579  1  0.41178807  0.14886125  0.92229919  1
  O  O580  1  0.41467919  0.48154126  0.17319238  1
  O  O581  1  0.41440653  0.48143689  0.42281054  1
  O  O582  1  0.41269452  0.48118289  0.67280618  1
  O  O583  1  0.41216957  0.48151632  0.92218156  1
  O  O584  1  0.41226921  0.81440710  0.17214504  1
  O  O585  1  0.41236023  0.81519701  0.42202154  1
  O  O586  1  0.41207018  0.81581371  0.67267462  1
  O  O587  1  0.41380223  0.81502269  0.92205508  1
  O  O588  1  0.91319438  0.14969992  0.17208336  1
  O  O589  1  0.91450358  0.14879016  0.42398958  1
  O  O590  1  0.91258054  0.14972828  0.67275617  1
  O  O591  1  0.91189002  0.14914471  0.92133917  1
  O  O592  1  0.91189294  0.48066253  0.17204062  1
  O  O593  1  0.91458991  0.48207053  0.42143558  1
  O  O594  1  0.91445605  0.47995596  0.67270683  1
  O  O595  1  0.91112246  0.48130591  0.92254911  1
  O  O596  1  0.91093016  0.81456785  0.17232272  1
  O  O597  1  0.91294555  0.81417039  0.42321657  1
  O  O598  1  0.91227026  0.81523695  0.67302243  1
  O  O599  1  0.91330102  0.81438534  0.92302514  1
  O  O600  1  0.08762503  0.18589351  0.07635736  1
  O  O601  1  0.08899869  0.18384447  0.32772179  1
  O  O602  1  0.08802449  0.18434588  0.57796516  1
  O  O603  1  0.08697609  0.18495087  0.82668100  1
  O  O604  1  0.08644626  0.51725101  0.07732017  1
  O  O605  1  0.08661190  0.51873821  0.32648137  1
  O  O606  1  0.08780051  0.51676336  0.57887868  1
  O  O607  1  0.08717778  0.51935641  0.82777344  1
  O  O608  1  0.08845446  0.85233589  0.07639454  1
  O  O609  1  0.08735866  0.85182441  0.32792167  1
  O  O610  1  0.08892056  0.85327523  0.57830532  1
  O  O611  1  0.08871430  0.85059528  0.82782401  1
  O  O612  1  0.58945472  0.18627798  0.07695640  1
  O  O613  1  0.58955441  0.18564253  0.32710143  1
  O  O614  1  0.58857528  0.18454035  0.57702581  1
  O  O615  1  0.58704728  0.18400133  0.82744523  1
  O  O616  1  0.58807275  0.51705421  0.07741345  1
  O  O617  1  0.58845550  0.51763415  0.32797105  1
  O  O618  1  0.58865938  0.51833775  0.57781110  1
  O  O619  1  0.58699725  0.51897818  0.82684995  1
  O  O620  1  0.58685193  0.85171565  0.07759054  1
  O  O621  1  0.58545623  0.85212412  0.32753513  1
  O  O622  1  0.58598186  0.85229678  0.57746671  1
  O  O623  1  0.58641825  0.85237982  0.82722015  1
  O  O624  1  0.33662183  0.18432667  0.04649065  1
  O  O625  1  0.33556333  0.18512755  0.29730117  1
  O  O626  1  0.33566484  0.18493385  0.54712635  1
  O  O627  1  0.33604018  0.18440344  0.79773341  1
  O  O628  1  0.33527040  0.51836726  0.04783231  1
  O  O629  1  0.33445528  0.51749832  0.29772492  1
  O  O630  1  0.33619379  0.51776327  0.54771831  1
  O  O631  1  0.33558278  0.51775394  0.79876031  1
  O  O632  1  0.33626659  0.85205759  0.04668953  1
  O  O633  1  0.33817055  0.85244426  0.29804313  1
  O  O634  1  0.33910627  0.85264112  0.54797216  1
  O  O635  1  0.33730944  0.85291074  0.79811861  1
  O  O636  1  0.83809326  0.18558085  0.04779501  1
  O  O637  1  0.83771532  0.18604216  0.29722993  1
  O  O638  1  0.83760756  0.18427468  0.54826532  1
  O  O639  1  0.83754597  0.18402291  0.79765314  1
  O  O640  1  0.84044894  0.51828485  0.04684556  1
  O  O641  1  0.84046354  0.51746080  0.29690366  1
  O  O642  1  0.83918653  0.51851928  0.54681283  1
  O  O643  1  0.83695015  0.51817394  0.79819447  1
  O  O644  1  0.83735693  0.85094901  0.04629619  1
  O  O645  1  0.83795247  0.85116981  0.29717885  1
  O  O646  1  0.83800797  0.85203945  0.54784332  1
  O  O647  1  0.83555067  0.85280663  0.79802388  1
  O  O648  1  0.16365532  0.14913291  0.20294771  1
  O  O649  1  0.16221987  0.14894734  0.45271987  1
  O  O650  1  0.16312016  0.14871051  0.70215125  1
  O  O651  1  0.16360817  0.14845286  0.95205247  1
  O  O652  1  0.15954471  0.48151590  0.20219168  1
  O  O653  1  0.15949505  0.48000483  0.45208539  1
  O  O654  1  0.16080815  0.48143119  0.70302380  1
  O  O655  1  0.16045633  0.48147004  0.95358496  1
  O  O656  1  0.16077958  0.81422762  0.20275607  1
  O  O657  1  0.16159132  0.81519578  0.45164149  1
  O  O658  1  0.16139837  0.81520159  0.70380540  1
  O  O659  1  0.16110829  0.81512572  0.95202669  1
  O  O660  1  0.66263520  0.14922855  0.20290869  1
  O  O661  1  0.66468108  0.14940598  0.45296832  1
  O  O662  1  0.66258244  0.14882750  0.70345215  1
  O  O663  1  0.66133158  0.14976412  0.95199639  1
  O  O664  1  0.66370708  0.48118739  0.20155407  1
  O  O665  1  0.66278710  0.48028202  0.45130190  1
  O  O666  1  0.66309033  0.48196660  0.70359288  1
  O  O667  1  0.66398989  0.48055600  0.95266425  1
  O  O668  1  0.66550414  0.81483586  0.20230610  1
  O  O669  1  0.66501728  0.81543091  0.45234062  1
  O  O670  1  0.66110218  0.81520318  0.70365813  1
  O  O671  1  0.66314000  0.81434512  0.95191289  1
