# generated using pymatgen
data_Na2MnFe(PO4)2
_symmetry_space_group_name_H-M   'P 1'
_cell_length_a   21.09479514
_cell_length_b   18.94821229
_cell_length_c   20.05305509
_cell_angle_alpha   89.99980134
_cell_angle_beta   89.99744752
_cell_angle_gamma   90.00057266
_symmetry_Int_Tables_number   1
_chemical_formula_structural   Na2MnFe(PO4)2
_chemical_formula_sum   'Na96 Mn48 Fe48 P96 O384'
_cell_volume   8015.37969831
_cell_formula_units_Z   48
loop_
 _symmetry_equiv_pos_site_id
 _symmetry_equiv_pos_as_xyz
  1  'x, y, z'
loop_
 _atom_site_type_symbol
 _atom_site_label
 _atom_site_symmetry_multiplicity
 _atom_site_fract_x
 _atom_site_fract_y
 _atom_site_fract_z
 _atom_site_occupancy
  Na  Na0  1  0.00287679  0.00061181  -0.00020270  1
  Na  Na1  1  0.00221415  -0.00032771  0.24961361  1
  Na  Na2  1  0.00108023  -0.00032350  0.50059211  1
  Na  Na3  1  -0.00114351  -0.00120511  0.75082218  1
  Na  Na4  1  -0.00144390  0.33273122  0.00021848  1
  Na  Na5  1  -0.00186800  0.33274401  0.24922227  1
  Na  Na6  1  -0.00333781  0.33208432  0.50072059  1
  Na  Na7  1  0.00001515  0.33403402  0.74925234  1
  Na  Na8  1  -0.00134820  0.66618569  0.00070832  1
  Na  Na9  1  -0.00095193  0.66634724  0.24894176  1
  Na  Na10  1  -0.00057666  0.66701592  0.49851870  1
  Na  Na11  1  0.00029479  0.66712056  0.75185268  1
  Na  Na12  1  0.50014370  -0.00068543  -0.00047051  1
  Na  Na13  1  0.49725964  -0.00133909  0.24969781  1
  Na  Na14  1  0.49839685  -0.00048368  0.49973252  1
  Na  Na15  1  0.50106920  -0.00041918  0.75041639  1
  Na  Na16  1  0.49931316  0.33229284  0.00091480  1
  Na  Na17  1  0.49888297  0.33265123  0.24987323  1
  Na  Na18  1  0.49834464  0.33222090  0.50058282  1
  Na  Na19  1  0.50233719  0.33378909  0.74905626  1
  Na  Na20  1  0.49961384  0.66704212  0.00107808  1
  Na  Na21  1  0.49955813  0.66721600  0.24974089  1
  Na  Na22  1  0.49988276  0.66717193  0.49900051  1
  Na  Na23  1  0.50002551  0.66717299  0.75010684  1
  Na  Na24  1  0.24940305  -0.00020313  0.12556365  1
  Na  Na25  1  0.24890756  -0.00036286  0.37431408  1
  Na  Na26  1  0.24819118  -0.00072869  0.62470331  1
  Na  Na27  1  0.24830229  -0.00091581  0.87542276  1
  Na  Na28  1  0.25130339  0.33340282  0.12473092  1
  Na  Na29  1  0.25274666  0.33374642  0.37446935  1
  Na  Na30  1  0.25095342  0.33297025  0.62568210  1
  Na  Na31  1  0.24948032  0.33287905  0.87483890  1
  Na  Na32  1  0.25041130  0.66722106  0.12513116  1
  Na  Na33  1  0.24961393  0.66709764  0.37553212  1
  Na  Na34  1  0.24856284  0.66639726  0.62485666  1
  Na  Na35  1  0.25009700  0.66729955  0.87556097  1
  Na  Na36  1  0.74897986  -0.00111081  0.12489183  1
  Na  Na37  1  0.75184318  -0.00026268  0.37516301  1
  Na  Na38  1  0.75228243  -0.00035128  0.62473827  1
  Na  Na39  1  0.75012345  -0.00060171  0.87506249  1
  Na  Na40  1  0.75158943  0.33320389  0.12492212  1
  Na  Na41  1  0.75210288  0.33359035  0.37540442  1
  Na  Na42  1  0.74982831  0.33260529  0.62524969  1
  Na  Na43  1  0.75013662  0.33293882  0.87438970  1
  Na  Na44  1  0.75088095  0.66744666  0.12468613  1
  Na  Na45  1  0.75057130  0.66647594  0.37467465  1
  Na  Na46  1  0.75095709  0.66735238  0.62516213  1
  Na  Na47  1  0.74969018  0.66693211  0.87512190  1
  Na  Na48  1  -0.00159782  0.16737051  -0.00141284  1
  Na  Na49  1  0.00088862  0.16613524  0.25003269  1
  Na  Na50  1  -0.00079076  0.16717980  0.50069886  1
  Na  Na51  1  -0.00178769  0.16755869  0.75013491  1
  Na  Na52  1  0.00086370  0.49997699  0.00058900  1
  Na  Na53  1  -0.00026347  0.49998254  0.24867035  1
  Na  Na54  1  -0.00314732  0.50130032  0.49980297  1
  Na  Na55  1  -0.00111008  0.50039174  0.75050408  1
  Na  Na56  1  0.00051157  0.83367628  0.00124081  1
  Na  Na57  1  0.00074545  0.83313435  0.24953875  1
  Na  Na58  1  0.00026353  0.83376686  0.49899791  1
  Na  Na59  1  0.00031967  0.83401372  0.75097426  1
  Na  Na60  1  0.49883545  0.16714315  0.00074954  1
  Na  Na61  1  0.49806554  0.16695824  0.25000955  1
  Na  Na62  1  0.49843409  0.16720452  0.49976020  1
  Na  Na63  1  0.49921573  0.16749854  0.74956568  1
  Na  Na64  1  0.50024624  0.50070736  0.00085181  1
  Na  Na65  1  0.50119273  0.49973156  0.25005784  1
  Na  Na66  1  0.49985401  0.49980945  0.49960961  1
  Na  Na67  1  0.50223382  0.49883439  0.74957925  1
  Na  Na68  1  0.50046776  0.83287236  -0.00005995  1
  Na  Na69  1  0.49770604  0.83343590  0.24952849  1
  Na  Na70  1  0.49799328  0.83433194  0.49981867  1
  Na  Na71  1  0.50178522  0.83332761  0.75052053  1
  Na  Na72  1  0.25170388  0.16613638  0.12513199  1
  Na  Na73  1  0.25066643  0.16693565  0.37492680  1
  Na  Na74  1  0.25091034  0.16695482  0.62457123  1
  Na  Na75  1  0.25079693  0.16692073  0.87612220  1
  Na  Na76  1  0.24911422  0.50072488  0.12497485  1
  Na  Na77  1  0.24941354  0.50055359  0.37420195  1
  Na  Na78  1  0.25051358  0.49856437  0.62612944  1
  Na  Na79  1  0.24739100  0.50087253  0.87474451  1
  Na  Na80  1  0.24934252  0.83373769  0.12528395  1
  Na  Na81  1  0.24953664  0.83371590  0.37527953  1
  Na  Na82  1  0.24811434  0.83417582  0.62440151  1
  Na  Na83  1  0.24906866  0.83342378  0.87510128  1
  Na  Na84  1  0.75057067  0.16709339  0.12443209  1
  Na  Na85  1  0.75018047  0.16745754  0.37478921  1
  Na  Na86  1  0.75249362  0.16605990  0.62428978  1
  Na  Na87  1  0.75124551  0.16672263  0.87559923  1
  Na  Na88  1  0.75159812  0.49985796  0.12539872  1
  Na  Na89  1  0.75116416  0.50036857  0.37518225  1
  Na  Na90  1  0.75082639  0.49937981  0.62535422  1
  Na  Na91  1  0.74964793  0.49993035  0.87383180  1
  Na  Na92  1  0.74942554  0.83331759  0.12460727  1
  Na  Na93  1  0.75305675  0.83244188  0.37522437  1
  Na  Na94  1  0.75076941  0.83411310  0.62535837  1
  Na  Na95  1  0.74923112  0.83374785  0.87503907  1
  Mn  Mn96  1  0.85870632  0.08257073  0.25211565  1
  Mn  Mn97  1  0.35745122  0.08303877  0.75223560  1
  Mn  Mn98  1  0.35677395  0.74957774  0.50264275  1
  Mn  Mn99  1  0.39215160  0.58340715  0.62746568  1
  Mn  Mn100  1  0.60750162  0.75060968  0.37238615  1
  Mn  Mn101  1  0.10762225  0.74971753  0.87369504  1
  Mn  Mn102  1  0.64255431  0.24993012  0.99789717  1
  Mn  Mn103  1  0.64252969  0.91667490  0.49766705  1
  Mn  Mn104  1  0.60798686  0.41692258  0.12265763  1
  Mn  Mn105  1  0.35770283  0.08256188  0.00222434  1
  Mn  Mn106  1  0.10703047  0.41739596  0.62210303  1
  Mn  Mn107  1  0.60770140  0.75005449  0.62235800  1
  Mn  Mn108  1  0.35807921  0.41665597  0.75295584  1
  Mn  Mn109  1  0.85803525  0.08295713  0.00292693  1
  Mn  Mn110  1  0.39253227  0.58280525  0.87742005  1
  Mn  Mn111  1  0.39188078  0.58291168  0.37703176  1
  Mn  Mn112  1  0.60694241  0.08234759  0.12363544  1
  Mn  Mn113  1  0.35789526  0.41769265  0.00137989  1
  Mn  Mn114  1  0.10715273  0.41614552  0.37347029  1
  Mn  Mn115  1  0.14126057  0.58259060  0.49783418  1
  Mn  Mn116  1  0.60797501  0.41628346  0.37318377  1
  Mn  Mn117  1  0.89303357  0.91689756  0.12711330  1
  Mn  Mn118  1  0.10725021  0.74957636  0.37171976  1
  Mn  Mn119  1  0.89217529  0.58342397  0.87816900  1
  Mn  Mn120  1  0.64307422  0.58341506  0.49776822  1
  Mn  Mn121  1  0.60811774  0.08341321  0.62270858  1
  Mn  Mn122  1  0.14133979  0.58326250  0.74732985  1
  Mn  Mn123  1  0.64249441  0.58336078  0.99834776  1
  Mn  Mn124  1  0.60726402  0.08311527  0.37244669  1
  Mn  Mn125  1  0.85722553  0.41602650  0.75246018  1
  Mn  Mn126  1  0.14218530  0.25037331  0.99772115  1
  Mn  Mn127  1  0.35704935  0.08368232  0.50236586  1
  Mn  Mn128  1  0.10731204  0.08445360  0.87214627  1
  Mn  Mn129  1  0.60830747  0.08355654  0.87222075  1
  Mn  Mn130  1  0.35708105  0.75018018  0.75201641  1
  Mn  Mn131  1  0.10694834  0.08324301  0.62326795  1
  Mn  Mn132  1  0.35783961  0.41722480  0.25234032  1
  Mn  Mn133  1  0.64288052  0.24964689  0.49769549  1
  Mn  Mn134  1  0.85811791  0.75083922  0.75256104  1
  Mn  Mn135  1  0.85900124  0.74966100  0.50259487  1
  Mn  Mn136  1  0.14222922  0.25023802  0.49795046  1
  Mn  Mn137  1  0.85789344  0.41719632  0.25244789  1
  Mn  Mn138  1  0.39254715  0.91670570  0.87698809  1
  Mn  Mn139  1  0.64209796  0.58348797  0.74730436  1
  Mn  Mn140  1  0.64195845  0.91647046  0.24828620  1
  Mn  Mn141  1  0.10741881  0.41615847  0.12245225  1
  Mn  Mn142  1  0.85916405  0.08342784  0.50197902  1
  Mn  Mn143  1  0.14237870  0.25035604  0.24792664  1
  Fe  Fe144  1  0.89357269  0.91638557  0.62711934  1
  Fe  Fe145  1  0.35662959  0.08246020  0.25179924  1
  Fe  Fe146  1  0.39128893  0.91695983  0.37690863  1
  Fe  Fe147  1  0.89252634  0.25016254  0.87643205  1
  Fe  Fe148  1  0.35646512  0.75024922  0.25115559  1
  Fe  Fe149  1  0.39253845  0.24987596  0.12713731  1
  Fe  Fe150  1  0.14249661  0.24962935  0.74845874  1
  Fe  Fe151  1  0.14198199  0.58387990  0.24793731  1
  Fe  Fe152  1  0.89250162  0.24953465  0.37625654  1
  Fe  Fe153  1  0.14324295  0.91597769  0.99866316  1
  Fe  Fe154  1  0.64372458  0.91747177  0.74774920  1
  Fe  Fe155  1  0.39272576  0.24973593  0.37677088  1
  Fe  Fe156  1  0.89265484  0.58411563  0.62698806  1
  Fe  Fe157  1  0.85673179  0.74989991  0.00224953  1
  Fe  Fe158  1  0.14213950  0.91690189  0.49803616  1
  Fe  Fe159  1  0.10672907  0.41612045  0.87383158  1
  Fe  Fe160  1  0.60818704  0.41653930  0.87391940  1
  Fe  Fe161  1  0.89302211  0.58352174  0.12664543  1
  Fe  Fe162  1  0.85740971  0.75027769  0.25061189  1
  Fe  Fe163  1  0.89408007  0.91705420  0.37628186  1
  Fe  Fe164  1  0.85742458  0.08294464  0.75164267  1
  Fe  Fe165  1  0.39219899  0.58370247  0.12732360  1
  Fe  Fe166  1  0.64228054  0.91633602  0.99858542  1
  Fe  Fe167  1  0.60744212  0.74944474  0.87384395  1
  Fe  Fe168  1  0.85758727  0.41683282  0.50207490  1
  Fe  Fe169  1  0.64316639  0.58359018  0.24821909  1
  Fe  Fe170  1  0.35757623  0.74997919  0.00198584  1
  Fe  Fe171  1  0.10672493  0.74986188  0.62387160  1
  Fe  Fe172  1  0.39304036  0.24985211  0.62752879  1
  Fe  Fe173  1  0.35776486  0.41703314  0.50188417  1
  Fe  Fe174  1  0.14284637  0.58387687  0.99898613  1
  Fe  Fe175  1  0.39198266  0.91632932  0.12642504  1
  Fe  Fe176  1  0.39328408  0.25044296  0.87601426  1
  Fe  Fe177  1  0.39191334  0.91702759  0.62723659  1
  Fe  Fe178  1  0.89283055  0.24959876  0.12685666  1
  Fe  Fe179  1  0.10750551  0.74989967  0.12307225  1
  Fe  Fe180  1  0.64303498  0.24882888  0.74831307  1
  Fe  Fe181  1  0.14313427  0.91634759  0.24825352  1
  Fe  Fe182  1  0.89265065  0.91674401  0.87755935  1
  Fe  Fe183  1  0.89247949  0.24992568  0.62792217  1
  Fe  Fe184  1  0.60676073  0.75022652  0.12372377  1
  Fe  Fe185  1  0.60713563  0.41655003  0.62246162  1
  Fe  Fe186  1  0.10745678  0.08397296  0.37337549  1
  Fe  Fe187  1  0.64276324  0.25009092  0.24845690  1
  Fe  Fe188  1  0.89237115  0.58325802  0.37619688  1
  Fe  Fe189  1  0.10816950  0.08357921  0.12344511  1
  Fe  Fe190  1  0.14179234  0.91703792  0.74808570  1
  Fe  Fe191  1  0.85787303  0.41741533  0.00106445  1
  P  P192  1  0.05227998  0.24907766  0.10995698  1
  P  P193  1  0.05191952  0.24978614  0.36028101  1
  P  P194  1  0.05278826  0.25001501  0.61142801  1
  P  P195  1  0.05232480  0.25108516  0.85943881  1
  P  P196  1  0.05427031  0.58436465  0.11069719  1
  P  P197  1  0.05206080  0.58270801  0.35894023  1
  P  P198  1  0.05142640  0.58438410  0.60997659  1
  P  P199  1  0.05455088  0.58261171  0.86197393  1
  P  P200  1  0.05620354  0.91642794  0.11101412  1
  P  P201  1  0.05460185  0.91749426  0.36034364  1
  P  P202  1  0.05403643  0.91584902  0.61088441  1
  P  P203  1  0.05407670  0.91648548  0.86126836  1
  P  P204  1  0.55341993  0.24951448  0.11161225  1
  P  P205  1  0.55266797  0.24982607  0.35963262  1
  P  P206  1  0.55397524  0.25012277  0.61095130  1
  P  P207  1  0.55330999  0.25047582  0.85962281  1
  P  P208  1  0.55345882  0.58463936  0.11181493  1
  P  P209  1  0.55414655  0.58347028  0.35914021  1
  P  P210  1  0.55338704  0.58266382  0.60937220  1
  P  P211  1  0.55382780  0.58362760  0.86060582  1
  P  P212  1  0.55234559  0.91546979  0.10990438  1
  P  P213  1  0.55114005  0.91671361  0.35981685  1
  P  P214  1  0.55310643  0.91710769  0.61077771  1
  P  P215  1  0.55585068  0.91557952  0.86069609  1
  P  P216  1  0.44512969  0.08249941  0.14029183  1
  P  P217  1  0.44455868  0.08303687  0.38861550  1
  P  P218  1  0.44624152  0.08314722  0.63996141  1
  P  P219  1  0.44685435  0.08406284  0.88981370  1
  P  P220  1  0.44628161  0.41720957  0.13978181  1
  P  P221  1  0.44608589  0.41584826  0.39056704  1
  P  P222  1  0.44650183  0.41590664  0.63900693  1
  P  P223  1  0.44881230  0.41580114  0.88993977  1
  P  P224  1  0.44501382  0.75023772  0.13919470  1
  P  P225  1  0.44435547  0.75072251  0.38857680  1
  P  P226  1  0.44630293  0.75111950  0.64014224  1
  P  P227  1  0.44709224  0.75009649  0.89066524  1
  P  P228  1  0.94852931  0.08347997  0.13971863  1
  P  P229  1  0.94849020  0.08283212  0.38945875  1
  P  P230  1  0.94590141  0.08289921  0.64126848  1
  P  P231  1  0.94491069  0.08301056  0.88852177  1
  P  P232  1  0.94497981  0.41691951  0.13825281  1
  P  P233  1  0.94555922  0.41672320  0.39020984  1
  P  P234  1  0.94480790  0.41715813  0.63901525  1
  P  P235  1  0.94695222  0.41596441  0.89036375  1
  P  P236  1  0.94610944  0.74962718  0.13900960  1
  P  P237  1  0.94514469  0.75009589  0.38757197  1
  P  P238  1  0.94793779  0.75030739  0.64021831  1
  P  P239  1  0.94580748  0.75130619  0.89146953  1
  P  P240  1  0.19583509  0.08303607  0.23590734  1
  P  P241  1  0.19537067  0.08301168  0.48447908  1
  P  P242  1  0.19613579  0.08396113  0.73505748  1
  P  P243  1  0.19528088  0.08268325  0.98631614  1
  P  P244  1  0.19630427  0.41719073  0.23498736  1
  P  P245  1  0.19812415  0.41621249  0.48476763  1
  P  P246  1  0.19483403  0.41512998  0.73625722  1
  P  P247  1  0.19589500  0.41755884  0.98443146  1
  P  P248  1  0.19652666  0.75016649  0.23448655  1
  P  P249  1  0.19426494  0.75058855  0.48618755  1
  P  P250  1  0.19517874  0.75082233  0.73447529  1
  P  P251  1  0.19669342  0.74994040  0.98687711  1
  P  P252  1  0.69710436  0.08390145  0.23496667  1
  P  P253  1  0.69733100  0.08315909  0.48468114  1
  P  P254  1  0.69830640  0.08322722  0.73492561  1
  P  P255  1  0.69647733  0.08265331  0.98536291  1
  P  P256  1  0.69663422  0.41652686  0.23533463  1
  P  P257  1  0.69739614  0.41643424  0.48604398  1
  P  P258  1  0.69434801  0.41537796  0.73542159  1
  P  P259  1  0.69800448  0.41681306  0.98457141  1
  P  P260  1  0.69714308  0.74965508  0.23448016  1
  P  P261  1  0.69735049  0.75025201  0.48465863  1
  P  P262  1  0.69567543  0.75116779  0.73617916  1
  P  P263  1  0.69570341  0.75048109  0.98604635  1
  P  P264  1  0.30541463  0.25036054  0.01430640  1
  P  P265  1  0.30528179  0.24903699  0.26428605  1
  P  P266  1  0.30531302  0.25101934  0.51465920  1
  P  P267  1  0.30386576  0.24975833  0.76491140  1
  P  P268  1  0.30296621  0.58398676  0.01543139  1
  P  P269  1  0.30279686  0.58467776  0.26367839  1
  P  P270  1  0.30273038  0.58226364  0.51527185  1
  P  P271  1  0.30275983  0.58342347  0.76546287  1
  P  P272  1  0.30295982  0.91582956  0.01544306  1
  P  P273  1  0.30368689  0.91629522  0.26385247  1
  P  P274  1  0.30306373  0.91696744  0.51450548  1
  P  P275  1  0.30241482  0.91673233  0.76409023  1
  P  P276  1  0.80564434  0.25116138  0.01426190  1
  P  P277  1  0.80421007  0.24970053  0.26430879  1
  P  P278  1  0.80595951  0.25067283  0.51444692  1
  P  P279  1  0.80396127  0.24896313  0.76443931  1
  P  P280  1  0.80414723  0.58338450  0.01553661  1
  P  P281  1  0.80417150  0.58460390  0.26387681  1
  P  P282  1  0.80561852  0.58276899  0.51468615  1
  P  P283  1  0.80461791  0.58363959  0.76407426  1
  P  P284  1  0.80322913  0.91567888  0.01408782  1
  P  P285  1  0.80436216  0.91562616  0.26528877  1
  P  P286  1  0.80607824  0.91651664  0.51457178  1
  P  P287  1  0.80474376  0.91740257  0.76468156  1
  O  O288  1  0.05626640  0.24976975  0.18653613  1
  O  O289  1  0.05563486  0.25046262  0.43699078  1
  O  O290  1  0.05794740  0.25009639  0.68789577  1
  O  O291  1  0.05624990  0.25012626  0.93615467  1
  O  O292  1  0.05890490  0.58396105  0.18739679  1
  O  O293  1  0.05595009  0.58314682  0.43558965  1
  O  O294  1  0.05510321  0.58348328  0.68669763  1
  O  O295  1  0.05882445  0.58362063  0.93863794  1
  O  O296  1  0.06004793  0.91612344  0.18779138  1
  O  O297  1  0.05863059  0.91673475  0.43709781  1
  O  O298  1  0.05832027  0.91677471  0.68759012  1
  O  O299  1  0.05930005  0.91628416  0.93791905  1
  O  O300  1  0.55868728  0.24971601  0.18817558  1
  O  O301  1  0.55680373  0.24974204  0.43629375  1
  O  O302  1  0.55923287  0.24911455  0.68758697  1
  O  O303  1  0.55669911  0.24951078  0.93634433  1
  O  O304  1  0.55883355  0.58399579  0.18839065  1
  O  O305  1  0.55755040  0.58362804  0.43588317  1
  O  O306  1  0.55646413  0.58342383  0.68632126  1
  O  O307  1  0.55646039  0.58380368  0.93729545  1
  O  O308  1  0.55601517  0.91601385  0.18656547  1
  O  O309  1  0.55564317  0.91666040  0.43641853  1
  O  O310  1  0.55894915  0.91730557  0.68739133  1
  O  O311  1  0.55970735  0.91652429  0.93748169  1
  O  O312  1  0.44299655  0.08243310  0.06364807  1
  O  O313  1  0.44056170  0.08257931  0.31188976  1
  O  O314  1  0.44299496  0.08296902  0.56324534  1
  O  O315  1  0.44370020  0.08314450  0.81305414  1
  O  O316  1  0.44353274  0.41751694  0.06308293  1
  O  O317  1  0.44307611  0.41697766  0.31375983  1
  O  O318  1  0.44171815  0.41663145  0.56242723  1
  O  O319  1  0.44513710  0.41649120  0.81324373  1
  O  O320  1  0.44068110  0.75006712  0.06249015  1
  O  O321  1  0.44004220  0.75007473  0.31184828  1
  O  O322  1  0.44285552  0.75059640  0.56337723  1
  O  O323  1  0.44301932  0.75042528  0.81399507  1
  O  O324  1  0.94449083  0.08272625  0.06298178  1
  O  O325  1  0.94516993  0.08254714  0.31304988  1
  O  O326  1  0.94404693  0.08301666  0.56385288  1
  O  O327  1  0.94101895  0.08279066  0.81196904  1
  O  O328  1  0.94151855  0.41730588  0.06162993  1
  O  O329  1  0.94335518  0.41672247  0.31333932  1
  O  O330  1  0.94127986  0.41681480  0.56225920  1
  O  O331  1  0.94320008  0.41678973  0.81377187  1
  O  O332  1  0.94110015  0.75036404  0.06236450  1
  O  O333  1  0.94151257  0.75002360  0.31098748  1
  O  O334  1  0.94498819  0.75040350  0.56353641  1
  O  O335  1  0.94304943  0.75076208  0.81468590  1
  O  O336  1  0.19154126  0.08395691  0.06306666  1
  O  O337  1  0.19101360  0.08411914  0.31257778  1
  O  O338  1  0.19213144  0.08373436  0.56119594  1
  O  O339  1  0.19357955  0.08406575  0.81204728  1
  O  O340  1  0.19301234  0.41633544  0.06122083  1
  O  O341  1  0.19319513  0.41633930  0.31170073  1
  O  O342  1  0.19370610  0.41603501  0.56147153  1
  O  O343  1  0.19021356  0.41582601  0.81292922  1
  O  O344  1  0.19209380  0.74980765  0.06342964  1
  O  O345  1  0.19312707  0.74995442  0.31147818  1
  O  O346  1  0.19006076  0.74986344  0.56274449  1
  O  O347  1  0.19255217  0.75014225  0.81123296  1
  O  O348  1  0.69288176  0.08313844  0.06207000  1
  O  O349  1  0.69390357  0.08334945  0.31173117  1
  O  O350  1  0.69410786  0.08298992  0.56123395  1
  O  O351  1  0.69468895  0.08352594  0.81161294  1
  O  O352  1  0.69401867  0.41666186  0.06127884  1
  O  O353  1  0.69404659  0.41649892  0.31205364  1
  O  O354  1  0.69214872  0.41624317  0.56267897  1
  O  O355  1  0.69040888  0.41621757  0.81225212  1
  O  O356  1  0.69076194  0.75009916  0.06266970  1
  O  O357  1  0.69357275  0.75020253  0.31116305  1
  O  O358  1  0.69372787  0.75066946  0.56146059  1
  O  O359  1  0.69164110  0.75002134  0.81287840  1
  O  O360  1  0.30927689  0.24982893  0.18748212  1
  O  O361  1  0.30931418  0.25011723  0.43789082  1
  O  O362  1  0.30901468  0.24991577  0.68823069  1
  O  O363  1  0.30986513  0.25045127  0.93756476  1
  O  O364  1  0.30793380  0.58383125  0.18710420  1
  O  O365  1  0.30594342  0.58308760  0.43847002  1
  O  O366  1  0.30635546  0.58303993  0.68874118  1
  O  O367  1  0.30667328  0.58332544  0.93872685  1
  O  O368  1  0.30812283  0.91647070  0.18723597  1
  O  O369  1  0.30775738  0.91697369  0.43776376  1
  O  O370  1  0.30759270  0.91687165  0.68748452  1
  O  O371  1  0.30660226  0.91632273  0.93871698  1
  O  O372  1  0.80930892  0.24923755  0.18763237  1
  O  O373  1  0.81005692  0.24961834  0.43768824  1
  O  O374  1  0.80867394  0.24989377  0.68771424  1
  O  O375  1  0.80962996  0.25031809  0.93749390  1
  O  O376  1  0.80910596  0.58388564  0.18723581  1
  O  O377  1  0.80934556  0.58359704  0.43786711  1
  O  O378  1  0.80902094  0.58401592  0.68744381  1
  O  O379  1  0.80647473  0.58335755  0.93855878  1
  O  O380  1  0.80726722  0.91662440  0.18849947  1
  O  O381  1  0.81091549  0.91680942  0.43795072  1
  O  O382  1  0.80973848  0.91625763  0.68799196  1
  O  O383  1  0.80800951  0.91638135  0.93749810  1
  O  O384  1  0.23520024  0.25014309  0.03810574  1
  O  O385  1  0.23524882  0.25018128  0.28844173  1
  O  O386  1  0.23523904  0.24987187  0.53879548  1
  O  O387  1  0.23349351  0.24980729  0.78834715  1
  O  O388  1  0.23281731  0.58375462  0.03975501  1
  O  O389  1  0.23241550  0.58438057  0.28737300  1
  O  O390  1  0.23307830  0.58225287  0.54045430  1
  O  O391  1  0.23297893  0.58389651  0.79001769  1
  O  O392  1  0.23287459  0.91642736  0.03983008  1
  O  O393  1  0.23320300  0.91637985  0.28758196  1
  O  O394  1  0.23253775  0.91698444  0.53763498  1
  O  O395  1  0.23204186  0.91671786  0.78760052  1
  O  O396  1  0.73555722  0.25014242  0.03831528  1
  O  O397  1  0.73388443  0.25034761  0.28792160  1
  O  O398  1  0.73601272  0.24951596  0.53856070  1
  O  O399  1  0.73356695  0.24963566  0.78802256  1
  O  O400  1  0.73457910  0.58361187  0.04087872  1
  O  O401  1  0.73378669  0.58380332  0.28750917  1
  O  O402  1  0.73571191  0.58360655  0.53922555  1
  O  O403  1  0.73450992  0.58336795  0.78809381  1
  O  O404  1  0.73292048  0.91591720  0.03792238  1
  O  O405  1  0.73468213  0.91607058  0.29050638  1
  O  O406  1  0.73601450  0.91664283  0.53830562  1
  O  O407  1  0.73431630  0.91693603  0.78800041  1
  O  O408  1  0.26626951  0.08279656  0.21244424  1
  O  O409  1  0.26513350  0.08323025  0.45973160  1
  O  O410  1  0.26547047  0.08327436  0.70922280  1
  O  O411  1  0.26506494  0.08267193  0.96168570  1
  O  O412  1  0.26598973  0.41702397  0.20985157  1
  O  O413  1  0.26806999  0.41671488  0.46033799  1
  O  O414  1  0.26498204  0.41560295  0.71251996  1
  O  O415  1  0.26554633  0.41720123  0.95921607  1
  O  O416  1  0.26657780  0.75052305  0.21018296  1
  O  O417  1  0.26418085  0.75046064  0.46176359  1
  O  O418  1  0.26477645  0.75031562  0.70905230  1
  O  O419  1  0.26693743  0.75009283  0.96262770  1
  O  O420  1  0.76673316  0.08296907  0.20964154  1
  O  O421  1  0.76735703  0.08357742  0.45983647  1
  O  O422  1  0.76824228  0.08295337  0.71009752  1
  O  O423  1  0.76629997  0.08308131  0.96069236  1
  O  O424  1  0.76630566  0.41658424  0.20997406  1
  O  O425  1  0.76766730  0.41669607  0.46238262  1
  O  O426  1  0.76443160  0.41602698  0.71166956  1
  O  O427  1  0.76802224  0.41699087  0.96007313  1
  O  O428  1  0.76725975  0.75035307  0.21002507  1
  O  O429  1  0.76714086  0.74968277  0.46028324  1
  O  O430  1  0.76561835  0.75108945  0.71176258  1
  O  O431  1  0.76614912  0.74976610  0.96252132  1
  O  O432  1  0.01854977  0.08296229  0.16410226  1
  O  O433  1  0.01819183  0.08340031  0.41507042  1
  O  O434  1  0.01526581  0.08311850  0.66672017  1
  O  O435  1  0.01499288  0.08360329  0.91298185  1
  O  O436  1  0.01482497  0.41672635  0.16312982  1
  O  O437  1  0.01497869  0.41666196  0.41625854  1
  O  O438  1  0.01462813  0.41724711  0.66378461  1
  O  O439  1  0.01694749  0.41617349  0.91505318  1
  O  O440  1  0.01656603  0.75000654  0.16233721  1
  O  O441  1  0.01518038  0.75022483  0.41230633  1
  O  O442  1  0.01758781  0.75031486  0.66588915  1
  O  O443  1  0.01548218  0.75025964  0.91641768  1
  O  O444  1  0.51470576  0.08261909  0.16605866  1
  O  O445  1  0.51434261  0.08333003  0.41347292  1
  O  O446  1  0.51586812  0.08341631  0.66520046  1
  O  O447  1  0.51648069  0.08353486  0.91501236  1
  O  O448  1  0.51589101  0.41664911  0.16522755  1
  O  O449  1  0.51581010  0.41607876  0.41553275  1
  O  O450  1  0.51683838  0.41607604  0.66265080  1
  O  O451  1  0.51867160  0.41622480  0.91505958  1
  O  O452  1  0.51534396  0.75027061  0.16312181  1
  O  O453  1  0.51433908  0.75050348  0.41282776  1
  O  O454  1  0.51602393  0.75061998  0.66501705  1
  O  O455  1  0.51724409  0.74996324  0.91479750  1
  O  O456  1  0.48291057  0.24953552  0.08847731  1
  O  O457  1  0.48237799  0.24990289  0.33585320  1
  O  O458  1  0.48353556  0.24987037  0.58767451  1
  O  O459  1  0.48330299  0.25032218  0.83482231  1
  O  O460  1  0.48304211  0.58445751  0.08836244  1
  O  O461  1  0.48423776  0.58327398  0.33466437  1
  O  O462  1  0.48384060  0.58312063  0.58419840  1
  O  O463  1  0.48438039  0.58335414  0.83466473  1
  O  O464  1  0.48219873  0.91600529  0.08554509  1
  O  O465  1  0.48097814  0.91651190  0.33580355  1
  O  O466  1  0.48261288  0.91706605  0.58769880  1
  O  O467  1  0.48571693  0.91659626  0.83669882  1
  O  O468  1  0.98222380  0.24970974  0.08551964  1
  O  O469  1  0.98189214  0.24966118  0.33561608  1
  O  O470  1  0.98226815  0.24953859  0.58826815  1
  O  O471  1  0.98212171  0.25049058  0.83538681  1
  O  O472  1  0.98380035  0.58358487  0.08735672  1
  O  O473  1  0.98193960  0.58291324  0.33476558  1
  O  O474  1  0.98154279  0.58414275  0.58522375  1
  O  O475  1  0.98443513  0.58341349  0.83784439  1
  O  O476  1  0.98612410  0.91674738  0.08681392  1
  O  O477  1  0.98439320  0.91654280  0.33623339  1
  O  O478  1  0.98371649  0.91685031  0.58702517  1
  O  O479  1  0.98362231  0.91643206  0.83812600  1
  O  O480  1  0.08615174  0.31403808  0.07697755  1
  O  O481  1  0.08540621  0.31482680  0.32720448  1
  O  O482  1  0.08554019  0.31503542  0.57748176  1
  O  O483  1  0.08592456  0.31617876  0.82700087  1
  O  O484  1  0.08726516  0.64955944  0.07740005  1
  O  O485  1  0.08605128  0.64767332  0.32588437  1
  O  O486  1  0.08516860  0.64950277  0.57766685  1
  O  O487  1  0.08813667  0.64748145  0.82869018  1
  O  O488  1  0.09001233  0.98137516  0.07819747  1
  O  O489  1  0.08789471  0.98271468  0.32765770  1
  O  O490  1  0.08800332  0.98054771  0.57746007  1
  O  O491  1  0.08722435  0.98154276  0.82765884  1
  O  O492  1  0.58656462  0.31445470  0.07789162  1
  O  O493  1  0.58641863  0.31483699  0.32678407  1
  O  O494  1  0.58702652  0.31539063  0.57778729  1
  O  O495  1  0.58747270  0.31549124  0.82752092  1
  O  O496  1  0.58655632  0.64977843  0.07858103  1
  O  O497  1  0.58809299  0.64844247  0.32635305  1
  O  O498  1  0.58767872  0.64760119  0.57705106  1
  O  O499  1  0.58789461  0.64891322  0.82832736  1
  O  O500  1  0.58660861  0.98022398  0.07699598  1
  O  O501  1  0.58470094  0.98172602  0.32682870  1
  O  O502  1  0.58618220  0.98209119  0.57713670  1
  O  O503  1  0.59007907  0.98011764  0.82716686  1
  O  O504  1  0.41082990  0.01726513  0.17240853  1
  O  O505  1  0.41085126  0.01801736  0.42163755  1
  O  O506  1  0.41222334  0.01807757  0.67256610  1
  O  O507  1  0.41249386  0.01914094  0.92231716  1
  O  O508  1  0.41184855  0.35219419  0.17179212  1
  O  O509  1  0.41202444  0.35065381  0.42249016  1
  O  O510  1  0.41336508  0.35067340  0.67221576  1
  O  O511  1  0.41481700  0.35073066  0.92209964  1
  O  O512  1  0.41135045  0.68540215  0.17260631  1
  O  O513  1  0.41082956  0.68566534  0.42177966  1
  O  O514  1  0.41225264  0.68603315  0.67260627  1
  O  O515  1  0.41316116  0.68516012  0.92349781  1
  O  O516  1  0.91470448  0.01853164  0.17259592  1
  O  O517  1  0.91483554  0.01761427  0.42228959  1
  O  O518  1  0.91168389  0.01772584  0.67285042  1
  O  O519  1  0.91196298  0.01777786  0.92204612  1
  O  O520  1  0.91124578  0.35177264  0.17090703  1
  O  O521  1  0.91101709  0.35172187  0.42215415  1
  O  O522  1  0.91120149  0.35199642  0.67196527  1
  O  O523  1  0.91291469  0.35090513  0.92259162  1
  O  O524  1  0.91276668  0.68450169  0.17204834  1
  O  O525  1  0.91187280  0.68486812  0.42059776  1
  O  O526  1  0.91363746  0.68541767  0.67266135  1
  O  O527  1  0.91093542  0.68656515  0.92382358  1
  O  O528  1  0.16245754  0.01791332  0.20303719  1
  O  O529  1  0.16134145  0.01787810  0.45222386  1
  O  O530  1  0.16136650  0.01898741  0.70339030  1
  O  O531  1  0.16154725  0.01737647  0.95412157  1
  O  O532  1  0.16231499  0.35218590  0.20222325  1
  O  O533  1  0.16465780  0.35103632  0.45186335  1
  O  O534  1  0.16170919  0.34992556  0.70315057  1
  O  O535  1  0.16139449  0.35278221  0.95168938  1
  O  O536  1  0.16258982  0.68530069  0.20176275  1
  O  O537  1  0.16069028  0.68562134  0.45272998  1
  O  O538  1  0.16050098  0.68605252  0.70187825  1
  O  O539  1  0.16334042  0.68492835  0.95357725  1
  O  O540  1  0.66253620  0.01888360  0.20281221  1
  O  O541  1  0.66365771  0.01811377  0.45195519  1
  O  O542  1  0.66437681  0.01811570  0.70241382  1
  O  O543  1  0.66280274  0.01748179  0.95299631  1
  O  O544  1  0.66270344  0.35137057  0.20291396  1
  O  O545  1  0.66437523  0.35134888  0.45256269  1
  O  O546  1  0.66117006  0.35004805  0.70267156  1
  O  O547  1  0.66404673  0.35187126  0.95181231  1
  O  O548  1  0.66351506  0.68453192  0.20171785  1
  O  O549  1  0.66319421  0.68530346  0.45231523  1
  O  O550  1  0.66217769  0.68616735  0.70275428  1
  O  O551  1  0.66218881  0.68557468  0.95251927  1
  O  O552  1  0.33881931  0.31543111  0.04740860  1
  O  O553  1  0.33964229  0.31360890  0.29741686  1
  O  O554  1  0.33841709  0.31636245  0.54751115  1
  O  O555  1  0.33742590  0.31460123  0.79844766  1
  O  O556  1  0.33685573  0.64899960  0.04802482  1
  O  O557  1  0.33583194  0.64987129  0.29675811  1
  O  O558  1  0.33655445  0.64746969  0.54778467  1
  O  O559  1  0.33686185  0.64843954  0.79776840  1
  O  O560  1  0.33702153  0.98057565  0.04842247  1
  O  O561  1  0.33689956  0.98129255  0.29740985  1
  O  O562  1  0.33624663  0.98195319  0.54793152  1
  O  O563  1  0.33565142  0.98162818  0.79771740  1
  O  O564  1  0.83862984  0.31658021  0.04693374  1
  O  O565  1  0.83797958  0.31460378  0.29739291  1
  O  O566  1  0.83896159  0.31598274  0.54735155  1
  O  O567  1  0.83756741  0.31374864  0.79801781  1
  O  O568  1  0.83866961  0.64835329  0.04763093  1
  O  O569  1  0.83722366  0.64981009  0.29691212  1
  O  O570  1  0.83985433  0.64745718  0.54791663  1
  O  O571  1  0.83795631  0.64859760  0.79740501  1
  O  O572  1  0.83667722  0.98053860  0.04773839  1
  O  O573  1  0.83902192  0.98034132  0.29799167  1
  O  O574  1  0.83977396  0.98159394  0.54786415  1
  O  O575  1  0.83772307  0.98267838  0.79774563  1
  O  O576  1  0.41056454  0.14739107  0.17251701  1
  O  O577  1  0.41089261  0.14831520  0.42119218  1
  O  O578  1  0.41206213  0.14835718  0.67207136  1
  O  O579  1  0.41297333  0.14936237  0.92167166  1
  O  O580  1  0.41250193  0.48247919  0.17231072  1
  O  O581  1  0.41174043  0.48072454  0.42322268  1
  O  O582  1  0.41320930  0.48076844  0.67277108  1
  O  O583  1  0.41465582  0.48074232  0.92265605  1
  O  O584  1  0.41151018  0.81539373  0.17217444  1
  O  O585  1  0.41070870  0.81584206  0.42134021  1
  O  O586  1  0.41253556  0.81633079  0.67258814  1
  O  O587  1  0.41323960  0.81508206  0.92358629  1
  O  O588  1  0.91479995  0.14853924  0.17219707  1
  O  O589  1  0.91397198  0.14774091  0.42187949  1
  O  O590  1  0.91107423  0.14770603  0.67290063  1
  O  O591  1  0.91123084  0.14814693  0.92114073  1
  O  O592  1  0.91147428  0.48205711  0.17132949  1
  O  O593  1  0.91109109  0.48193149  0.42193525  1
  O  O594  1  0.91106655  0.48223805  0.67164320  1
  O  O595  1  0.91293094  0.48083216  0.92356393  1
  O  O596  1  0.91270847  0.81443544  0.17270026  1
  O  O597  1  0.91185901  0.81516718  0.42072183  1
  O  O598  1  0.91398099  0.81550256  0.67266942  1
  O  O599  1  0.91203185  0.81655774  0.92371745  1
  O  O600  1  0.08582951  0.18398382  0.07723186  1
  O  O601  1  0.08601725  0.18482986  0.32788994  1
  O  O602  1  0.08605861  0.18505414  0.57799221  1
  O  O603  1  0.08632047  0.18623990  0.82626155  1
  O  O604  1  0.08802735  0.51962912  0.07735060  1
  O  O605  1  0.08593854  0.51772184  0.32642159  1
  O  O606  1  0.08522194  0.51938068  0.57691181  1
  O  O607  1  0.08734684  0.51720526  0.82901367  1
  O  O608  1  0.08952553  0.85119322  0.07793038  1
  O  O609  1  0.08857697  0.85276584  0.32684487  1
  O  O610  1  0.08690218  0.85059135  0.57776388  1
  O  O611  1  0.08738736  0.85161599  0.82785313  1
  O  O612  1  0.58636555  0.18445928  0.07807914  1
  O  O613  1  0.58629805  0.18491182  0.32651260  1
  O  O614  1  0.58707187  0.18527808  0.57713212  1
  O  O615  1  0.58730002  0.18559330  0.82638641  1
  O  O616  1  0.58675957  0.51972245  0.07812581  1
  O  O617  1  0.58841039  0.51843745  0.32685206  1
  O  O618  1  0.58737011  0.51729994  0.57758410  1
  O  O619  1  0.58829931  0.51855674  0.82863463  1
  O  O620  1  0.58614968  0.85029737  0.07740305  1
  O  O621  1  0.58489007  0.85183997  0.32671935  1
  O  O622  1  0.58620021  0.85207463  0.57716542  1
  O  O623  1  0.58885875  0.85006606  0.82820635  1
  O  O624  1  0.33898477  0.18542367  0.04746383  1
  O  O625  1  0.33815315  0.18354593  0.29705799  1
  O  O626  1  0.33948835  0.18635114  0.54794904  1
  O  O627  1  0.33723360  0.18476995  0.79820066  1
  O  O628  1  0.33689664  0.51906641  0.04835760  1
  O  O629  1  0.33618105  0.51977176  0.29725032  1
  O  O630  1  0.33696873  0.51722631  0.54736731  1
  O  O631  1  0.33643043  0.51826708  0.79820153  1
  O  O632  1  0.33661721  0.85076269  0.04815846  1
  O  O633  1  0.33672142  0.85114818  0.29715679  1
  O  O634  1  0.33635754  0.85209312  0.54797561  1
  O  O635  1  0.33565092  0.85175172  0.79754834  1
  O  O636  1  0.83978662  0.18648434  0.04771913  1
  O  O637  1  0.83744669  0.18472281  0.29786497  1
  O  O638  1  0.84033687  0.18590374  0.54767188  1
  O  O639  1  0.83716048  0.18381380  0.79733377  1
  O  O640  1  0.83842272  0.51831898  0.04755621  1
  O  O641  1  0.83779433  0.51980847  0.29755041  1
  O  O642  1  0.83887194  0.51742470  0.54727571  1
  O  O643  1  0.83804704  0.51854938  0.79704670  1
  O  O644  1  0.83652121  0.85060896  0.04722223  1
  O  O645  1  0.83845688  0.85037600  0.29701686  1
  O  O646  1  0.83964671  0.85167624  0.54803984  1
  O  O647  1  0.83828710  0.85276952  0.79863387  1
  O  O648  1  0.16270133  0.14792767  0.20196251  1
  O  O649  1  0.16126657  0.14795398  0.45161174  1
  O  O650  1  0.16228477  0.14925285  0.70295721  1
  O  O651  1  0.16159661  0.14758243  0.95290691  1
  O  O652  1  0.16224161  0.48236618  0.20298656  1
  O  O653  1  0.16382283  0.48105716  0.45224115  1
  O  O654  1  0.16130877  0.48014269  0.70281077  1
  O  O655  1  0.16178462  0.48290475  0.95286868  1
  O  O656  1  0.16249149  0.81513690  0.20218888  1
  O  O657  1  0.16084133  0.81585298  0.45332505  1
  O  O658  1  0.16103267  0.81598616  0.70244082  1
  O  O659  1  0.16326925  0.81502914  0.95371226  1
  O  O660  1  0.66341509  0.14921061  0.20276316  1
  O  O661  1  0.66327351  0.14810704  0.45225849  1
  O  O662  1  0.66461421  0.14832473  0.70216638  1
  O  O663  1  0.66266007  0.14773020  0.95259532  1
  O  O664  1  0.66268895  0.48173532  0.20297480  1
  O  O665  1  0.66405606  0.48137393  0.45273335  1
  O  O666  1  0.66045331  0.48021228  0.70203722  1
  O  O667  1  0.66396492  0.48181355  0.95206275  1
  O  O668  1  0.66277531  0.81444644  0.20166812  1
  O  O669  1  0.66372883  0.81532745  0.45179306  1
  O  O670  1  0.66223065  0.81650861  0.70361612  1
  O  O671  1  0.66257040  0.81550517  0.95269064  1
