# generated using pymatgen
data_Na2MnFe(PO4)2
_symmetry_space_group_name_H-M   'P 1'
_cell_length_a   21.08560234
_cell_length_b   18.93821916
_cell_length_c   20.04465945
_cell_angle_alpha   90.00018641
_cell_angle_beta   90.00184031
_cell_angle_gamma   89.99878473
_symmetry_Int_Tables_number   1
_chemical_formula_structural   Na2MnFe(PO4)2
_chemical_formula_sum   'Na96 Mn48 Fe48 P96 O384'
_cell_volume   8004.30873421
_cell_formula_units_Z   48
loop_
 _symmetry_equiv_pos_site_id
 _symmetry_equiv_pos_as_xyz
  1  'x, y, z'
loop_
 _atom_site_type_symbol
 _atom_site_label
 _atom_site_symmetry_multiplicity
 _atom_site_fract_x
 _atom_site_fract_y
 _atom_site_fract_z
 _atom_site_occupancy
  Na  Na0  1  0.00002377  -0.00014188  -0.00010280  1
  Na  Na1  1  0.00272446  0.00087640  0.24922446  1
  Na  Na2  1  0.00134764  0.00033202  0.50035388  1
  Na  Na3  1  0.00106150  0.00078152  0.75035829  1
  Na  Na4  1  -0.00204554  0.33199946  0.00023981  1
  Na  Na5  1  0.00083467  0.33353234  0.24981107  1
  Na  Na6  1  -0.00040179  0.33289954  0.50036526  1
  Na  Na7  1  0.00007707  0.33374517  0.74974883  1
  Na  Na8  1  0.00369861  0.66837931  -0.00101569  1
  Na  Na9  1  0.00058130  0.66605156  0.25035894  1
  Na  Na10  1  0.00069807  0.66657287  0.50009442  1
  Na  Na11  1  -0.00045559  0.66588870  0.75077186  1
  Na  Na12  1  0.49980683  -0.00018692  0.00063782  1
  Na  Na13  1  0.49852498  -0.00038401  0.25018766  1
  Na  Na14  1  0.49936097  -0.00026165  0.50020923  1
  Na  Na15  1  0.50115022  0.00020977  0.74944350  1
  Na  Na16  1  0.49648073  0.33201427  0.00008613  1
  Na  Na17  1  0.49840176  0.33368390  0.24988747  1
  Na  Na18  1  0.49760162  0.33309232  0.49977785  1
  Na  Na19  1  0.49852611  0.33324438  0.74949997  1
  Na  Na20  1  0.49807753  0.66601559  0.00040179  1
  Na  Na21  1  0.49648517  0.66610467  0.24980675  1
  Na  Na22  1  0.49823949  0.66652023  0.49993384  1
  Na  Na23  1  0.50007501  0.66653506  0.74951323  1
  Na  Na24  1  0.25009839  0.00021368  0.12445864  1
  Na  Na25  1  0.24932325  -0.00028766  0.37460113  1
  Na  Na26  1  0.24902550  -0.00015439  0.62513076  1
  Na  Na27  1  0.24905811  0.00006027  0.87613644  1
  Na  Na28  1  0.25309067  0.33386115  0.12444576  1
  Na  Na29  1  0.25119839  0.33313563  0.37560455  1
  Na  Na30  1  0.24876452  0.33220975  0.62478983  1
  Na  Na31  1  0.25143799  0.33318736  0.87476571  1
  Na  Na32  1  0.25018776  0.66670871  0.12427404  1
  Na  Na33  1  0.25256690  0.66738094  0.37504153  1
  Na  Na34  1  0.25089854  0.66658825  0.62601030  1
  Na  Na35  1  0.25017314  0.66672844  0.87454694  1
  Na  Na36  1  0.74939402  0.00002394  0.12492592  1
  Na  Na37  1  0.74863900  -0.00039536  0.37394113  1
  Na  Na38  1  0.75015920  0.00058034  0.62542765  1
  Na  Na39  1  0.74976123  0.00023387  0.87602441  1
  Na  Na40  1  0.74984915  0.33321008  0.12523904  1
  Na  Na41  1  0.75054779  0.33366212  0.37431768  1
  Na  Na42  1  0.75154818  0.33387186  0.62441008  1
  Na  Na43  1  0.75296587  0.33444514  0.87591380  1
  Na  Na44  1  0.74925870  0.66614430  0.12559615  1
  Na  Na45  1  0.75100765  0.66722354  0.37543911  1
  Na  Na46  1  0.74914617  0.66598652  0.62375193  1
  Na  Na47  1  0.74962422  0.66678050  0.87516007  1
  Na  Na48  1  0.00127071  0.16593193  0.00047360  1
  Na  Na49  1  0.00206537  0.16670607  0.24923553  1
  Na  Na50  1  0.00245749  0.16679043  0.50059722  1
  Na  Na51  1  -0.00105946  0.16736143  0.74996476  1
  Na  Na52  1  -0.00009717  0.49992128  -0.00065362  1
  Na  Na53  1  -0.00068388  0.50049227  0.25000820  1
  Na  Na54  1  -0.00043955  0.49997871  0.49972219  1
  Na  Na55  1  0.00087437  0.49944954  0.75056161  1
  Na  Na56  1  0.00096948  0.83363577  -0.00040569  1
  Na  Na57  1  0.00267984  0.83300340  0.25014004  1
  Na  Na58  1  -0.00076796  0.83408447  0.50068146  1
  Na  Na59  1  0.00096164  0.83268362  0.75038516  1
  Na  Na60  1  0.49986691  0.16621785  0.00019321  1
  Na  Na61  1  0.49741564  0.16746370  0.25067922  1
  Na  Na62  1  0.49785178  0.16709256  0.49929440  1
  Na  Na63  1  0.49921882  0.16718616  0.74979926  1
  Na  Na64  1  0.49937198  0.49939013  -0.00000810  1
  Na  Na65  1  0.49877366  0.49901476  0.24968760  1
  Na  Na66  1  0.49786631  0.50026625  0.50055534  1
  Na  Na67  1  0.49851729  0.50051921  0.74907958  1
  Na  Na68  1  0.49670275  0.83486019  0.00102548  1
  Na  Na69  1  0.49782589  0.83338547  0.24957029  1
  Na  Na70  1  0.49858649  0.83369011  0.49995963  1
  Na  Na71  1  0.50136730  0.83267619  0.74944836  1
  Na  Na72  1  0.24970072  0.16711328  0.12461606  1
  Na  Na73  1  0.24997548  0.16698189  0.37445895  1
  Na  Na74  1  0.24862799  0.16721282  0.62532145  1
  Na  Na75  1  0.24908535  0.16707316  0.87546950  1
  Na  Na76  1  0.25075559  0.50017323  0.12455792  1
  Na  Na77  1  0.25205581  0.49915047  0.37606499  1
  Na  Na78  1  0.25090430  0.49986257  0.62525261  1
  Na  Na79  1  0.25105869  0.49991503  0.87361342  1
  Na  Na80  1  0.25218705  0.83296662  0.12412005  1
  Na  Na81  1  0.25169043  0.83310160  0.37467669  1
  Na  Na82  1  0.24995546  0.83360712  0.62539754  1
  Na  Na83  1  0.25049051  0.83345261  0.87631457  1
  Na  Na84  1  0.74926333  0.16665059  0.12425045  1
  Na  Na85  1  0.75050574  0.16671292  0.37469651  1
  Na  Na86  1  0.75205928  0.16635716  0.62534656  1
  Na  Na87  1  0.75145418  0.16574269  0.87580903  1
  Na  Na88  1  0.74936192  0.49931391  0.12616353  1
  Na  Na89  1  0.75022460  0.49922088  0.37412973  1
  Na  Na90  1  0.75048829  0.49964906  0.62404335  1
  Na  Na91  1  0.75059521  0.49945250  0.87583643  1
  Na  Na92  1  0.75075685  0.83352072  0.12524893  1
  Na  Na93  1  0.74897901  0.83380217  0.37490162  1
  Na  Na94  1  0.74828690  0.83339794  0.62434213  1
  Na  Na95  1  0.74979593  0.83333422  0.87552247  1
  Mn  Mn96  1  0.35821007  0.08337709  0.00212020  1
  Mn  Mn97  1  0.85774824  0.74987020  0.50218546  1
  Mn  Mn98  1  0.14295846  0.58326006  0.24793034  1
  Mn  Mn99  1  0.64129122  0.58388138  0.24856575  1
  Mn  Mn100  1  0.60661650  0.08371873  0.37241789  1
  Mn  Mn101  1  0.89240028  0.91701150  0.87683082  1
  Mn  Mn102  1  0.14266582  0.58309536  0.74742142  1
  Mn  Mn103  1  0.85880581  0.74998370  0.00288148  1
  Mn  Mn104  1  0.35740554  0.41619075  0.75202156  1
  Mn  Mn105  1  0.10828793  0.41649558  0.37282821  1
  Mn  Mn106  1  0.89230160  0.58349483  0.62732850  1
  Mn  Mn107  1  0.85865491  0.08358245  0.50124474  1
  Mn  Mn108  1  0.89285482  0.24931778  0.12757609  1
  Mn  Mn109  1  0.10800126  0.74920641  0.62284679  1
  Mn  Mn110  1  0.39124849  0.58297806  0.12748947  1
  Mn  Mn111  1  0.64117731  0.24938066  0.24817498  1
  Mn  Mn112  1  0.60645156  0.74997664  0.12287687  1
  Mn  Mn113  1  0.64194951  0.25004043  0.99782761  1
  Mn  Mn114  1  0.35837948  0.75099321  0.75277927  1
  Mn  Mn115  1  0.89296363  0.91723961  0.37646604  1
  Mn  Mn116  1  0.10771446  0.08388521  0.62315608  1
  Mn  Mn117  1  0.89182558  0.91638222  0.62793071  1
  Mn  Mn118  1  0.10874613  0.75021103  0.37297210  1
  Mn  Mn119  1  0.60822911  0.08396793  0.62289101  1
  Mn  Mn120  1  0.64194018  0.91646196  0.99840077  1
  Mn  Mn121  1  0.60718371  0.75009503  0.87306505  1
  Mn  Mn122  1  0.35693272  0.08336231  0.50236482  1
  Mn  Mn123  1  0.64262540  0.25043932  0.74822595  1
  Mn  Mn124  1  0.39220393  0.91689403  0.62803320  1
  Mn  Mn125  1  0.60601748  0.74943886  0.37238933  1
  Mn  Mn126  1  0.64164712  0.91703331  0.49735436  1
  Mn  Mn127  1  0.89284891  0.25024028  0.62722955  1
  Mn  Mn128  1  0.64190643  0.25028298  0.49779422  1
  Mn  Mn129  1  0.14251577  0.91602742  0.49747612  1
  Mn  Mn130  1  0.60769222  0.41642229  0.62286548  1
  Mn  Mn131  1  0.89313434  0.58450182  0.12682823  1
  Mn  Mn132  1  0.10895595  0.41709367  0.12254677  1
  Mn  Mn133  1  0.64163077  0.58244764  0.49702413  1
  Mn  Mn134  1  0.14292228  0.25124139  0.99744516  1
  Mn  Mn135  1  0.35744021  0.08293268  0.75277391  1
  Mn  Mn136  1  0.85851632  0.75026585  0.25188461  1
  Mn  Mn137  1  0.89212225  0.58330022  0.87744989  1
  Mn  Mn138  1  0.85812540  0.08317263  0.25194102  1
  Mn  Mn139  1  0.64169878  0.58329947  0.99794657  1
  Mn  Mn140  1  0.60736336  0.41612856  0.87270540  1
  Mn  Mn141  1  0.14279154  0.91625398  0.99779623  1
  Mn  Mn142  1  0.10768231  0.41602811  0.87304839  1
  Mn  Mn143  1  0.85748541  0.41652038  0.25213065  1
  Fe  Fe144  1  0.35778124  0.41742815  0.00119028  1
  Fe  Fe145  1  0.10892584  0.75041968  0.12341600  1
  Fe  Fe146  1  0.35679804  0.75024900  0.25176895  1
  Fe  Fe147  1  0.39278656  0.91691720  0.87615827  1
  Fe  Fe148  1  0.14375551  0.91687909  0.24789488  1
  Fe  Fe149  1  0.85751965  0.08332656  0.00227437  1
  Fe  Fe150  1  0.35741467  0.74959819  0.50242788  1
  Fe  Fe151  1  0.60598351  0.41576438  0.12330358  1
  Fe  Fe152  1  0.39163006  0.58314176  0.37743447  1
  Fe  Fe153  1  0.14356729  0.58300005  0.99824304  1
  Fe  Fe154  1  0.39249056  0.24908940  0.12705655  1
  Fe  Fe155  1  0.85731556  0.41670887  0.00250149  1
  Fe  Fe156  1  0.10809560  0.75076731  0.87276359  1
  Fe  Fe157  1  0.14224600  0.24969381  0.74882589  1
  Fe  Fe158  1  0.14390474  0.58297882  0.49849404  1
  Fe  Fe159  1  0.14312971  0.25075088  0.49766993  1
  Fe  Fe160  1  0.64157303  0.91666636  0.24795610  1
  Fe  Fe161  1  0.89388017  0.91656715  0.12703567  1
  Fe  Fe162  1  0.39158738  0.24994170  0.37704031  1
  Fe  Fe163  1  0.10742112  0.41722209  0.62304273  1
  Fe  Fe164  1  0.35685728  0.41681247  0.50223951  1
  Fe  Fe165  1  0.14270147  0.91703860  0.74891251  1
  Fe  Fe166  1  0.35668972  0.08332345  0.25159730  1
  Fe  Fe167  1  0.39213331  0.24953604  0.87631853  1
  Fe  Fe168  1  0.89274023  0.24969995  0.87642744  1
  Fe  Fe169  1  0.60578492  0.41657182  0.37366289  1
  Fe  Fe170  1  0.39260058  0.58355119  0.87675528  1
  Fe  Fe171  1  0.89377646  0.25016314  0.37647672  1
  Fe  Fe172  1  0.39279124  0.58331234  0.62668136  1
  Fe  Fe173  1  0.35776731  0.41656089  0.25232392  1
  Fe  Fe174  1  0.14389759  0.25012991  0.24849913  1
  Fe  Fe175  1  0.39191623  0.91676922  0.37657725  1
  Fe  Fe176  1  0.85753309  0.41654295  0.50109353  1
  Fe  Fe177  1  0.39226733  0.91787676  0.12754403  1
  Fe  Fe178  1  0.85790505  0.41714654  0.75151790  1
  Fe  Fe179  1  0.89276302  0.58286296  0.37688721  1
  Fe  Fe180  1  0.10813151  0.08289617  0.12321191  1
  Fe  Fe181  1  0.85727986  0.08295364  0.75276403  1
  Fe  Fe182  1  0.85629851  0.74991791  0.75126476  1
  Fe  Fe183  1  0.64236689  0.58340228  0.74851502  1
  Fe  Fe184  1  0.39161871  0.24989695  0.62694477  1
  Fe  Fe185  1  0.60621553  0.08382397  0.12407031  1
  Fe  Fe186  1  0.10682537  0.08338710  0.87325123  1
  Fe  Fe187  1  0.60747680  0.08341947  0.87363247  1
  Fe  Fe188  1  0.35687354  0.74952668  0.00118286  1
  Fe  Fe189  1  0.10830839  0.08377867  0.37261132  1
  Fe  Fe190  1  0.60733089  0.74946952  0.62350775  1
  Fe  Fe191  1  0.64250228  0.91619410  0.74906924  1
  P  P192  1  0.05578191  0.24958101  0.11119289  1
  P  P193  1  0.05496928  0.24986807  0.36032645  1
  P  P194  1  0.05578773  0.25126430  0.61066257  1
  P  P195  1  0.05270753  0.24935649  0.85980549  1
  P  P196  1  0.05507786  0.58420072  0.10910455  1
  P  P197  1  0.05383793  0.58292723  0.36129143  1
  P  P198  1  0.05443095  0.58238027  0.60922872  1
  P  P199  1  0.05519094  0.58362166  0.86120469  1
  P  P200  1  0.05491008  0.91664998  0.11107460  1
  P  P201  1  0.05497542  0.91758928  0.35912676  1
  P  P202  1  0.05445172  0.91656384  0.61126410  1
  P  P203  1  0.05435884  0.91704161  0.85973640  1
  P  P204  1  0.55167634  0.24976936  0.11048209  1
  P  P205  1  0.55095427  0.25111003  0.36036534  1
  P  P206  1  0.55158771  0.25022583  0.60983452  1
  P  P207  1  0.55178864  0.24944701  0.86014229  1
  P  P208  1  0.55247298  0.58226963  0.11029839  1
  P  P209  1  0.55052475  0.58233815  0.36021654  1
  P  P210  1  0.55361066  0.58369691  0.61096381  1
  P  P211  1  0.55215627  0.58305616  0.85947286  1
  P  P212  1  0.55267362  0.91762351  0.11162289  1
  P  P213  1  0.55171324  0.91637730  0.35932935  1
  P  P214  1  0.55481190  0.91589644  0.61121273  1
  P  P215  1  0.55264438  0.91727457  0.85999000  1
  P  P216  1  0.44638827  0.08353096  0.14061658  1
  P  P217  1  0.44429012  0.08305346  0.38866975  1
  P  P218  1  0.44619696  0.08415831  0.64006521  1
  P  P219  1  0.44781228  0.08295889  0.88976594  1
  P  P220  1  0.44498828  0.41567262  0.13925792  1
  P  P221  1  0.44463084  0.41657693  0.38962881  1
  P  P222  1  0.44472315  0.41653046  0.63855494  1
  P  P223  1  0.44562007  0.41670355  0.89003882  1
  P  P224  1  0.44362864  0.75077278  0.13925435  1
  P  P225  1  0.44345086  0.75022653  0.38925891  1
  P  P226  1  0.44649327  0.74925083  0.63898210  1
  P  P227  1  0.44601329  0.75020637  0.89056470  1
  P  P228  1  0.94735640  0.08230216  0.13881233  1
  P  P229  1  0.94909089  0.08442554  0.38940580  1
  P  P230  1  0.94592391  0.08343482  0.64095025  1
  P  P231  1  0.94585470  0.08405310  0.88965568  1
  P  P232  1  0.94628644  0.41691710  0.13911400  1
  P  P233  1  0.94635640  0.41612067  0.39017126  1
  P  P234  1  0.94659549  0.41697236  0.63945168  1
  P  P235  1  0.94466274  0.41577600  0.88948771  1
  P  P236  1  0.94928297  0.75103906  0.13993615  1
  P  P237  1  0.94730154  0.74970875  0.39007789  1
  P  P238  1  0.94611075  0.74967023  0.64128274  1
  P  P239  1  0.94684500  0.75025455  0.88864205  1
  P  P240  1  0.19633334  0.08359618  0.23549136  1
  P  P241  1  0.19573279  0.08427180  0.48434614  1
  P  P242  1  0.19513537  0.08327855  0.73676465  1
  P  P243  1  0.19505764  0.08351789  0.98547361  1
  P  P244  1  0.19882569  0.41580875  0.23535263  1
  P  P245  1  0.19682402  0.41702148  0.48660340  1
  P  P246  1  0.19576949  0.41544922  0.73435361  1
  P  P247  1  0.19868346  0.41749252  0.98459885  1
  P  P248  1  0.19789092  0.75082347  0.23457785  1
  P  P249  1  0.19847923  0.74859838  0.48532421  1
  P  P250  1  0.19590334  0.75120527  0.73630429  1
  P  P251  1  0.19620274  0.74931698  0.98552348  1
  P  P252  1  0.69544927  0.08287960  0.23406089  1
  P  P253  1  0.69685329  0.08388970  0.48433093  1
  P  P254  1  0.69661637  0.08305370  0.73679504  1
  P  P255  1  0.69562065  0.08334826  0.98598958  1
  P  P256  1  0.69373273  0.41638405  0.23562834  1
  P  P257  1  0.69691404  0.41632235  0.48382421  1
  P  P258  1  0.69813370  0.41724151  0.73520645  1
  P  P259  1  0.69622579  0.41621012  0.98637089  1
  P  P260  1  0.69609088  0.75064778  0.23499959  1
  P  P261  1  0.69487931  0.74960896  0.48542510  1
  P  P262  1  0.69654800  0.74969085  0.73474615  1
  P  P263  1  0.69684034  0.75016906  0.98527537  1
  P  P264  1  0.30576299  0.25045775  0.01424854  1
  P  P265  1  0.30436949  0.24958629  0.26404247  1
  P  P266  1  0.30371420  0.25056096  0.51450603  1
  P  P267  1  0.30319724  0.24953460  0.76459322  1
  P  P268  1  0.30380063  0.58347116  0.01321679  1
  P  P269  1  0.30391194  0.58312880  0.26564381  1
  P  P270  1  0.30453358  0.58327122  0.51482199  1
  P  P271  1  0.30541843  0.58358674  0.76441896  1
  P  P272  1  0.30577555  0.91628520  0.01427064  1
  P  P273  1  0.30391243  0.91737473  0.26379014  1
  P  P274  1  0.30441783  0.91599703  0.51417008  1
  P  P275  1  0.30239279  0.91710105  0.76633928  1
  P  P276  1  0.80502946  0.24966316  0.01397651  1
  P  P277  1  0.80387699  0.24954381  0.26554819  1
  P  P278  1  0.80496557  0.25083353  0.51351436  1
  P  P279  1  0.80439194  0.25025099  0.76568707  1
  P  P280  1  0.80331970  0.58253745  0.01558905  1
  P  P281  1  0.80402719  0.58357712  0.26571805  1
  P  P282  1  0.80462098  0.58203643  0.51350557  1
  P  P283  1  0.80209384  0.58366627  0.76471747  1
  P  P284  1  0.80471552  0.91765567  0.01590824  1
  P  P285  1  0.80314616  0.91681091  0.26370918  1
  P  P286  1  0.80340450  0.91702854  0.51489050  1
  P  P287  1  0.80181268  0.91610170  0.76510921  1
  O  O288  1  0.06035515  0.25068524  0.18792913  1
  O  O289  1  0.05941557  0.25080732  0.43709175  1
  O  O290  1  0.05937046  0.25041863  0.68743032  1
  O  O291  1  0.05657215  0.25020236  0.93653710  1
  O  O292  1  0.05774118  0.58301581  0.18599406  1
  O  O293  1  0.05938737  0.58295219  0.43786148  1
  O  O294  1  0.05736537  0.58291303  0.68605363  1
  O  O295  1  0.05969761  0.58299260  0.93791142  1
  O  O296  1  0.05984979  0.91667765  0.18772634  1
  O  O297  1  0.05747572  0.91656146  0.43598104  1
  O  O298  1  0.05876804  0.91649220  0.68795833  1
  O  O299  1  0.05713405  0.91673805  0.93656470  1
  O  O300  1  0.55496294  0.25002294  0.18713652  1
  O  O301  1  0.55497508  0.25046749  0.43698929  1
  O  O302  1  0.55617749  0.25045597  0.68650723  1
  O  O303  1  0.55564112  0.25003460  0.93681494  1
  O  O304  1  0.55533653  0.58313776  0.18704221  1
  O  O305  1  0.55449040  0.58297530  0.43691422  1
  O  O306  1  0.55877496  0.58308352  0.68763336  1
  O  O307  1  0.55598258  0.58294867  0.93619572  1
  O  O308  1  0.55742256  0.91660283  0.18825292  1
  O  O309  1  0.55566577  0.91648092  0.43608118  1
  O  O310  1  0.55942037  0.91638289  0.68798327  1
  O  O311  1  0.55586196  0.91663995  0.93673947  1
  O  O312  1  0.44355464  0.08323021  0.06389403  1
  O  O313  1  0.44043035  0.08311544  0.31192818  1
  O  O314  1  0.44274633  0.08332995  0.56331080  1
  O  O315  1  0.44419351  0.08297936  0.81310774  1
  O  O316  1  0.44059287  0.41693303  0.06257642  1
  O  O317  1  0.44062836  0.41649124  0.31280454  1
  O  O318  1  0.44078509  0.41650362  0.56178849  1
  O  O319  1  0.44300152  0.41672345  0.81322473  1
  O  O320  1  0.43992490  0.74978982  0.06249989  1
  O  O321  1  0.43961202  0.75023951  0.31239099  1
  O  O322  1  0.44166161  0.74988124  0.56230869  1
  O  O323  1  0.44415863  0.75021711  0.81369763  1
  O  O324  1  0.94240946  0.08300807  0.06218088  1
  O  O325  1  0.94523743  0.08383365  0.31270867  1
  O  O326  1  0.94328407  0.08334521  0.56413498  1
  O  O327  1  0.94084297  0.08310001  0.81294268  1
  O  O328  1  0.94177375  0.41663173  0.06235175  1
  O  O329  1  0.94351069  0.41638880  0.31336595  1
  O  O330  1  0.94169425  0.41680964  0.56284444  1
  O  O331  1  0.94078647  0.41712595  0.81264341  1
  O  O332  1  0.94548742  0.75052514  0.06320158  1
  O  O333  1  0.94447840  0.75005017  0.31327692  1
  O  O334  1  0.94280272  0.74992400  0.56449325  1
  O  O335  1  0.94076542  0.74984560  0.81212025  1
  O  O336  1  0.19117601  0.08330806  0.06227419  1
  O  O337  1  0.19219107  0.08357526  0.31220915  1
  O  O338  1  0.19294309  0.08350697  0.56117308  1
  O  O339  1  0.19131993  0.08369065  0.81352987  1
  O  O340  1  0.19515586  0.41673133  0.06129921  1
  O  O341  1  0.19489821  0.41605199  0.31203567  1
  O  O342  1  0.19228123  0.41702841  0.56318163  1
  O  O343  1  0.19302875  0.41613510  0.81116284  1
  O  O344  1  0.19215083  0.75033180  0.06226220  1
  O  O345  1  0.19440951  0.75038250  0.31129049  1
  O  O346  1  0.19460488  0.74925254  0.56200819  1
  O  O347  1  0.19190800  0.75059213  0.81310786  1
  O  O348  1  0.68999675  0.08371724  0.06257749  1
  O  O349  1  0.69208066  0.08360061  0.31085311  1
  O  O350  1  0.69386953  0.08423580  0.56117271  1
  O  O351  1  0.69137988  0.08372191  0.81348444  1
  O  O352  1  0.69049454  0.41568992  0.06297959  1
  O  O353  1  0.68896388  0.41624870  0.31235463  1
  O  O354  1  0.69295881  0.41643834  0.56058521  1
  O  O355  1  0.69411727  0.41652367  0.81189986  1
  O  O356  1  0.69287825  0.75019376  0.06198388  1
  O  O357  1  0.69250096  0.75016317  0.31178593  1
  O  O358  1  0.69044195  0.74920800  0.56218489  1
  O  O359  1  0.69322056  0.74970434  0.81150117  1
  O  O360  1  0.30858665  0.24943830  0.18731023  1
  O  O361  1  0.30837313  0.24997111  0.43775156  1
  O  O362  1  0.30779544  0.24934284  0.68789198  1
  O  O363  1  0.30961630  0.24908932  0.93741949  1
  O  O364  1  0.30606250  0.58293310  0.18877828  1
  O  O365  1  0.30849875  0.58313396  0.43805720  1
  O  O366  1  0.30961800  0.58370854  0.68764721  1
  O  O367  1  0.30808102  0.58344194  0.93654515  1
  O  O368  1  0.30811032  0.91778422  0.18702661  1
  O  O369  1  0.30815934  0.91679772  0.43740724  1
  O  O370  1  0.30630742  0.91715402  0.68958293  1
  O  O371  1  0.30982403  0.91754804  0.93754712  1
  O  O372  1  0.80721109  0.24950876  0.18873102  1
  O  O373  1  0.80926523  0.24987641  0.43682237  1
  O  O374  1  0.80708424  0.25025335  0.68885043  1
  O  O375  1  0.80898142  0.24938581  0.93727652  1
  O  O376  1  0.80742266  0.58351621  0.18894424  1
  O  O377  1  0.80913288  0.58285695  0.43679995  1
  O  O378  1  0.80560852  0.58347885  0.68801803  1
  O  O379  1  0.80640142  0.58337783  0.93877447  1
  O  O380  1  0.80908167  0.91681659  0.18713924  1
  O  O381  1  0.80691258  0.91695216  0.43808976  1
  O  O382  1  0.80513189  0.91638866  0.68842748  1
  O  O383  1  0.80768797  0.91692732  0.93911589  1
  O  O384  1  0.23572634  0.25021680  0.03835871  1
  O  O385  1  0.23406062  0.24962944  0.28815316  1
  O  O386  1  0.23326350  0.25008485  0.53783972  1
  O  O387  1  0.23287548  0.24994280  0.78833903  1
  O  O388  1  0.23374389  0.58357425  0.03781711  1
  O  O389  1  0.23437360  0.58318104  0.29139797  1
  O  O390  1  0.23436967  0.58302472  0.53917328  1
  O  O391  1  0.23527612  0.58338577  0.78804164  1
  O  O392  1  0.23563429  0.91665054  0.03819733  1
  O  O393  1  0.23356787  0.91703766  0.28777370  1
  O  O394  1  0.23452773  0.91639749  0.53875257  1
  O  O395  1  0.23245474  0.91688267  0.79084201  1
  O  O396  1  0.73504774  0.24988618  0.03850403  1
  O  O397  1  0.73396050  0.24980074  0.28998611  1
  O  O398  1  0.73509629  0.25051447  0.53829042  1
  O  O399  1  0.73475273  0.25020388  0.79125935  1
  O  O400  1  0.73369895  0.58256124  0.04084006  1
  O  O401  1  0.73414140  0.58352597  0.29041811  1
  O  O402  1  0.73453934  0.58229581  0.53746147  1
  O  O403  1  0.73209942  0.58346236  0.78975546  1
  O  O404  1  0.73483763  0.91693668  0.04054413  1
  O  O405  1  0.73260778  0.91705862  0.28676186  1
  O  O406  1  0.73365835  0.91719196  0.53971609  1
  O  O407  1  0.73186683  0.91633676  0.79031333  1
  O  O408  1  0.26667976  0.08364444  0.21142150  1
  O  O409  1  0.26544033  0.08373339  0.45931706  1
  O  O410  1  0.26491381  0.08332676  0.71173089  1
  O  O411  1  0.26521308  0.08360196  0.96167566  1
  O  O412  1  0.26894629  0.41655427  0.21093067  1
  O  O413  1  0.26715577  0.41671396  0.46267856  1
  O  O414  1  0.26552706  0.41595897  0.70943230  1
  O  O415  1  0.26858387  0.41686755  0.95970549  1
  O  O416  1  0.26805234  0.75016034  0.21020231  1
  O  O417  1  0.26848201  0.74927502  0.46078268  1
  O  O418  1  0.26587627  0.75052821  0.71199763  1
  O  O419  1  0.26654579  0.74992653  0.96167149  1
  O  O420  1  0.76529258  0.08345823  0.20937424  1
  O  O421  1  0.76642450  0.08335007  0.45896484  1
  O  O422  1  0.76709993  0.08339436  0.71338394  1
  O  O423  1  0.76624923  0.08304512  0.96321813  1
  O  O424  1  0.76407461  0.41613082  0.21230227  1
  O  O425  1  0.76703620  0.41655715  0.45969434  1
  O  O426  1  0.76824038  0.41691541  0.71069905  1
  O  O427  1  0.76672150  0.41653258  0.96334581  1
  O  O428  1  0.76588083  0.75002267  0.21012611  1
  O  O429  1  0.76495520  0.74998674  0.46154833  1
  O  O430  1  0.76653398  0.74971311  0.70970238  1
  O  O431  1  0.76668608  0.75036925  0.96070890  1
  O  O432  1  0.01776077  0.08307256  0.16237926  1
  O  O433  1  0.01905155  0.08385040  0.41423454  1
  O  O434  1  0.01570539  0.08391861  0.66577652  1
  O  O435  1  0.01637075  0.08317852  0.91295122  1
  O  O436  1  0.01635057  0.41712366  0.16318138  1
  O  O437  1  0.01610417  0.41611942  0.41529465  1
  O  O438  1  0.01697207  0.41683030  0.66304841  1
  O  O439  1  0.01478167  0.41597690  0.91365275  1
  O  O440  1  0.01928763  0.75011739  0.16461225  1
  O  O441  1  0.01696746  0.75043533  0.41550502  1
  O  O442  1  0.01595371  0.74901962  0.66582036  1
  O  O443  1  0.01749970  0.75093250  0.91138809  1
  O  O444  1  0.51626526  0.08368892  0.16577509  1
  O  O445  1  0.51413825  0.08328053  0.41348515  1
  O  O446  1  0.51591173  0.08396830  0.66497168  1
  O  O447  1  0.51772304  0.08301113  0.91487895  1
  O  O448  1  0.51525629  0.41605338  0.16315488  1
  O  O449  1  0.51487019  0.41659718  0.41390437  1
  O  O450  1  0.51458445  0.41668961  0.66327112  1
  O  O451  1  0.51522825  0.41600159  0.91556319  1
  O  O452  1  0.51355924  0.74988602  0.16376261  1
  O  O453  1  0.51344430  0.75021032  0.41365715  1
  O  O454  1  0.51672363  0.74937632  0.66291861  1
  O  O455  1  0.51541760  0.75035194  0.91672317  1
  O  O456  1  0.48166557  0.24925608  0.08565794  1
  O  O457  1  0.48079625  0.25079300  0.33606420  1
  O  O458  1  0.48140786  0.25015915  0.58578754  1
  O  O459  1  0.48164257  0.25002158  0.83568485  1
  O  O460  1  0.48271578  0.58247958  0.08522645  1
  O  O461  1  0.48042594  0.58251629  0.33581806  1
  O  O462  1  0.48318696  0.58327525  0.58745680  1
  O  O463  1  0.48196568  0.58346994  0.83531359  1
  O  O464  1  0.48227517  0.91776342  0.08804236  1
  O  O465  1  0.48143266  0.91635160  0.33545635  1
  O  O466  1  0.48469981  0.91654275  0.58728154  1
  O  O467  1  0.48261570  0.91657873  0.83502223  1
  O  O468  1  0.98570762  0.24917080  0.08728711  1
  O  O469  1  0.98472724  0.25051716  0.33630881  1
  O  O470  1  0.98574412  0.25009012  0.58648544  1
  O  O471  1  0.98262468  0.25010661  0.83543027  1
  O  O472  1  0.98549797  0.58409534  0.08364985  1
  O  O473  1  0.98343858  0.58269821  0.33784466  1
  O  O474  1  0.98469283  0.58337554  0.58443835  1
  O  O475  1  0.98509410  0.58287115  0.83710510  1
  O  O476  1  0.98476048  0.91681590  0.08686139  1
  O  O477  1  0.98537500  0.91704598  0.33367135  1
  O  O478  1  0.98448664  0.91699341  0.58700240  1
  O  O479  1  0.98461862  0.91691161  0.83463995  1
  O  O480  1  0.08880468  0.31471932  0.07747597  1
  O  O481  1  0.08895902  0.31457328  0.32680356  1
  O  O482  1  0.08882970  0.31662761  0.57760538  1
  O  O483  1  0.08707686  0.31400798  0.82678902  1
  O  O484  1  0.08951278  0.64943609  0.07752352  1
  O  O485  1  0.08699087  0.64801892  0.32781415  1
  O  O486  1  0.08932489  0.64702137  0.57667470  1
  O  O487  1  0.08834663  0.64889353  0.82824565  1
  O  O488  1  0.08843431  0.98163959  0.07779571  1
  O  O489  1  0.08909948  0.98287779  0.32718470  1
  O  O490  1  0.08831441  0.98150446  0.57834618  1
  O  O491  1  0.08834874  0.98234434  0.82763586  1
  O  O492  1  0.58519628  0.31489013  0.07744504  1
  O  O493  1  0.58449392  0.31620994  0.32768735  1
  O  O494  1  0.58518299  0.31530162  0.57686739  1
  O  O495  1  0.58566269  0.31437976  0.82709597  1
  O  O496  1  0.58640203  0.64729629  0.07756124  1
  O  O497  1  0.58414372  0.64739391  0.32717051  1
  O  O498  1  0.58655470  0.64882839  0.57760598  1
  O  O499  1  0.58621801  0.64805676  0.82685748  1
  O  O500  1  0.58597421  0.98283229  0.07873864  1
  O  O501  1  0.58557036  0.98137217  0.32652640  1
  O  O502  1  0.58826388  0.98103971  0.57805694  1
  O  O503  1  0.58658215  0.98240887  0.82760857  1
  O  O504  1  0.41202249  0.01872224  0.17333192  1
  O  O505  1  0.41089715  0.01776010  0.42149433  1
  O  O506  1  0.41221398  0.01917356  0.67295321  1
  O  O507  1  0.41390151  0.01789689  0.92242310  1
  O  O508  1  0.41178606  0.35033240  0.17208964  1
  O  O509  1  0.41085216  0.35155627  0.42256400  1
  O  O510  1  0.41106519  0.35135173  0.67136062  1
  O  O511  1  0.41078724  0.35188322  0.92206994  1
  O  O512  1  0.40936956  0.68608896  0.17245565  1
  O  O513  1  0.40993440  0.68500478  0.42220400  1
  O  O514  1  0.41307091  0.68421764  0.67198363  1
  O  O515  1  0.41148402  0.68502817  0.92247944  1
  O  O516  1  0.91456756  0.01697827  0.17216144  1
  O  O517  1  0.91500660  0.01945489  0.42213358  1
  O  O518  1  0.91188446  0.01849783  0.67373936  1
  O  O519  1  0.91213272  0.01933193  0.92326540  1
  O  O520  1  0.91285731  0.35183349  0.17230410  1
  O  O521  1  0.91233636  0.35083456  0.42241677  1
  O  O522  1  0.91304340  0.35211647  0.67291987  1
  O  O523  1  0.91122825  0.35043197  0.92196555  1
  O  O524  1  0.91500163  0.68618882  0.17256396  1
  O  O525  1  0.91346232  0.68442212  0.42228240  1
  O  O526  1  0.91167337  0.68478240  0.67370779  1
  O  O527  1  0.91442694  0.68508124  0.92275912  1
  O  O528  1  0.16296384  0.01851471  0.20213115  1
  O  O529  1  0.16132861  0.01948879  0.45165596  1
  O  O530  1  0.16160690  0.01795320  0.70409439  1
  O  O531  1  0.16144441  0.01851055  0.95248041  1
  O  O532  1  0.16551608  0.35072803  0.20232463  1
  O  O533  1  0.16351182  0.35199488  0.45314169  1
  O  O534  1  0.16176559  0.35029019  0.70230893  1
  O  O535  1  0.16458414  0.35253175  0.95180927  1
  O  O536  1  0.16379598  0.68590323  0.20185673  1
  O  O537  1  0.16510041  0.68332121  0.45261411  1
  O  O538  1  0.16218437  0.68621384  0.70320904  1
  O  O539  1  0.16289414  0.68424907  0.95251317  1
  O  O540  1  0.66134631  0.01779467  0.20173850  1
  O  O541  1  0.66223677  0.01899921  0.45221096  1
  O  O542  1  0.66352173  0.01784521  0.70372501  1
  O  O543  1  0.66231630  0.01833017  0.95253326  1
  O  O544  1  0.66026481  0.35140327  0.20212911  1
  O  O545  1  0.66300304  0.35129525  0.45112277  1
  O  O546  1  0.66432519  0.35220926  0.70217659  1
  O  O547  1  0.66350658  0.35117744  0.95230038  1
  O  O548  1  0.66178479  0.68556930  0.20267842  1
  O  O549  1  0.66154167  0.68449696  0.45212995  1
  O  O550  1  0.66248969  0.68459312  0.70206020  1
  O  O551  1  0.66295588  0.68512386  0.95259817  1
  O  O552  1  0.33934286  0.31572746  0.04657526  1
  O  O553  1  0.33778952  0.31463238  0.29731662  1
  O  O554  1  0.33687280  0.31567122  0.54771843  1
  O  O555  1  0.33700352  0.31441969  0.79761864  1
  O  O556  1  0.33723945  0.64849928  0.04640197  1
  O  O557  1  0.33827267  0.64829028  0.29750823  1
  O  O558  1  0.33812110  0.64837019  0.54788100  1
  O  O559  1  0.33892263  0.64842770  0.79779656  1
  O  O560  1  0.33937170  0.98115388  0.04795923  1
  O  O561  1  0.33708362  0.98241226  0.29726171  1
  O  O562  1  0.33803206  0.98094648  0.54744318  1
  O  O563  1  0.33632605  0.98203107  0.79922553  1
  O  O564  1  0.83883445  0.31470010  0.04687374  1
  O  O565  1  0.83824047  0.31441773  0.29797716  1
  O  O566  1  0.83845262  0.31628855  0.54613921  1
  O  O567  1  0.83875536  0.31537614  0.79771095  1
  O  O568  1  0.83737833  0.64779609  0.04797640  1
  O  O569  1  0.83830388  0.64849778  0.29821974  1
  O  O570  1  0.83813594  0.64690323  0.54704655  1
  O  O571  1  0.83587397  0.64888789  0.79737085  1
  O  O572  1  0.83848123  0.98304070  0.04813902  1
  O  O573  1  0.83634426  0.98188122  0.29728677  1
  O  O574  1  0.83753967  0.98205615  0.54731142  1
  O  O575  1  0.83602438  0.98098669  0.79786512  1
  O  O576  1  0.41202381  0.14854221  0.17289753  1
  O  O577  1  0.41055186  0.14825547  0.42135694  1
  O  O578  1  0.41206333  0.14933171  0.67214932  1
  O  O579  1  0.41372823  0.14798832  0.92234314  1
  O  O580  1  0.41123154  0.48036227  0.17303349  1
  O  O581  1  0.41101770  0.48162254  0.42270523  1
  O  O582  1  0.41102540  0.48164985  0.67126684  1
  O  O583  1  0.41182300  0.48209308  0.92245907  1
  O  O584  1  0.41034335  0.81618788  0.17189265  1
  O  O585  1  0.40980278  0.81534519  0.42212945  1
  O  O586  1  0.41318647  0.81427567  0.67256701  1
  O  O587  1  0.41126300  0.81519812  0.92232166  1
  O  O588  1  0.91384620  0.14705052  0.17249262  1
  O  O589  1  0.91556014  0.14973538  0.42199054  1
  O  O590  1  0.91156438  0.14837689  0.67322570  1
  O  O591  1  0.91310647  0.14942695  0.92288101  1
  O  O592  1  0.91265759  0.48197433  0.17197947  1
  O  O593  1  0.91203525  0.48097749  0.42278940  1
  O  O594  1  0.91330166  0.48196936  0.67303937  1
  O  O595  1  0.91079917  0.48055781  0.92292875  1
  O  O596  1  0.91570368  0.81628636  0.17255994  1
  O  O597  1  0.91289613  0.81479956  0.42219305  1
  O  O598  1  0.91223596  0.81470111  0.67408202  1
  O  O599  1  0.91371164  0.81524240  0.92220946  1
  O  O600  1  0.08943443  0.18447573  0.07857089  1
  O  O601  1  0.08839412  0.18466445  0.32740741  1
  O  O602  1  0.09011530  0.18670191  0.57738721  1
  O  O603  1  0.08626426  0.18405636  0.82726940  1
  O  O604  1  0.08963592  0.51934653  0.07640694  1
  O  O605  1  0.08704136  0.51795441  0.32759361  1
  O  O606  1  0.08817030  0.51709203  0.57680878  1
  O  O607  1  0.08883132  0.51864075  0.82800619  1
  O  O608  1  0.08821598  0.85143891  0.07788022  1
  O  O609  1  0.08985666  0.85286084  0.32669254  1
  O  O610  1  0.08776191  0.85137432  0.57800264  1
  O  O611  1  0.08888977  0.85228954  0.82726542  1
  O  O612  1  0.58578006  0.18469286  0.07809297  1
  O  O613  1  0.58469595  0.18614437  0.32728501  1
  O  O614  1  0.58528609  0.18518104  0.57698393  1
  O  O615  1  0.58540286  0.18425783  0.82763016  1
  O  O616  1  0.58630644  0.51696889  0.07816052  1
  O  O617  1  0.58436303  0.51727270  0.32784716  1
  O  O618  1  0.58674979  0.51859228  0.57739164  1
  O  O619  1  0.58578675  0.51798322  0.82649521  1
  O  O620  1  0.58562155  0.85266830  0.07766599  1
  O  O621  1  0.58540451  0.85139938  0.32637358  1
  O  O622  1  0.58773031  0.85049916  0.57825289  1
  O  O623  1  0.58699683  0.85242086  0.82724443  1
  O  O624  1  0.33939538  0.18557260  0.04785393  1
  O  O625  1  0.33764220  0.18448557  0.29733756  1
  O  O626  1  0.33709690  0.18569154  0.54817149  1
  O  O627  1  0.33656115  0.18469550  0.79828607  1
  O  O628  1  0.33722667  0.51838254  0.04644796  1
  O  O629  1  0.33830161  0.51812682  0.29788384  1
  O  O630  1  0.33833310  0.51829015  0.54780165  1
  O  O631  1  0.33894370  0.51852645  0.79738818  1
  O  O632  1  0.33907154  0.85098770  0.04682155  1
  O  O633  1  0.33743934  0.85228237  0.29673840  1
  O  O634  1  0.33791827  0.85073853  0.54690521  1
  O  O635  1  0.33674824  0.85227191  0.79888952  1
  O  O636  1  0.83844008  0.18433264  0.04700690  1
  O  O637  1  0.83798970  0.18452656  0.29806247  1
  O  O638  1  0.83889920  0.18606642  0.54685314  1
  O  O639  1  0.83876814  0.18519902  0.79807038  1
  O  O640  1  0.83759520  0.51746184  0.04758903  1
  O  O641  1  0.83816695  0.51848815  0.29816914  1
  O  O642  1  0.83791657  0.51669084  0.54636148  1
  O  O643  1  0.83633917  0.51872650  0.79728347  1
  O  O644  1  0.83945571  0.85299319  0.04864459  1
  O  O645  1  0.83616603  0.85178413  0.29733963  1
  O  O646  1  0.83721335  0.85189073  0.54757142  1
  O  O647  1  0.83556205  0.85079783  0.79748293  1
  O  O648  1  0.16281894  0.14862525  0.20239106  1
  O  O649  1  0.16194549  0.14962101  0.45214273  1
  O  O650  1  0.16144287  0.14837203  0.70380869  1
  O  O651  1  0.16129783  0.14838070  0.95238724  1
  O  O652  1  0.16482315  0.48083166  0.20271108  1
  O  O653  1  0.16390306  0.48218583  0.45302719  1
  O  O654  1  0.16149826  0.48037480  0.70164849  1
  O  O655  1  0.16486467  0.48252472  0.95215578  1
  O  O656  1  0.16445086  0.81594810  0.20163231  1
  O  O657  1  0.16451137  0.81349148  0.45235856  1
  O  O658  1  0.16266471  0.81648566  0.70354160  1
  O  O659  1  0.16252271  0.81423029  0.95212020  1
  O  O660  1  0.66104789  0.14783079  0.20141964  1
  O  O661  1  0.66282809  0.14901653  0.45191455  1
  O  O662  1  0.66360380  0.14813739  0.70297458  1
  O  O663  1  0.66260738  0.14829115  0.95198363  1
  O  O664  1  0.66044061  0.48151835  0.20244862  1
  O  O665  1  0.66262814  0.48111960  0.45095144  1
  O  O666  1  0.66434791  0.48236439  0.70261841  1
  O  O667  1  0.66296045  0.48118721  0.95287703  1
  O  O668  1  0.66225389  0.81581519  0.20250006  1
  O  O669  1  0.66117792  0.81461637  0.45253477  1
  O  O670  1  0.66237907  0.81478385  0.70235803  1
  O  O671  1  0.66286719  0.81524764  0.95272455  1
